MODEL 1
REMARK VINA RESULT:      -9.1      0.000      0.000
REMARK  6 active torsions:
REMARK  status: ('A' for Active; 'I' for Inactive)
REMARK    1  A    between atoms: C_6  and  S_7 
REMARK    2  A    between atoms: S_7  and  C_8 
REMARK    3  A    between atoms: C_8  and  C_9 
REMARK    4  A    between atoms: C_9  and  C_10 
REMARK    5  A    between atoms: C_19  and  N_20 
REMARK    6  A    between atoms: N_20  and  C_21 
ROOT
HETATM    1  C   UNL     1      44.033 -21.894   1.792  1.00  0.00     0.001 A 
HETATM    2  C   UNL     1      43.757 -20.529   1.810  1.00  0.00     0.018 A 
HETATM    3  C   UNL     1      44.000 -19.750   2.972  1.00  0.00     0.039 A 
HETATM    4  C   UNL     1      44.508 -20.371   4.119  1.00  0.00     0.073 A 
HETATM    5  N   UNL     1      44.740 -19.713   5.257  1.00  0.00    -0.222 NA
HETATM    6  C   UNL     1      44.460 -18.403   5.275  1.00  0.00     0.191 A 
HETATM    7  N   UNL     1      43.980 -17.707   4.240  1.00  0.00    -0.204 NA
HETATM    8  C   UNL     1      43.757 -18.368   3.091  1.00  0.00     0.143 A 
HETATM    9  C   UNL     1      44.778 -21.734   4.076  1.00  0.00     0.032 A 
HETATM   10  C   UNL     1      44.550 -22.498   2.928  1.00  0.00     0.002 A 
ENDROOT
BRANCH   6  11
HETATM   11  S   UNL     1      44.741 -17.493   6.773  1.00  0.00    -0.082 SA
BRANCH  11  12
HETATM   12  C   UNL     1      43.375 -16.302   6.669  1.00  0.00     0.166 C 
BRANCH  12  13
HETATM   13  C   UNL     1      43.855 -14.886   6.401  1.00  0.00     0.169 C 
HETATM   14  O   UNL     1      44.789 -14.349   6.994  1.00  0.00    -0.291 OA
BRANCH  13  15
HETATM   15  C   UNL     1      43.131 -14.089   5.358  1.00  0.00     0.011 A 
HETATM   16  C   UNL     1      42.004 -13.309   5.651  1.00  0.00     0.017 A 
HETATM   17  C   UNL     1      41.365 -12.586   4.637  1.00  0.00     0.025 A 
HETATM   18  C   UNL     1      41.850 -12.635   3.331  1.00  0.00     0.034 A 
HETATM   19 CL   UNL     1      41.060 -11.743   2.091  1.00  0.00    -0.084 Cl
HETATM   20  C   UNL     1      42.970 -13.403   3.027  1.00  0.00     0.025 A 
HETATM   21  C   UNL     1      43.609 -14.128   4.038  1.00  0.00     0.017 A 
ENDBRANCH  13  15
ENDBRANCH  12  13
ENDBRANCH  11  12
ENDBRANCH   6  11
BRANCH   8  22
HETATM   22  N   UNL     1      43.268 -17.663   1.959  1.00  0.00    -0.340 N 
HETATM   23  H   UNL     1      44.054 -17.336   1.406  1.00  0.00     0.167 HD
BRANCH  22  24
HETATM   24  C   UNL     1      42.164 -16.785   1.852  1.00  0.00     0.036 A 
HETATM   25  C   UNL     1      41.981 -16.087   0.645  1.00  0.00     0.069 A 
HETATM   26  C   UNL     1      40.857 -15.299   0.495  1.00  0.00     0.107 A 
HETATM   27  C   UNL     1      39.909 -15.196   1.482  1.00  0.00     0.105 A 
HETATM   28  O   UNL     1      40.545 -14.563  -0.605  1.00  0.00    -0.323 OA
HETATM   29  O   UNL     1      38.881 -14.379   1.132  1.00  0.00    -0.323 OA
HETATM   30  C   UNL     1      40.030 -15.882   2.668  1.00  0.00     0.042 A 
HETATM   31  C   UNL     1      39.290 -13.982  -0.193  1.00  0.00     0.352 A 
HETATM   32  C   UNL     1      41.159 -16.693   2.841  1.00  0.00     0.032 A 
ENDBRANCH  22  24
ENDBRANCH   8  22
TORSDOF 6
ENDMDL
MODEL 2
REMARK VINA RESULT:      -8.3      4.349      7.548
REMARK  6 active torsions:
REMARK  status: ('A' for Active; 'I' for Inactive)
REMARK    1  A    between atoms: C_6  and  S_7 
REMARK    2  A    between atoms: S_7  and  C_8 
REMARK    3  A    between atoms: C_8  and  C_9 
REMARK    4  A    between atoms: C_9  and  C_10 
REMARK    5  A    between atoms: C_19  and  N_20 
REMARK    6  A    between atoms: N_20  and  C_21 
ROOT
HETATM    1  C   UNL     1      42.853 -10.470  -3.100  1.00  0.00     0.001 A 
HETATM    2  C   UNL     1      42.431 -11.776  -2.864  1.00  0.00     0.018 A 
HETATM    3  C   UNL     1      42.278 -12.267  -1.540  1.00  0.00     0.039 A 
HETATM    4  C   UNL     1      42.574 -11.427  -0.461  1.00  0.00     0.073 A 
HETATM    5  N   UNL     1      42.479 -11.821   0.812  1.00  0.00    -0.222 NA
HETATM    6  C   UNL     1      42.085 -13.081   1.035  1.00  0.00     0.191 A 
HETATM    7  N   UNL     1      41.771 -13.966   0.083  1.00  0.00    -0.204 NA
HETATM    8  C   UNL     1      41.856 -13.565  -1.197  1.00  0.00     0.143 A 
HETATM    9  C   UNL     1      42.991 -10.127  -0.721  1.00  0.00     0.032 A 
HETATM   10  C   UNL     1      43.130  -9.641  -2.023  1.00  0.00     0.002 A 
ENDROOT
BRANCH   6  11
HETATM   11  S   UNL     1      41.959 -13.650   2.711  1.00  0.00    -0.082 SA
BRANCH  11  12
HETATM   12  C   UNL     1      42.075 -15.441   2.437  1.00  0.00     0.166 C 
BRANCH  12  13
HETATM   13  C   UNL     1      42.902 -16.142   3.501  1.00  0.00     0.169 C 
HETATM   14  O   UNL     1      43.267 -15.616   4.551  1.00  0.00    -0.291 OA
BRANCH  13  15
HETATM   15  C   UNL     1      43.310 -17.562   3.245  1.00  0.00     0.011 A 
HETATM   16  C   UNL     1      44.022 -18.323   4.182  1.00  0.00     0.017 A 
HETATM   17  C   UNL     1      44.380 -19.644   3.891  1.00  0.00     0.025 A 
HETATM   18  C   UNL     1      44.025 -20.211   2.667  1.00  0.00     0.034 A 
HETATM   19 CL   UNL     1      44.467 -21.835   2.317  1.00  0.00    -0.084 Cl
HETATM   20  C   UNL     1      43.314 -19.468   1.729  1.00  0.00     0.025 A 
HETATM   21  C   UNL     1      42.958 -18.146   2.018  1.00  0.00     0.017 A 
ENDBRANCH  13  15
ENDBRANCH  12  13
ENDBRANCH  11  12
ENDBRANCH   6  11
BRANCH   8  22
HETATM   22  N   UNL     1      41.511 -14.467  -2.239  1.00  0.00    -0.340 N 
HETATM   23  H   UNL     1      42.251 -14.470  -2.934  1.00  0.00     0.167 HD
BRANCH  22  24
HETATM   24  C   UNL     1      40.251 -14.723  -2.829  1.00  0.00     0.036 A 
HETATM   25  C   UNL     1      39.313 -13.676  -2.881  1.00  0.00     0.069 A 
HETATM   26  C   UNL     1      38.116 -13.886  -3.535  1.00  0.00     0.107 A 
HETATM   27  C   UNL     1      37.827 -15.078  -4.151  1.00  0.00     0.105 A 
HETATM   28  O   UNL     1      37.112 -12.977  -3.665  1.00  0.00    -0.323 OA
HETATM   29  O   UNL     1      36.604 -15.075  -4.744  1.00  0.00    -0.323 OA
HETATM   30  C   UNL     1      38.724 -16.120  -4.152  1.00  0.00     0.042 A 
HETATM   31  C   UNL     1      36.157 -13.740  -4.433  1.00  0.00     0.352 A 
HETATM   32  C   UNL     1      39.949 -15.929  -3.498  1.00  0.00     0.032 A 
ENDBRANCH  22  24
ENDBRANCH   8  22
TORSDOF 6
ENDMDL
MODEL 3
REMARK VINA RESULT:      -8.1      3.534      7.129
REMARK  6 active torsions:
REMARK  status: ('A' for Active; 'I' for Inactive)
REMARK    1  A    between atoms: C_6  and  S_7 
REMARK    2  A    between atoms: S_7  and  C_8 
REMARK    3  A    between atoms: C_8  and  C_9 
REMARK    4  A    between atoms: C_9  and  C_10 
REMARK    5  A    between atoms: C_19  and  N_20 
REMARK    6  A    between atoms: N_20  and  C_21 
ROOT
HETATM    1  C   UNL     1      44.552 -18.635   6.511  1.00  0.00     0.001 A 
HETATM    2  C   UNL     1      44.775 -17.261   6.566  1.00  0.00     0.018 A 
HETATM    3  C   UNL     1      43.778 -16.342   6.143  1.00  0.00     0.039 A 
HETATM    4  C   UNL     1      42.563 -16.829   5.649  1.00  0.00     0.073 A 
HETATM    5  N   UNL     1      41.587 -16.031   5.211  1.00  0.00    -0.222 NA
HETATM    6  C   UNL     1      41.809 -14.711   5.252  1.00  0.00     0.191 A 
HETATM    7  N   UNL     1      42.926 -14.136   5.709  1.00  0.00    -0.204 NA
HETATM    8  C   UNL     1      43.904 -14.939   6.161  1.00  0.00     0.143 A 
HETATM    9  C   UNL     1      42.363 -18.204   5.607  1.00  0.00     0.032 A 
HETATM   10  C   UNL     1      43.339 -19.107   6.034  1.00  0.00     0.002 A 
ENDROOT
BRANCH   6  11
HETATM   11  S   UNL     1      40.542 -13.615   4.666  1.00  0.00    -0.082 SA
BRANCH  11  12
HETATM   12  C   UNL     1      40.552 -14.049   2.903  1.00  0.00     0.166 C 
BRANCH  12  13
HETATM   13  C   UNL     1      41.948 -14.349   2.385  1.00  0.00     0.169 C 
HETATM   14  O   UNL     1      42.779 -13.489   2.100  1.00  0.00    -0.291 OA
BRANCH  13  15
HETATM   15  C   UNL     1      42.328 -15.787   2.194  1.00  0.00     0.011 A 
HETATM   16  C   UNL     1      41.397 -16.774   1.842  1.00  0.00     0.017 A 
HETATM   17  C   UNL     1      41.806 -18.102   1.679  1.00  0.00     0.025 A 
HETATM   18  C   UNL     1      43.144 -18.449   1.863  1.00  0.00     0.034 A 
HETATM   19 CL   UNL     1      43.638 -20.083   1.659  1.00  0.00    -0.084 Cl
HETATM   20  C   UNL     1      44.079 -17.479   2.208  1.00  0.00     0.025 A 
HETATM   21  C   UNL     1      43.672 -16.150   2.373  1.00  0.00     0.017 A 
ENDBRANCH  13  15
ENDBRANCH  12  13
ENDBRANCH  11  12
ENDBRANCH   6  11
BRANCH   8  22
HETATM   22  N   UNL     1      45.099 -14.369   6.675  1.00  0.00    -0.340 N 
HETATM   23  H   UNL     1      45.775 -15.108   6.841  1.00  0.00     0.167 HD
BRANCH  22  24
HETATM   24  C   UNL     1      45.269 -13.303   7.589  1.00  0.00     0.036 A 
HETATM   25  C   UNL     1      44.301 -13.124   8.593  1.00  0.00     0.069 A 
HETATM   26  C   UNL     1      44.502 -12.146   9.546  1.00  0.00     0.107 A 
HETATM   27  C   UNL     1      45.628 -11.361   9.551  1.00  0.00     0.105 A 
HETATM   28  O   UNL     1      43.659 -11.850  10.571  1.00  0.00    -0.323 OA
HETATM   29  O   UNL     1      45.636 -10.468  10.575  1.00  0.00    -0.323 OA
HETATM   30  C   UNL     1      46.616 -11.518   8.606  1.00  0.00     0.042 A 
HETATM   31  C   UNL     1      44.386 -10.785  11.219  1.00  0.00     0.352 A 
HETATM   32  C   UNL     1      46.436 -12.509   7.632  1.00  0.00     0.032 A 
ENDBRANCH  22  24
ENDBRANCH   8  22
TORSDOF 6
ENDMDL
MODEL 4
REMARK VINA RESULT:      -8.1      3.468      6.500
REMARK  6 active torsions:
REMARK  status: ('A' for Active; 'I' for Inactive)
REMARK    1  A    between atoms: C_6  and  S_7 
REMARK    2  A    between atoms: S_7  and  C_8 
REMARK    3  A    between atoms: C_8  and  C_9 
REMARK    4  A    between atoms: C_9  and  C_10 
REMARK    5  A    between atoms: C_19  and  N_20 
REMARK    6  A    between atoms: N_20  and  C_21 
ROOT
HETATM    1  C   UNL     1      40.532 -15.506  -3.133  1.00  0.00     0.001 A 
HETATM    2  C   UNL     1      41.257 -15.831  -1.989  1.00  0.00     0.018 A 
HETATM    3  C   UNL     1      40.945 -15.241  -0.735  1.00  0.00     0.039 A 
HETATM    4  C   UNL     1      39.905 -14.309  -0.657  1.00  0.00     0.073 A 
HETATM    5  N   UNL     1      39.567 -13.693   0.479  1.00  0.00    -0.222 NA
HETATM    6  C   UNL     1      40.274 -13.997   1.574  1.00  0.00     0.191 A 
HETATM    7  N   UNL     1      41.281 -14.876   1.618  1.00  0.00    -0.204 NA
HETATM    8  C   UNL     1      41.613 -15.503   0.477  1.00  0.00     0.143 A 
HETATM    9  C   UNL     1      39.194 -14.003  -1.812  1.00  0.00     0.032 A 
HETATM   10  C   UNL     1      39.494 -14.592  -3.043  1.00  0.00     0.002 A 
ENDROOT
BRANCH   6  11
HETATM   11  S   UNL     1      39.867 -13.192   3.103  1.00  0.00    -0.082 SA
BRANCH  11  12
HETATM   12  C   UNL     1      40.285 -14.518   4.270  1.00  0.00     0.166 C 
BRANCH  12  13
HETATM   13  C   UNL     1      41.337 -14.095   5.280  1.00  0.00     0.169 C 
HETATM   14  O   UNL     1      41.606 -12.925   5.550  1.00  0.00    -0.291 OA
BRANCH  13  15
HETATM   15  C   UNL     1      42.105 -15.175   5.982  1.00  0.00     0.011 A 
HETATM   16  C   UNL     1      43.462 -15.045   6.309  1.00  0.00     0.017 A 
HETATM   17  C   UNL     1      44.132 -16.086   6.963  1.00  0.00     0.025 A 
HETATM   18  C   UNL     1      43.449 -17.255   7.296  1.00  0.00     0.034 A 
HETATM   19 CL   UNL     1      44.279 -18.529   8.101  1.00  0.00    -0.084 Cl
HETATM   20  C   UNL     1      42.101 -17.395   6.981  1.00  0.00     0.025 A 
HETATM   21  C   UNL     1      41.431 -16.357   6.325  1.00  0.00     0.017 A 
ENDBRANCH  13  15
ENDBRANCH  12  13
ENDBRANCH  11  12
ENDBRANCH   6  11
BRANCH   8  22
HETATM   22  N   UNL     1      42.663 -16.460   0.482  1.00  0.00    -0.340 N 
HETATM   23  H   UNL     1      42.729 -16.886  -0.438  1.00  0.00     0.167 HD
BRANCH  22  24
HETATM   24  C   UNL     1      43.052 -17.366   1.496  1.00  0.00     0.036 A 
HETATM   25  C   UNL     1      43.221 -18.720   1.154  1.00  0.00     0.069 A 
HETATM   26  C   UNL     1      43.689 -19.596   2.113  1.00  0.00     0.107 A 
HETATM   27  C   UNL     1      44.012 -19.178   3.379  1.00  0.00     0.105 A 
HETATM   28  O   UNL     1      43.898 -20.928   1.936  1.00  0.00    -0.323 OA
HETATM   29  O   UNL     1      44.461 -20.192   4.163  1.00  0.00    -0.323 OA
HETATM   30  C   UNL     1      43.891 -17.859   3.752  1.00  0.00     0.042 A 
HETATM   31  C   UNL     1      44.388 -21.299   3.241  1.00  0.00     0.352 A 
HETATM   32  C   UNL     1      43.423 -16.950   2.794  1.00  0.00     0.032 A 
ENDBRANCH  22  24
ENDBRANCH   8  22
TORSDOF 6
ENDMDL
MODEL 5
REMARK VINA RESULT:      -8.1      3.498      7.937
REMARK  6 active torsions:
REMARK  status: ('A' for Active; 'I' for Inactive)
REMARK    1  A    between atoms: C_6  and  S_7 
REMARK    2  A    between atoms: S_7  and  C_8 
REMARK    3  A    between atoms: C_8  and  C_9 
REMARK    4  A    between atoms: C_9  and  C_10 
REMARK    5  A    between atoms: C_19  and  N_20 
REMARK    6  A    between atoms: N_20  and  C_21 
ROOT
HETATM    1  C   UNL     1      38.717 -11.358   3.898  1.00  0.00     0.001 A 
HETATM    2  C   UNL     1      39.285 -12.550   4.341  1.00  0.00     0.018 A 
HETATM    3  C   UNL     1      39.813 -13.494   3.420  1.00  0.00     0.039 A 
HETATM    4  C   UNL     1      39.743 -13.226   2.049  1.00  0.00     0.073 A 
HETATM    5  N   UNL     1      40.194 -14.073   1.121  1.00  0.00    -0.222 NA
HETATM    6  C   UNL     1      40.727 -15.224   1.550  1.00  0.00     0.191 A 
HETATM    7  N   UNL     1      40.852 -15.581   2.832  1.00  0.00    -0.204 NA
HETATM    8  C   UNL     1      40.408 -14.723   3.766  1.00  0.00     0.143 A 
HETATM    9  C   UNL     1      39.173 -12.028   1.631  1.00  0.00     0.032 A 
HETATM   10  C   UNL     1      38.665 -11.095   2.537  1.00  0.00     0.002 A 
ENDROOT
BRANCH   6  11
HETATM   11  S   UNL     1      41.327 -16.385   0.348  1.00  0.00    -0.082 SA
BRANCH  11  12
HETATM   12  C   UNL     1      41.760 -17.765   1.445  1.00  0.00     0.166 C 
BRANCH  12  13
HETATM   13  C   UNL     1      43.261 -17.936   1.602  1.00  0.00     0.169 C 
HETATM   14  O   UNL     1      44.100 -17.247   1.025  1.00  0.00    -0.291 OA
BRANCH  13  15
HETATM   15  C   UNL     1      43.748 -19.027   2.509  1.00  0.00     0.011 A 
HETATM   16  C   UNL     1      44.064 -18.803   3.857  1.00  0.00     0.017 A 
HETATM   17  C   UNL     1      44.517 -19.857   4.658  1.00  0.00     0.025 A 
HETATM   18  C   UNL     1      44.651 -21.137   4.120  1.00  0.00     0.034 A 
HETATM   19 CL   UNL     1      45.207 -22.426   5.112  1.00  0.00    -0.084 Cl
HETATM   20  C   UNL     1      44.337 -21.373   2.785  1.00  0.00     0.025 A 
HETATM   21  C   UNL     1      43.886 -20.320   1.982  1.00  0.00     0.017 A 
ENDBRANCH  13  15
ENDBRANCH  12  13
ENDBRANCH  11  12
ENDBRANCH   6  11
BRANCH   8  22
HETATM   22  N   UNL     1      40.539 -15.052   5.141  1.00  0.00    -0.340 N 
HETATM   23  H   UNL     1      39.998 -14.395   5.694  1.00  0.00     0.167 HD
BRANCH  22  24
HETATM   24  C   UNL     1      41.672 -15.512   5.854  1.00  0.00     0.036 A 
HETATM   25  C   UNL     1      41.631 -16.803   6.411  1.00  0.00     0.069 A 
HETATM   26  C   UNL     1      42.763 -17.297   7.029  1.00  0.00     0.107 A 
HETATM   27  C   UNL     1      43.926 -16.574   7.094  1.00  0.00     0.105 A 
HETATM   28  O   UNL     1      42.876 -18.519   7.617  1.00  0.00    -0.323 OA
HETATM   29  O   UNL     1      44.920 -17.243   7.734  1.00  0.00    -0.323 OA
HETATM   30  C   UNL     1      44.023 -15.319   6.538  1.00  0.00     0.042 A 
HETATM   31  C   UNL     1      44.248 -18.476   8.061  1.00  0.00     0.352 A 
HETATM   32  C   UNL     1      42.889 -14.798   5.901  1.00  0.00     0.032 A 
ENDBRANCH  22  24
ENDBRANCH   8  22
TORSDOF 6
ENDMDL
MODEL 6
REMARK VINA RESULT:      -7.7      3.140      6.732
REMARK  6 active torsions:
REMARK  status: ('A' for Active; 'I' for Inactive)
REMARK    1  A    between atoms: C_6  and  S_7 
REMARK    2  A    between atoms: S_7  and  C_8 
REMARK    3  A    between atoms: C_8  and  C_9 
REMARK    4  A    between atoms: C_9  and  C_10 
REMARK    5  A    between atoms: C_19  and  N_20 
REMARK    6  A    between atoms: N_20  and  C_21 
ROOT
HETATM    1  C   UNL     1      38.840 -10.543   3.955  1.00  0.00     0.001 A 
HETATM    2  C   UNL     1      38.896 -11.782   3.319  1.00  0.00     0.018 A 
HETATM    3  C   UNL     1      39.527 -12.893   3.939  1.00  0.00     0.039 A 
HETATM    4  C   UNL     1      40.114 -12.732   5.199  1.00  0.00     0.073 A 
HETATM    5  N   UNL     1      40.746 -13.721   5.836  1.00  0.00    -0.222 NA
HETATM    6  C   UNL     1      40.809 -14.906   5.216  1.00  0.00     0.191 A 
HETATM    7  N   UNL     1      40.279 -15.175   4.018  1.00  0.00    -0.204 NA
HETATM    8  C   UNL     1      39.634 -14.182   3.383  1.00  0.00     0.143 A 
HETATM    9  C   UNL     1      40.043 -11.487   5.814  1.00  0.00     0.032 A 
HETATM   10  C   UNL     1      39.412 -10.398   5.209  1.00  0.00     0.002 A 
ENDROOT
BRANCH   6  11
HETATM   11  S   UNL     1      41.652 -16.245   6.022  1.00  0.00    -0.082 SA
BRANCH  11  12
HETATM   12  C   UNL     1      43.197 -16.253   5.068  1.00  0.00     0.166 C 
BRANCH  12  13
HETATM   13  C   UNL     1      44.087 -17.435   5.408  1.00  0.00     0.169 C 
HETATM   14  O   UNL     1      44.788 -17.506   6.416  1.00  0.00    -0.291 OA
BRANCH  13  15
HETATM   15  C   UNL     1      44.121 -18.583   4.444  1.00  0.00     0.011 A 
HETATM   16  C   UNL     1      44.744 -19.803   4.744  1.00  0.00     0.017 A 
HETATM   17  C   UNL     1      44.747 -20.842   3.806  1.00  0.00     0.025 A 
HETATM   18  C   UNL     1      44.127 -20.668   2.569  1.00  0.00     0.034 A 
HETATM   19 CL   UNL     1      44.136 -21.950   1.422  1.00  0.00    -0.084 Cl
HETATM   20  C   UNL     1      43.502 -19.464   2.260  1.00  0.00     0.025 A 
HETATM   21  C   UNL     1      43.499 -18.424   3.195  1.00  0.00     0.017 A 
ENDBRANCH  13  15
ENDBRANCH  12  13
ENDBRANCH  11  12
ENDBRANCH   6  11
BRANCH   8  22
HETATM   22  N   UNL     1      39.037 -14.430   2.118  1.00  0.00    -0.340 N 
HETATM   23  H   UNL     1      38.195 -14.982   2.250  1.00  0.00     0.167 HD
BRANCH  22  24
HETATM   24  C   UNL     1      39.647 -14.713   0.874  1.00  0.00     0.036 A 
HETATM   25  C   UNL     1      39.223 -13.991  -0.257  1.00  0.00     0.069 A 
HETATM   26  C   UNL     1      39.874 -14.193  -1.458  1.00  0.00     0.107 A 
HETATM   27  C   UNL     1      40.932 -15.059  -1.572  1.00  0.00     0.105 A 
HETATM   28  O   UNL     1      39.578 -13.577  -2.634  1.00  0.00    -0.323 OA
HETATM   29  O   UNL     1      41.434 -15.104  -2.833  1.00  0.00    -0.323 OA
HETATM   30  C   UNL     1      41.400 -15.765  -0.488  1.00  0.00     0.042 A 
HETATM   31  C   UNL     1      40.572 -14.160  -3.501  1.00  0.00     0.352 A 
HETATM   32  C   UNL     1      40.759 -15.573   0.743  1.00  0.00     0.032 A 
ENDBRANCH  22  24
ENDBRANCH   8  22
TORSDOF 6
ENDMDL
MODEL 7
REMARK VINA RESULT:      -7.7      3.255      3.979
REMARK  6 active torsions:
REMARK  status: ('A' for Active; 'I' for Inactive)
REMARK    1  A    between atoms: C_6  and  S_7 
REMARK    2  A    between atoms: S_7  and  C_8 
REMARK    3  A    between atoms: C_8  and  C_9 
REMARK    4  A    between atoms: C_9  and  C_10 
REMARK    5  A    between atoms: C_19  and  N_20 
REMARK    6  A    between atoms: N_20  and  C_21 
ROOT
HETATM    1  C   UNL     1      43.306 -19.848   1.964  1.00  0.00     0.001 A 
HETATM    2  C   UNL     1      42.699 -18.621   2.219  1.00  0.00     0.018 A 
HETATM    3  C   UNL     1      42.991 -17.894   3.404  1.00  0.00     0.039 A 
HETATM    4  C   UNL     1      43.888 -18.431   4.333  1.00  0.00     0.073 A 
HETATM    5  N   UNL     1      44.195 -17.820   5.480  1.00  0.00    -0.222 NA
HETATM    6  C   UNL     1      43.600 -16.647   5.728  1.00  0.00     0.191 A 
HETATM    7  N   UNL     1      42.734 -16.039   4.911  1.00  0.00    -0.204 NA
HETATM    8  C   UNL     1      42.434 -16.648   3.752  1.00  0.00     0.143 A 
HETATM    9  C   UNL     1      44.483 -19.656   4.055  1.00  0.00     0.032 A 
HETATM   10  C   UNL     1      44.205 -20.365   2.884  1.00  0.00     0.002 A 
ENDROOT
BRANCH   6  11
HETATM   11  S   UNL     1      43.970 -15.809   7.249  1.00  0.00    -0.082 SA
BRANCH  11  12
HETATM   12  C   UNL     1      44.039 -14.098   6.646  1.00  0.00     0.166 C 
BRANCH  12  13
HETATM   13  C   UNL     1      45.137 -13.288   7.314  1.00  0.00     0.169 C 
HETATM   14  O   UNL     1      46.315 -13.300   6.964  1.00  0.00    -0.291 OA
BRANCH  13  15
HETATM   15  C   UNL     1      44.758 -12.432   8.486  1.00  0.00     0.011 A 
HETATM   16  C   UNL     1      43.538 -11.744   8.555  1.00  0.00     0.017 A 
HETATM   17  C   UNL     1      43.236 -10.956   9.672  1.00  0.00     0.025 A 
HETATM   18  C   UNL     1      44.146 -10.857  10.724  1.00  0.00     0.034 A 
HETATM   19 CL   UNL     1      43.767  -9.888  12.093  1.00  0.00    -0.084 Cl
HETATM   20  C   UNL     1      45.359 -11.538  10.670  1.00  0.00     0.025 A 
HETATM   21  C   UNL     1      45.663 -12.324   9.553  1.00  0.00     0.017 A 
ENDBRANCH  13  15
ENDBRANCH  12  13
ENDBRANCH  11  12
ENDBRANCH   6  11
BRANCH   8  22
HETATM   22  N   UNL     1      41.535 -16.027   2.845  1.00  0.00    -0.340 N 
HETATM   23  H   UNL     1      41.196 -16.720   2.185  1.00  0.00     0.167 HD
BRANCH  22  24
HETATM   24  C   UNL     1      41.594 -14.743   2.255  1.00  0.00     0.036 A 
HETATM   25  C   UNL     1      41.853 -14.653   0.875  1.00  0.00     0.069 A 
HETATM   26  C   UNL     1      41.822 -13.412   0.271  1.00  0.00     0.107 A 
HETATM   27  C   UNL     1      41.525 -12.272   0.974  1.00  0.00     0.105 A 
HETATM   28  O   UNL     1      42.056 -13.164  -1.046  1.00  0.00    -0.323 OA
HETATM   29  O   UNL     1      41.538 -11.160   0.193  1.00  0.00    -0.323 OA
HETATM   30  C   UNL     1      41.236 -12.313   2.318  1.00  0.00     0.042 A 
HETATM   31  C   UNL     1      41.873 -11.733  -1.087  1.00  0.00     0.352 A 
HETATM   32  C   UNL     1      41.256 -13.562   2.953  1.00  0.00     0.032 A 
ENDBRANCH  22  24
ENDBRANCH   8  22
TORSDOF 6
ENDMDL
MODEL 8
REMARK VINA RESULT:      -7.6      4.084      8.304
REMARK  6 active torsions:
REMARK  status: ('A' for Active; 'I' for Inactive)
REMARK    1  A    between atoms: C_6  and  S_7 
REMARK    2  A    between atoms: S_7  and  C_8 
REMARK    3  A    between atoms: C_8  and  C_9 
REMARK    4  A    between atoms: C_9  and  C_10 
REMARK    5  A    between atoms: C_19  and  N_20 
REMARK    6  A    between atoms: N_20  and  C_21 
ROOT
HETATM    1  C   UNL     1      38.511 -11.479   2.188  1.00  0.00     0.001 A 
HETATM    2  C   UNL     1      38.880 -11.470   3.531  1.00  0.00     0.018 A 
HETATM    3  C   UNL     1      39.490 -12.606   4.128  1.00  0.00     0.039 A 
HETATM    4  C   UNL     1      39.705 -13.753   3.356  1.00  0.00     0.073 A 
HETATM    5  N   UNL     1      40.249 -14.867   3.850  1.00  0.00    -0.222 NA
HETATM    6  C   UNL     1      40.590 -14.861   5.145  1.00  0.00     0.191 A 
HETATM    7  N   UNL     1      40.438 -13.822   5.973  1.00  0.00    -0.204 NA
HETATM    8  C   UNL     1      39.900 -12.697   5.472  1.00  0.00     0.143 A 
HETATM    9  C   UNL     1      39.330 -13.736   2.017  1.00  0.00     0.032 A 
HETATM   10  C   UNL     1      38.741 -12.615   1.427  1.00  0.00     0.002 A 
ENDROOT
BRANCH   6  11
HETATM   11  S   UNL     1      41.305 -16.327   5.845  1.00  0.00    -0.082 SA
BRANCH  11  12
HETATM   12  C   UNL     1      42.997 -16.179   5.205  1.00  0.00     0.166 C 
BRANCH  12  13
HETATM   13  C   UNL     1      43.842 -17.406   5.500  1.00  0.00     0.169 C 
HETATM   14  O   UNL     1      44.493 -17.566   6.531  1.00  0.00    -0.291 OA
BRANCH  13  15
HETATM   15  C   UNL     1      43.895 -18.484   4.458  1.00  0.00     0.011 A 
HETATM   16  C   UNL     1      43.315 -18.338   3.190  1.00  0.00     0.017 A 
HETATM   17  C   UNL     1      43.393 -19.377   2.256  1.00  0.00     0.025 A 
HETATM   18  C   UNL     1      44.051 -20.562   2.582  1.00  0.00     0.034 A 
HETATM   19 CL   UNL     1      44.143 -21.834   1.429  1.00  0.00    -0.084 Cl
HETATM   20  C   UNL     1      44.634 -20.719   3.836  1.00  0.00     0.025 A 
HETATM   21  C   UNL     1      44.556 -19.682   4.772  1.00  0.00     0.017 A 
ENDBRANCH  13  15
ENDBRANCH  12  13
ENDBRANCH  11  12
ENDBRANCH   6  11
BRANCH   8  22
HETATM   22  N   UNL     1      39.740 -11.562   6.311  1.00  0.00    -0.340 N 
HETATM   23  H   UNL     1      39.743 -10.723   5.740  1.00  0.00     0.167 HD
BRANCH  22  24
HETATM   24  C   UNL     1      40.271 -11.310   7.597  1.00  0.00     0.036 A 
HETATM   25  C   UNL     1      41.638 -10.997   7.705  1.00  0.00     0.069 A 
HETATM   26  C   UNL     1      42.149 -10.659   8.943  1.00  0.00     0.107 A 
HETATM   27  C   UNL     1      41.356 -10.600  10.061  1.00  0.00     0.105 A 
HETATM   28  O   UNL     1      43.444 -10.339   9.207  1.00  0.00    -0.323 OA
HETATM   29  O   UNL     1      42.049 -10.240  11.173  1.00  0.00    -0.323 OA
HETATM   30  C   UNL     1      40.008 -10.869  10.000  1.00  0.00     0.042 A 
HETATM   31  C   UNL     1      43.372 -10.074  10.623  1.00  0.00     0.352 A 
HETATM   32  C   UNL     1      39.466 -11.209   8.753  1.00  0.00     0.032 A 
ENDBRANCH  22  24
ENDBRANCH   8  22
TORSDOF 6
ENDMDL
MODEL 9
REMARK VINA RESULT:      -7.6      2.896      4.285
REMARK  6 active torsions:
REMARK  status: ('A' for Active; 'I' for Inactive)
REMARK    1  A    between atoms: C_6  and  S_7 
REMARK    2  A    between atoms: S_7  and  C_8 
REMARK    3  A    between atoms: C_8  and  C_9 
REMARK    4  A    between atoms: C_9  and  C_10 
REMARK    5  A    between atoms: C_19  and  N_20 
REMARK    6  A    between atoms: N_20  and  C_21 
ROOT
HETATM    1  C   UNL     1      43.317 -19.384   1.383  1.00  0.00     0.001 A 
HETATM    2  C   UNL     1      42.960 -18.096   0.990  1.00  0.00     0.018 A 
HETATM    3  C   UNL     1      42.882 -17.039   1.936  1.00  0.00     0.039 A 
HETATM    4  C   UNL     1      43.153 -17.304   3.282  1.00  0.00     0.073 A 
HETATM    5  N   UNL     1      43.078 -16.371   4.234  1.00  0.00    -0.222 NA
HETATM    6  C   UNL     1      42.721 -15.137   3.855  1.00  0.00     0.191 A 
HETATM    7  N   UNL     1      42.447 -14.770   2.600  1.00  0.00    -0.204 NA
HETATM    8  C   UNL     1      42.533 -15.707   1.641  1.00  0.00     0.143 A 
HETATM    9  C   UNL     1      43.511 -18.596   3.650  1.00  0.00     0.032 A 
HETATM   10  C   UNL     1      43.598 -19.633   2.717  1.00  0.00     0.002 A 
ENDROOT
BRANCH   6  11
HETATM   11  S   UNL     1      42.596 -13.869   5.091  1.00  0.00    -0.082 SA
BRANCH  11  12
HETATM   12  C   UNL     1      44.295 -13.894   5.730  1.00  0.00     0.166 C 
BRANCH  12  13
HETATM   13  C   UNL     1      44.399 -14.577   7.083  1.00  0.00     0.169 C 
HETATM   14  O   UNL     1      44.594 -13.985   8.143  1.00  0.00    -0.291 OA
BRANCH  13  15
HETATM   15  C   UNL     1      44.269 -16.070   7.123  1.00  0.00     0.011 A 
HETATM   16  C   UNL     1      45.267 -16.928   6.638  1.00  0.00     0.017 A 
HETATM   17  C   UNL     1      45.093 -18.315   6.699  1.00  0.00     0.025 A 
HETATM   18  C   UNL     1      43.928 -18.851   7.247  1.00  0.00     0.034 A 
HETATM   19 CL   UNL     1      43.724 -20.556   7.318  1.00  0.00    -0.084 Cl
HETATM   20  C   UNL     1      42.932 -18.011   7.735  1.00  0.00     0.025 A 
HETATM   21  C   UNL     1      43.102 -16.624   7.674  1.00  0.00     0.017 A 
ENDBRANCH  13  15
ENDBRANCH  12  13
ENDBRANCH  11  12
ENDBRANCH   6  11
BRANCH   8  22
HETATM   22  N   UNL     1      42.271 -15.355   0.290  1.00  0.00    -0.340 N 
HETATM   23  H   UNL     1      43.104 -14.937  -0.113  1.00  0.00     0.167 HD
BRANCH  22  24
HETATM   24  C   UNL     1      41.097 -14.823  -0.292  1.00  0.00     0.036 A 
HETATM   25  C   UNL     1      40.947 -14.903  -1.688  1.00  0.00     0.069 A 
HETATM   26  C   UNL     1      39.766 -14.471  -2.258  1.00  0.00     0.107 A 
HETATM   27  C   UNL     1      38.732 -13.986  -1.498  1.00  0.00     0.105 A 
HETATM   28  O   UNL     1      39.476 -14.479  -3.587  1.00  0.00    -0.323 OA
HETATM   29  O   UNL     1      37.659 -13.623  -2.250  1.00  0.00    -0.323 OA
HETATM   30  C   UNL     1      38.820 -13.915  -0.127  1.00  0.00     0.042 A 
HETATM   31  C   UNL     1      38.138 -13.941  -3.573  1.00  0.00     0.352 A 
HETATM   32  C   UNL     1      40.007 -14.354   0.474  1.00  0.00     0.032 A 
ENDBRANCH  22  24
ENDBRANCH   8  22
TORSDOF 6
ENDMDL
MODEL 10
REMARK VINA RESULT:      -7.5      3.584      7.983
REMARK  6 active torsions:
REMARK  status: ('A' for Active; 'I' for Inactive)
REMARK    1  A    between atoms: C_6  and  S_7 
REMARK    2  A    between atoms: S_7  and  C_8 
REMARK    3  A    between atoms: C_8  and  C_9 
REMARK    4  A    between atoms: C_9  and  C_10 
REMARK    5  A    between atoms: C_19  and  N_20 
REMARK    6  A    between atoms: N_20  and  C_21 
ROOT
HETATM    1  C   UNL     1      41.583  -9.744   7.554  1.00  0.00     0.001 A 
HETATM    2  C   UNL     1      41.647 -11.080   7.166  1.00  0.00     0.018 A 
HETATM    3  C   UNL     1      41.469 -11.455   5.807  1.00  0.00     0.039 A 
HETATM    4  C   UNL     1      41.209 -10.466   4.853  1.00  0.00     0.073 A 
HETATM    5  N   UNL     1      41.007 -10.740   3.562  1.00  0.00    -0.222 NA
HETATM    6  C   UNL     1      41.055 -12.026   3.194  1.00  0.00     0.191 A 
HETATM    7  N   UNL     1      41.302 -13.050   4.017  1.00  0.00    -0.204 NA
HETATM    8  C   UNL     1      41.516 -12.773   5.314  1.00  0.00     0.143 A 
HETATM    9  C   UNL     1      41.153  -9.139   5.264  1.00  0.00     0.032 A 
HETATM   10  C   UNL     1      41.340  -8.769   6.598  1.00  0.00     0.002 A 
ENDROOT
BRANCH   6  11
HETATM   11  S   UNL     1      40.778 -12.436   1.489  1.00  0.00    -0.082 SA
BRANCH  11  12
HETATM   12  C   UNL     1      41.908 -13.847   1.325  1.00  0.00     0.166 C 
BRANCH  12  13
HETATM   13  C   UNL     1      41.180 -15.180   1.319  1.00  0.00     0.169 C 
HETATM   14  O   UNL     1      39.976 -15.310   1.105  1.00  0.00    -0.291 OA
BRANCH  13  15
HETATM   15  C   UNL     1      41.981 -16.414   1.610  1.00  0.00     0.011 A 
HETATM   16  C   UNL     1      41.447 -17.705   1.494  1.00  0.00     0.017 A 
HETATM   17  C   UNL     1      42.239 -18.823   1.779  1.00  0.00     0.025 A 
HETATM   18  C   UNL     1      43.565 -18.657   2.176  1.00  0.00     0.034 A 
HETATM   19 CL   UNL     1      44.532 -20.036   2.524  1.00  0.00    -0.084 Cl
HETATM   20  C   UNL     1      44.109 -17.382   2.292  1.00  0.00     0.025 A 
HETATM   21  C   UNL     1      43.319 -16.263   2.009  1.00  0.00     0.017 A 
ENDBRANCH  13  15
ENDBRANCH  12  13
ENDBRANCH  11  12
ENDBRANCH   6  11
BRANCH   8  22
HETATM   22  N   UNL     1      41.803 -13.829   6.220  1.00  0.00    -0.340 N 
HETATM   23  H   UNL     1      42.356 -13.466   6.990  1.00  0.00     0.167 HD
BRANCH  22  24
HETATM   24  C   UNL     1      42.116 -15.183   5.956  1.00  0.00     0.036 A 
HETATM   25  C   UNL     1      43.406 -15.644   6.278  1.00  0.00     0.069 A 
HETATM   26  C   UNL     1      43.694 -16.984   6.111  1.00  0.00     0.107 A 
HETATM   27  C   UNL     1      42.754 -17.876   5.661  1.00  0.00     0.105 A 
HETATM   28  O   UNL     1      44.890 -17.577   6.372  1.00  0.00    -0.323 OA
HETATM   29  O   UNL     1      43.237 -19.144   5.576  1.00  0.00    -0.323 OA
HETATM   30  C   UNL     1      41.472 -17.478   5.361  1.00  0.00     0.042 A 
HETATM   31  C   UNL     1      44.592 -18.947   6.030  1.00  0.00     0.352 A 
HETATM   32  C   UNL     1      41.154 -16.123   5.528  1.00  0.00     0.032 A 
ENDBRANCH  22  24
ENDBRANCH   8  22
TORSDOF 6
ENDMDL
