MODEL 1
REMARK VINA RESULT:      -7.6      0.000      0.000
REMARK  7 active torsions:
REMARK  status: ('A' for Active; 'I' for Inactive)
REMARK    1  A    between atoms: C_2  and  N_3 
REMARK    2  A    between atoms: N_3  and  C_4 
REMARK    3  A    between atoms: C_6  and  N_7 
REMARK    4  A    between atoms: N_7  and  C_8 
REMARK    5  A    between atoms: C_8  and  C_9 
REMARK    6  A    between atoms: C_9  and  C_10 
REMARK    7  A    between atoms: C_13  and  O_14 
ROOT
HETATM    1  C   UNL     1      44.246 -18.501   4.312  1.00  0.00     0.119 A 
HETATM    2  N   UNL     1      43.946 -17.664   3.302  1.00  0.00    -0.207 NA
HETATM    3  C   UNL     1      43.822 -18.170   2.065  1.00  0.00     0.181 A 
HETATM    4  N   UNL     1      43.946 -19.470   1.813  1.00  0.00    -0.330 N 
HETATM    5  H   UNL     1      43.771 -19.774   0.864  1.00  0.00     0.168 HD
HETATM    6  C   UNL     1      44.225 -20.349   2.780  1.00  0.00     0.048 A 
HETATM    7  C   UNL     1      44.392 -19.888   4.099  1.00  0.00     0.031 A 
HETATM    8  C   UNL     1      44.342 -21.714   2.474  1.00  0.00     0.030 A 
HETATM    9  C   UNL     1      44.625 -22.636   3.481  1.00  0.00     0.002 A 
HETATM   10  C   UNL     1      44.784 -22.203   4.794  1.00  0.00     0.001 A 
HETATM   11  C   UNL     1      44.666 -20.846   5.103  1.00  0.00     0.017 A 
ENDROOT
BRANCH   3  12
HETATM   12  N   UNL     1      43.535 -17.360   0.972  1.00  0.00    -0.262 NA
HETATM   13  H   UNL     1      44.131 -16.540   0.910  1.00  0.00     0.130 HD
BRANCH  12  14
HETATM   14  C   UNL     1      42.114 -17.005   0.821  1.00  0.00     0.100 C 
BRANCH  14  15
HETATM   15  C   UNL     1      41.964 -15.479   0.803  1.00  0.00     0.053 C 
BRANCH  15  16
HETATM   16  C   UNL     1      41.923 -14.892   2.190  1.00  0.00    -0.057 A 
HETATM   17  C   UNL     1      42.904 -13.984   2.604  1.00  0.00     0.010 A 
HETATM   18  C   UNL     1      42.861 -13.441   3.891  1.00  0.00     0.037 A 
HETATM   19  C   UNL     1      41.843 -13.791   4.779  1.00  0.00     0.068 A 
HETATM   20  C   UNL     1      40.871 -14.704   4.375  1.00  0.00     0.037 A 
HETATM   21  C   UNL     1      40.912 -15.254   3.088  1.00  0.00     0.010 A 
BRANCH  19  22
HETATM   22  O   UNL     1      41.916 -13.179   6.000  1.00  0.00    -0.356 OA
HETATM   23  C   UNL     1      41.121 -12.012   6.183  1.00  0.00     0.210 C 
ENDBRANCH  19  22
ENDBRANCH  15  16
ENDBRANCH  14  15
ENDBRANCH  12  14
ENDBRANCH   3  12
BRANCH   1  24
HETATM   24  N   UNL     1      44.353 -17.989   5.606  1.00  0.00    -0.273 NA
HETATM   25  H   UNL     1      45.321 -17.865   5.894  1.00  0.00     0.129 HD
BRANCH  24  26
HETATM   26  C   UNL     1      43.514 -16.849   5.996  1.00  0.00     0.053 C 
HETATM   27  C   UNL     1      44.348 -15.765   6.677  1.00  0.00     0.026 C 
HETATM   28  C   UNL     1      42.441 -17.365   6.957  1.00  0.00     0.026 C 
ENDBRANCH  24  26
ENDBRANCH   1  24
TORSDOF 7
ENDMDL
MODEL 2
REMARK VINA RESULT:      -7.5      1.340      3.738
REMARK  7 active torsions:
REMARK  status: ('A' for Active; 'I' for Inactive)
REMARK    1  A    between atoms: C_2  and  N_3 
REMARK    2  A    between atoms: N_3  and  C_4 
REMARK    3  A    between atoms: C_6  and  N_7 
REMARK    4  A    between atoms: N_7  and  C_8 
REMARK    5  A    between atoms: C_8  and  C_9 
REMARK    6  A    between atoms: C_9  and  C_10 
REMARK    7  A    between atoms: C_13  and  O_14 
ROOT
HETATM    1  C   UNL     1      43.558 -18.344   3.036  1.00  0.00     0.119 A 
HETATM    2  N   UNL     1      43.849 -17.612   4.128  1.00  0.00    -0.207 NA
HETATM    3  C   UNL     1      44.408 -18.228   5.182  1.00  0.00     0.181 A 
HETATM    4  N   UNL     1      44.718 -19.522   5.167  1.00  0.00    -0.330 N 
HETATM    5  H   UNL     1      45.198 -19.890   5.978  1.00  0.00     0.168 HD
HETATM    6  C   UNL     1      44.470 -20.292   4.103  1.00  0.00     0.048 A 
HETATM    7  C   UNL     1      43.863 -19.720   2.969  1.00  0.00     0.031 A 
HETATM    8  C   UNL     1      44.818 -21.651   4.125  1.00  0.00     0.030 A 
HETATM    9  C   UNL     1      44.568 -22.456   3.014  1.00  0.00     0.002 A 
HETATM   10  C   UNL     1      43.978 -21.909   1.879  1.00  0.00     0.001 A 
HETATM   11  C   UNL     1      43.632 -20.556   1.852  1.00  0.00     0.017 A 
ENDROOT
BRANCH   3  12
HETATM   12  N   UNL     1      44.715 -17.539   6.350  1.00  0.00    -0.262 NA
HETATM   13  H   UNL     1      45.191 -18.110   7.041  1.00  0.00     0.130 HD
BRANCH  12  14
HETATM   14  C   UNL     1      43.591 -16.796   6.944  1.00  0.00     0.100 C 
BRANCH  14  15
HETATM   15  C   UNL     1      43.864 -15.289   6.850  1.00  0.00     0.053 C 
BRANCH  15  16
HETATM   16  C   UNL     1      43.053 -14.628   5.767  1.00  0.00    -0.057 A 
HETATM   17  C   UNL     1      41.658 -14.735   5.760  1.00  0.00     0.010 A 
HETATM   18  C   UNL     1      40.910 -14.119   4.754  1.00  0.00     0.037 A 
HETATM   19  C   UNL     1      41.537 -13.387   3.745  1.00  0.00     0.068 A 
HETATM   20  C   UNL     1      42.927 -13.288   3.740  1.00  0.00     0.037 A 
HETATM   21  C   UNL     1      43.682 -13.907   4.744  1.00  0.00     0.010 A 
BRANCH  19  22
HETATM   22  O   UNL     1      40.686 -12.829   2.832  1.00  0.00    -0.356 OA
HETATM   23  C   UNL     1      39.452 -13.501   2.608  1.00  0.00     0.210 C 
ENDBRANCH  19  22
ENDBRANCH  15  16
ENDBRANCH  14  15
ENDBRANCH  12  14
ENDBRANCH   3  12
BRANCH   1  24
HETATM   24  N   UNL     1      43.000 -17.708   1.926  1.00  0.00    -0.273 NA
HETATM   25  H   UNL     1      42.623 -18.370   1.251  1.00  0.00     0.129 HD
BRANCH  24  26
HETATM   26  C   UNL     1      42.104 -16.563   2.131  1.00  0.00     0.053 C 
HETATM   27  C   UNL     1      40.674 -17.030   2.399  1.00  0.00     0.026 C 
HETATM   28  C   UNL     1      42.146 -15.705   0.866  1.00  0.00     0.026 C 
ENDBRANCH  24  26
ENDBRANCH   1  24
TORSDOF 7
ENDMDL
MODEL 3
REMARK VINA RESULT:      -7.3      2.978      4.194
REMARK  7 active torsions:
REMARK  status: ('A' for Active; 'I' for Inactive)
REMARK    1  A    between atoms: C_2  and  N_3 
REMARK    2  A    between atoms: N_3  and  C_4 
REMARK    3  A    between atoms: C_6  and  N_7 
REMARK    4  A    between atoms: N_7  and  C_8 
REMARK    5  A    between atoms: C_8  and  C_9 
REMARK    6  A    between atoms: C_9  and  C_10 
REMARK    7  A    between atoms: C_13  and  O_14 
ROOT
HETATM    1  C   UNL     1      44.230 -18.369   4.240  1.00  0.00     0.119 A 
HETATM    2  N   UNL     1      43.921 -17.540   3.226  1.00  0.00    -0.207 NA
HETATM    3  C   UNL     1      43.793 -18.054   1.993  1.00  0.00     0.181 A 
HETATM    4  N   UNL     1      43.922 -19.356   1.748  1.00  0.00    -0.330 N 
HETATM    5  H   UNL     1      43.744 -19.667   0.803  1.00  0.00     0.168 HD
HETATM    6  C   UNL     1      44.210 -20.228   2.720  1.00  0.00     0.048 A 
HETATM    7  C   UNL     1      44.381 -19.757   4.036  1.00  0.00     0.031 A 
HETATM    8  C   UNL     1      44.331 -21.594   2.422  1.00  0.00     0.030 A 
HETATM    9  C   UNL     1      44.623 -22.508   3.434  1.00  0.00     0.002 A 
HETATM   10  C   UNL     1      44.787 -22.066   4.743  1.00  0.00     0.001 A 
HETATM   11  C   UNL     1      44.665 -20.707   5.044  1.00  0.00     0.017 A 
ENDROOT
BRANCH   3  12
HETATM   12  N   UNL     1      43.497 -17.253   0.896  1.00  0.00    -0.262 NA
HETATM   13  H   UNL     1      44.069 -16.416   0.843  1.00  0.00     0.130 HD
BRANCH  12  14
HETATM   14  C   UNL     1      42.068 -16.942   0.725  1.00  0.00     0.100 C 
BRANCH  14  15
HETATM   15  C   UNL     1      41.886 -15.425   0.581  1.00  0.00     0.053 C 
BRANCH  15  16
HETATM   16  C   UNL     1      40.927 -15.068  -0.524  1.00  0.00    -0.057 A 
HETATM   17  C   UNL     1      39.868 -14.185  -0.285  1.00  0.00     0.010 A 
HETATM   18  C   UNL     1      38.981 -13.855  -1.313  1.00  0.00     0.037 A 
HETATM   19  C   UNL     1      39.137 -14.395  -2.590  1.00  0.00     0.068 A 
HETATM   20  C   UNL     1      40.183 -15.284  -2.830  1.00  0.00     0.037 A 
HETATM   21  C   UNL     1      41.072 -15.621  -1.802  1.00  0.00     0.010 A 
BRANCH  19  22
HETATM   22  O   UNL     1      38.207 -13.980  -3.502  1.00  0.00    -0.356 OA
HETATM   23  C   UNL     1      37.311 -14.966  -4.002  1.00  0.00     0.210 C 
ENDBRANCH  19  22
ENDBRANCH  15  16
ENDBRANCH  14  15
ENDBRANCH  12  14
ENDBRANCH   3  12
BRANCH   1  24
HETATM   24  N   UNL     1      44.341 -17.848   5.530  1.00  0.00    -0.273 NA
HETATM   25  H   UNL     1      45.276 -17.497   5.726  1.00  0.00     0.129 HD
BRANCH  24  26
HETATM   26  C   UNL     1      43.299 -16.942   6.028  1.00  0.00     0.053 C 
HETATM   27  C   UNL     1      43.875 -15.560   6.331  1.00  0.00     0.026 C 
HETATM   28  C   UNL     1      42.716 -17.557   7.302  1.00  0.00     0.026 C 
ENDBRANCH  24  26
ENDBRANCH   1  24
TORSDOF 7
ENDMDL
MODEL 4
REMARK VINA RESULT:      -7.1      2.793      6.599
REMARK  7 active torsions:
REMARK  status: ('A' for Active; 'I' for Inactive)
REMARK    1  A    between atoms: C_2  and  N_3 
REMARK    2  A    between atoms: N_3  and  C_4 
REMARK    3  A    between atoms: C_6  and  N_7 
REMARK    4  A    between atoms: N_7  and  C_8 
REMARK    5  A    between atoms: C_8  and  C_9 
REMARK    6  A    between atoms: C_9  and  C_10 
REMARK    7  A    between atoms: C_13  and  O_14 
ROOT
HETATM    1  C   UNL     1      40.190 -15.302   2.325  1.00  0.00     0.119 A 
HETATM    2  N   UNL     1      41.282 -16.027   2.019  1.00  0.00    -0.207 NA
HETATM    3  C   UNL     1      41.636 -16.139   0.729  1.00  0.00     0.181 A 
HETATM    4  N   UNL     1      40.970 -15.528  -0.247  1.00  0.00    -0.330 N 
HETATM    5  H   UNL     1      41.344 -15.611  -1.183  1.00  0.00     0.168 HD
HETATM    6  C   UNL     1      39.890 -14.780   0.001  1.00  0.00     0.048 A 
HETATM    7  C   UNL     1      39.446 -14.635   1.329  1.00  0.00     0.031 A 
HETATM    8  C   UNL     1      39.219 -14.146  -1.056  1.00  0.00     0.030 A 
HETATM    9  C   UNL     1      38.097 -13.359  -0.801  1.00  0.00     0.002 A 
HETATM   10  C   UNL     1      37.646 -13.194   0.505  1.00  0.00     0.001 A 
HETATM   11  C   UNL     1      38.313 -13.821   1.560  1.00  0.00     0.017 A 
ENDROOT
BRANCH   3  12
HETATM   12  N   UNL     1      42.739 -16.890   0.340  1.00  0.00    -0.262 NA
HETATM   13  H   UNL     1      42.492 -17.746  -0.148  1.00  0.00     0.130 HD
BRANCH  12  14
HETATM   14  C   UNL     1      43.724 -17.142   1.404  1.00  0.00     0.100 C 
BRANCH  14  15
HETATM   15  C   UNL     1      43.797 -18.647   1.691  1.00  0.00     0.053 C 
BRANCH  15  16
HETATM   16  C   UNL     1      43.797 -18.948   3.167  1.00  0.00    -0.057 A 
HETATM   17  C   UNL     1      42.976 -18.224   4.038  1.00  0.00     0.010 A 
HETATM   18  C   UNL     1      42.977 -18.508   5.406  1.00  0.00     0.037 A 
HETATM   19  C   UNL     1      43.792 -19.515   5.925  1.00  0.00     0.068 A 
HETATM   20  C   UNL     1      44.621 -20.231   5.063  1.00  0.00     0.037 A 
HETATM   21  C   UNL     1      44.626 -19.948   3.692  1.00  0.00     0.010 A 
BRANCH  19  22
HETATM   22  O   UNL     1      43.687 -19.694   7.276  1.00  0.00    -0.356 OA
HETATM   23  C   UNL     1      44.105 -18.613   8.103  1.00  0.00     0.210 C 
ENDBRANCH  19  22
ENDBRANCH  15  16
ENDBRANCH  14  15
ENDBRANCH  12  14
ENDBRANCH   3  12
BRANCH   1  24
HETATM   24  N   UNL     1      39.828 -15.158   3.666  1.00  0.00    -0.273 NA
HETATM   25  H   UNL     1      39.710 -16.055   4.132  1.00  0.00     0.129 HD
BRANCH  24  26
HETATM   26  C   UNL     1      40.552 -14.195   4.504  1.00  0.00     0.053 C 
HETATM   27  C   UNL     1      41.714 -14.869   5.231  1.00  0.00     0.026 C 
HETATM   28  C   UNL     1      39.561 -13.622   5.518  1.00  0.00     0.026 C 
ENDBRANCH  24  26
ENDBRANCH   1  24
TORSDOF 7
ENDMDL
MODEL 5
REMARK VINA RESULT:      -7.0      2.582      6.804
REMARK  7 active torsions:
REMARK  status: ('A' for Active; 'I' for Inactive)
REMARK    1  A    between atoms: C_2  and  N_3 
REMARK    2  A    between atoms: N_3  and  C_4 
REMARK    3  A    between atoms: C_6  and  N_7 
REMARK    4  A    between atoms: N_7  and  C_8 
REMARK    5  A    between atoms: C_8  and  C_9 
REMARK    6  A    between atoms: C_9  and  C_10 
REMARK    7  A    between atoms: C_13  and  O_14 
ROOT
HETATM    1  C   UNL     1      41.398 -14.823   4.954  1.00  0.00     0.119 A 
HETATM    2  N   UNL     1      41.789 -15.438   3.822  1.00  0.00    -0.207 NA
HETATM    3  C   UNL     1      41.316 -14.984   2.651  1.00  0.00     0.181 A 
HETATM    4  N   UNL     1      40.510 -13.929   2.569  1.00  0.00    -0.330 N 
HETATM    5  H   UNL     1      40.255 -13.613   1.643  1.00  0.00     0.168 HD
HETATM    6  C   UNL     1      40.105 -13.269   3.659  1.00  0.00     0.048 A 
HETATM    7  C   UNL     1      40.543 -13.701   4.925  1.00  0.00     0.031 A 
HETATM    8  C   UNL     1      39.260 -12.156   3.531  1.00  0.00     0.030 A 
HETATM    9  C   UNL     1      38.842 -11.459   4.665  1.00  0.00     0.002 A 
HETATM   10  C   UNL     1      39.270 -11.864   5.925  1.00  0.00     0.001 A 
HETATM   11  C   UNL     1      40.113 -12.970   6.057  1.00  0.00     0.017 A 
ENDROOT
BRANCH   3  12
HETATM   12  N   UNL     1      41.660 -15.584   1.444  1.00  0.00    -0.262 NA
HETATM   13  H   UNL     1      41.113 -15.249   0.657  1.00  0.00     0.130 HD
BRANCH  12  14
HETATM   14  C   UNL     1      41.712 -17.055   1.478  1.00  0.00     0.100 C 
BRANCH  14  15
HETATM   15  C   UNL     1      43.140 -17.526   1.171  1.00  0.00     0.053 C 
BRANCH  15  16
HETATM   16  C   UNL     1      43.653 -18.499   2.199  1.00  0.00    -0.057 A 
HETATM   17  C   UNL     1      43.920 -18.076   3.506  1.00  0.00     0.010 A 
HETATM   18  C   UNL     1      44.394 -18.983   4.457  1.00  0.00     0.037 A 
HETATM   19  C   UNL     1      44.607 -20.321   4.123  1.00  0.00     0.068 A 
HETATM   20  C   UNL     1      44.355 -20.745   2.819  1.00  0.00     0.037 A 
HETATM   21  C   UNL     1      43.884 -19.839   1.862  1.00  0.00     0.010 A 
BRANCH  19  22
HETATM   22  O   UNL     1      45.062 -21.100   5.150  1.00  0.00    -0.356 OA
HETATM   23  C   UNL     1      44.914 -22.508   5.005  1.00  0.00     0.210 C 
ENDBRANCH  19  22
ENDBRANCH  15  16
ENDBRANCH  14  15
ENDBRANCH  12  14
ENDBRANCH   3  12
BRANCH   1  24
HETATM   24  N   UNL     1      41.904 -15.272   6.175  1.00  0.00    -0.273 NA
HETATM   25  H   UNL     1      41.356 -16.037   6.563  1.00  0.00     0.129 HD
BRANCH  24  26
HETATM   26  C   UNL     1      43.347 -15.506   6.310  1.00  0.00     0.053 C 
HETATM   27  C   UNL     1      43.634 -16.531   7.405  1.00  0.00     0.026 C 
HETATM   28  C   UNL     1      44.007 -14.171   6.658  1.00  0.00     0.026 C 
ENDBRANCH  24  26
ENDBRANCH   1  24
TORSDOF 7
ENDMDL
MODEL 6
REMARK VINA RESULT:      -7.0      1.502      1.875
REMARK  7 active torsions:
REMARK  status: ('A' for Active; 'I' for Inactive)
REMARK    1  A    between atoms: C_2  and  N_3 
REMARK    2  A    between atoms: N_3  and  C_4 
REMARK    3  A    between atoms: C_6  and  N_7 
REMARK    4  A    between atoms: N_7  and  C_8 
REMARK    5  A    between atoms: C_8  and  C_9 
REMARK    6  A    between atoms: C_9  and  C_10 
REMARK    7  A    between atoms: C_13  and  O_14 
ROOT
HETATM    1  C   UNL     1      43.698 -17.910   4.060  1.00  0.00     0.119 A 
HETATM    2  N   UNL     1      43.038 -17.053   3.258  1.00  0.00    -0.207 NA
HETATM    3  C   UNL     1      42.660 -17.476   2.042  1.00  0.00     0.181 A 
HETATM    4  N   UNL     1      42.878 -18.719   1.621  1.00  0.00    -0.330 N 
HETATM    5  H   UNL     1      42.500 -18.973   0.718  1.00  0.00     0.168 HD
HETATM    6  C   UNL     1      43.511 -19.617   2.383  1.00  0.00     0.048 A 
HETATM    7  C   UNL     1      43.958 -19.239   3.663  1.00  0.00     0.031 A 
HETATM    8  C   UNL     1      43.716 -20.921   1.904  1.00  0.00     0.030 A 
HETATM    9  C   UNL     1      44.369 -21.863   2.699  1.00  0.00     0.002 A 
HETATM   10  C   UNL     1      44.810 -21.513   3.971  1.00  0.00     0.001 A 
HETATM   11  C   UNL     1      44.606 -20.218   4.452  1.00  0.00     0.017 A 
ENDROOT
BRANCH   3  12
HETATM   12  N   UNL     1      41.995 -16.638   1.154  1.00  0.00    -0.262 NA
HETATM   13  H   UNL     1      42.457 -16.557   0.254  1.00  0.00     0.130 HD
BRANCH  12  14
HETATM   14  C   UNL     1      41.639 -15.317   1.698  1.00  0.00     0.100 C 
BRANCH  14  15
HETATM   15  C   UNL     1      40.162 -15.313   2.115  1.00  0.00     0.053 C 
BRANCH  15  16
HETATM   16  C   UNL     1      39.884 -14.331   3.223  1.00  0.00    -0.057 A 
HETATM   17  C   UNL     1      39.413 -13.046   2.930  1.00  0.00     0.010 A 
HETATM   18  C   UNL     1      39.155 -12.139   3.960  1.00  0.00     0.037 A 
HETATM   19  C   UNL     1      39.357 -12.499   5.294  1.00  0.00     0.068 A 
HETATM   20  C   UNL     1      39.837 -13.773   5.590  1.00  0.00     0.037 A 
HETATM   21  C   UNL     1      40.101 -14.684   4.560  1.00  0.00     0.010 A 
BRANCH  19  22
HETATM   22  O   UNL     1      39.054 -11.520   6.200  1.00  0.00    -0.356 OA
HETATM   23  C   UNL     1      39.861 -11.456   7.371  1.00  0.00     0.210 C 
ENDBRANCH  19  22
ENDBRANCH  15  16
ENDBRANCH  14  15
ENDBRANCH  12  14
ENDBRANCH   3  12
BRANCH   1  24
HETATM   24  N   UNL     1      44.074 -17.488   5.337  1.00  0.00    -0.273 NA
HETATM   25  H   UNL     1      45.079 -17.351   5.418  1.00  0.00     0.129 HD
BRANCH  24  26
HETATM   26  C   UNL     1      43.319 -16.409   5.986  1.00  0.00     0.053 C 
HETATM   27  C   UNL     1      44.227 -15.570   6.882  1.00  0.00     0.026 C 
HETATM   28  C   UNL     1      42.209 -17.052   6.820  1.00  0.00     0.026 C 
ENDBRANCH  24  26
ENDBRANCH   1  24
TORSDOF 7
ENDMDL
MODEL 7
REMARK VINA RESULT:      -7.0      2.771      7.585
REMARK  7 active torsions:
REMARK  status: ('A' for Active; 'I' for Inactive)
REMARK    1  A    between atoms: C_2  and  N_3 
REMARK    2  A    between atoms: N_3  and  C_4 
REMARK    3  A    between atoms: C_6  and  N_7 
REMARK    4  A    between atoms: N_7  and  C_8 
REMARK    5  A    between atoms: C_8  and  C_9 
REMARK    6  A    between atoms: C_9  and  C_10 
REMARK    7  A    between atoms: C_13  and  O_14 
ROOT
HETATM    1  C   UNL     1      41.768 -15.139   3.728  1.00  0.00     0.119 A 
HETATM    2  N   UNL     1      42.363 -15.809   4.733  1.00  0.00    -0.207 NA
HETATM    3  C   UNL     1      42.086 -15.449   5.995  1.00  0.00     0.181 A 
HETATM    4  N   UNL     1      41.217 -14.484   6.285  1.00  0.00    -0.330 N 
HETATM    5  H   UNL     1      41.016 -14.323   7.263  1.00  0.00     0.168 HD
HETATM    6  C   UNL     1      40.582 -13.800   5.328  1.00  0.00     0.048 A 
HETATM    7  C   UNL     1      40.840 -14.107   3.979  1.00  0.00     0.031 A 
HETATM    8  C   UNL     1      39.667 -12.794   5.676  1.00  0.00     0.030 A 
HETATM    9  C   UNL     1      38.997 -12.083   4.681  1.00  0.00     0.002 A 
HETATM   10  C   UNL     1      39.230 -12.376   3.341  1.00  0.00     0.001 A 
HETATM   11  C   UNL     1      40.138 -13.378   2.991  1.00  0.00     0.017 A 
ENDROOT
BRANCH   3  12
HETATM   12  N   UNL     1      42.681 -16.082   7.081  1.00  0.00    -0.262 NA
HETATM   13  H   UNL     1      42.886 -15.453   7.851  1.00  0.00     0.130 HD
BRANCH  12  14
HETATM   14  C   UNL     1      43.844 -16.921   6.746  1.00  0.00     0.100 C 
BRANCH  14  15
HETATM   15  C   UNL     1      43.569 -18.370   7.168  1.00  0.00     0.053 C 
BRANCH  15  16
HETATM   16  C   UNL     1      43.908 -19.355   6.080  1.00  0.00    -0.057 A 
HETATM   17  C   UNL     1      44.102 -20.708   6.383  1.00  0.00     0.010 A 
HETATM   18  C   UNL     1      44.415 -21.618   5.371  1.00  0.00     0.037 A 
HETATM   19  C   UNL     1      44.536 -21.197   4.046  1.00  0.00     0.068 A 
HETATM   20  C   UNL     1      44.357 -19.850   3.741  1.00  0.00     0.037 A 
HETATM   21  C   UNL     1      44.047 -18.932   4.752  1.00  0.00     0.010 A 
BRANCH  19  22
HETATM   22  O   UNL     1      44.835 -22.193   3.157  1.00  0.00    -0.356 OA
HETATM   23  C   UNL     1      44.352 -22.034   1.827  1.00  0.00     0.210 C 
ENDBRANCH  19  22
ENDBRANCH  15  16
ENDBRANCH  14  15
ENDBRANCH  12  14
ENDBRANCH   3  12
BRANCH   1  24
HETATM   24  N   UNL     1      42.031 -15.523   2.411  1.00  0.00    -0.273 NA
HETATM   25  H   UNL     1      42.709 -14.913   1.960  1.00  0.00     0.129 HD
BRANCH  24  26
HETATM   26  C   UNL     1      42.281 -16.938   2.114  1.00  0.00     0.053 C 
HETATM   27  C   UNL     1      43.574 -17.109   1.320  1.00  0.00     0.026 C 
HETATM   28  C   UNL     1      41.095 -17.462   1.302  1.00  0.00     0.026 C 
ENDBRANCH  24  26
ENDBRANCH   1  24
TORSDOF 7
ENDMDL
MODEL 8
REMARK VINA RESULT:      -6.9      4.007      6.295
REMARK  7 active torsions:
REMARK  status: ('A' for Active; 'I' for Inactive)
REMARK    1  A    between atoms: C_2  and  N_3 
REMARK    2  A    between atoms: N_3  and  C_4 
REMARK    3  A    between atoms: C_6  and  N_7 
REMARK    4  A    between atoms: N_7  and  C_8 
REMARK    5  A    between atoms: C_8  and  C_9 
REMARK    6  A    between atoms: C_9  and  C_10 
REMARK    7  A    between atoms: C_13  and  O_14 
ROOT
HETATM    1  C   UNL     1      43.093 -18.023   3.184  1.00  0.00     0.119 A 
HETATM    2  N   UNL     1      42.758 -17.806   1.899  1.00  0.00    -0.207 NA
HETATM    3  C   UNL     1      42.588 -16.541   1.486  1.00  0.00     0.181 A 
HETATM    4  N   UNL     1      42.779 -15.498   2.290  1.00  0.00    -0.330 N 
HETATM    5  H   UNL     1      42.695 -14.578   1.879  1.00  0.00     0.168 HD
HETATM    6  C   UNL     1      43.131 -15.654   3.570  1.00  0.00     0.048 A 
HETATM    7  C   UNL     1      43.305 -16.954   4.080  1.00  0.00     0.031 A 
HETATM    8  C   UNL     1      43.329 -14.528   4.384  1.00  0.00     0.030 A 
HETATM    9  C   UNL     1      43.705 -14.686   5.718  1.00  0.00     0.002 A 
HETATM   10  C   UNL     1      43.891 -15.961   6.240  1.00  0.00     0.001 A 
HETATM   11  C   UNL     1      43.698 -17.085   5.433  1.00  0.00     0.017 A 
ENDROOT
BRANCH   3  12
HETATM   12  N   UNL     1      42.220 -16.245   0.178  1.00  0.00    -0.262 NA
HETATM   13  H   UNL     1      43.013 -16.105  -0.442  1.00  0.00     0.130 HD
BRANCH  12  14
HETATM   14  C   UNL     1      41.232 -15.162   0.043  1.00  0.00     0.100 C 
BRANCH  14  15
HETATM   15  C   UNL     1      41.413 -14.467  -1.313  1.00  0.00     0.053 C 
BRANCH  15  16
HETATM   16  C   UNL     1      40.240 -14.693  -2.231  1.00  0.00    -0.057 A 
HETATM   17  C   UNL     1      39.099 -13.889  -2.133  1.00  0.00     0.010 A 
HETATM   18  C   UNL     1      38.014 -14.101  -2.987  1.00  0.00     0.037 A 
HETATM   19  C   UNL     1      38.051 -15.109  -3.951  1.00  0.00     0.068 A 
HETATM   20  C   UNL     1      39.180 -15.919  -4.045  1.00  0.00     0.037 A 
HETATM   21  C   UNL     1      40.269 -15.715  -3.188  1.00  0.00     0.010 A 
BRANCH  19  22
HETATM   22  O   UNL     1      36.928 -15.199  -4.726  1.00  0.00    -0.356 OA
HETATM   23  C   UNL     1      36.029 -14.096  -4.686  1.00  0.00     0.210 C 
ENDBRANCH  19  22
ENDBRANCH  15  16
ENDBRANCH  14  15
ENDBRANCH  12  14
ENDBRANCH   3  12
BRANCH   1  24
HETATM   24  N   UNL     1      43.296 -19.335   3.618  1.00  0.00    -0.273 NA
HETATM   25  H   UNL     1      42.446 -19.892   3.575  1.00  0.00     0.129 HD
BRANCH  24  26
HETATM   26  C   UNL     1      44.464 -20.078   3.130  1.00  0.00     0.053 C 
HETATM   27  C   UNL     1      44.045 -21.174   2.153  1.00  0.00     0.026 C 
HETATM   28  C   UNL     1      45.164 -20.696   4.341  1.00  0.00     0.026 C 
ENDBRANCH  24  26
ENDBRANCH   1  24
TORSDOF 7
ENDMDL
MODEL 9
REMARK VINA RESULT:      -6.8      3.935      8.329
REMARK  7 active torsions:
REMARK  status: ('A' for Active; 'I' for Inactive)
REMARK    1  A    between atoms: C_2  and  N_3 
REMARK    2  A    between atoms: N_3  and  C_4 
REMARK    3  A    between atoms: C_6  and  N_7 
REMARK    4  A    between atoms: N_7  and  C_8 
REMARK    5  A    between atoms: C_8  and  C_9 
REMARK    6  A    between atoms: C_9  and  C_10 
REMARK    7  A    between atoms: C_13  and  O_14 
ROOT
HETATM    1  C   UNL     1      41.259 -12.543  -0.160  1.00  0.00     0.119 A 
HETATM    2  N   UNL     1      41.991 -13.670  -0.238  1.00  0.00    -0.207 NA
HETATM    3  C   UNL     1      41.381 -14.847  -0.029  1.00  0.00     0.181 A 
HETATM    4  N   UNL     1      40.075 -14.938   0.212  1.00  0.00    -0.330 N 
HETATM    5  H   UNL     1      39.685 -15.868   0.290  1.00  0.00     0.168 HD
HETATM    6  C   UNL     1      39.296 -13.854   0.282  1.00  0.00     0.048 A 
HETATM    7  C   UNL     1      39.872 -12.583   0.096  1.00  0.00     0.031 A 
HETATM    8  C   UNL     1      37.922 -13.993   0.532  1.00  0.00     0.030 A 
HETATM    9  C   UNL     1      37.105 -12.865   0.597  1.00  0.00     0.002 A 
HETATM   10  C   UNL     1      37.651 -11.600   0.407  1.00  0.00     0.001 A 
HETATM   11  C   UNL     1      39.018 -11.457   0.155  1.00  0.00     0.017 A 
ENDROOT
BRANCH   3  12
HETATM   12  N   UNL     1      42.079 -16.048  -0.073  1.00  0.00    -0.262 NA
HETATM   13  H   UNL     1      41.614 -16.765  -0.620  1.00  0.00     0.130 HD
BRANCH  12  14
HETATM   14  C   UNL     1      42.508 -16.563   1.238  1.00  0.00     0.100 C 
BRANCH  14  15
HETATM   15  C   UNL     1      41.979 -17.991   1.427  1.00  0.00     0.053 C 
BRANCH  15  16
HETATM   16  C   UNL     1      42.907 -18.839   2.256  1.00  0.00    -0.057 A 
HETATM   17  C   UNL     1      43.378 -18.376   3.490  1.00  0.00     0.010 A 
HETATM   18  C   UNL     1      44.238 -19.167   4.256  1.00  0.00     0.037 A 
HETATM   19  C   UNL     1      44.638 -20.427   3.808  1.00  0.00     0.068 A 
HETATM   20  C   UNL     1      44.181 -20.887   2.575  1.00  0.00     0.037 A 
HETATM   21  C   UNL     1      43.322 -20.097   1.801  1.00  0.00     0.010 A 
BRANCH  19  22
HETATM   22  O   UNL     1      45.471 -21.097   4.661  1.00  0.00    -0.356 OA
HETATM   23  C   UNL     1      45.038 -22.377   5.109  1.00  0.00     0.210 C 
ENDBRANCH  19  22
ENDBRANCH  15  16
ENDBRANCH  14  15
ENDBRANCH  12  14
ENDBRANCH   3  12
BRANCH   1  24
HETATM   24  N   UNL     1      41.879 -11.316  -0.400  1.00  0.00    -0.273 NA
HETATM   25  H   UNL     1      42.137 -10.839   0.461  1.00  0.00     0.129 HD
BRANCH  24  26
HETATM   26  C   UNL     1      42.941 -11.236  -1.411  1.00  0.00     0.053 C 
HETATM   27  C   UNL     1      43.784  -9.977  -1.220  1.00  0.00     0.026 C 
HETATM   28  C   UNL     1      42.273 -11.214  -2.788  1.00  0.00     0.026 C 
ENDBRANCH  24  26
ENDBRANCH   1  24
TORSDOF 7
ENDMDL
MODEL 10
REMARK VINA RESULT:      -6.7      3.981      8.026
REMARK  7 active torsions:
REMARK  status: ('A' for Active; 'I' for Inactive)
REMARK    1  A    between atoms: C_2  and  N_3 
REMARK    2  A    between atoms: N_3  and  C_4 
REMARK    3  A    between atoms: C_6  and  N_7 
REMARK    4  A    between atoms: N_7  and  C_8 
REMARK    5  A    between atoms: C_8  and  C_9 
REMARK    6  A    between atoms: C_9  and  C_10 
REMARK    7  A    between atoms: C_13  and  O_14 
ROOT
HETATM    1  C   UNL     1      39.510 -13.736  -0.681  1.00  0.00     0.119 A 
HETATM    2  N   UNL     1      40.546 -14.082   0.106  1.00  0.00    -0.207 NA
HETATM    3  C   UNL     1      41.315 -15.117  -0.266  1.00  0.00     0.181 A 
HETATM    4  N   UNL     1      41.114 -15.782  -1.400  1.00  0.00    -0.330 N 
HETATM    5  H   UNL     1      41.781 -16.504  -1.636  1.00  0.00     0.168 HD
HETATM    6  C   UNL     1      40.113 -15.469  -2.229  1.00  0.00     0.048 A 
HETATM    7  C   UNL     1      39.250 -14.409  -1.893  1.00  0.00     0.031 A 
HETATM    8  C   UNL     1      39.938 -16.191  -3.420  1.00  0.00     0.030 A 
HETATM    9  C   UNL     1      38.900 -15.862  -4.292  1.00  0.00     0.002 A 
HETATM   10  C   UNL     1      38.041 -14.812  -3.984  1.00  0.00     0.001 A 
HETATM   11  C   UNL     1      38.213 -14.090  -2.801  1.00  0.00     0.017 A 
ENDROOT
BRANCH   3  12
HETATM   12  N   UNL     1      42.388 -15.543   0.510  1.00  0.00    -0.262 NA
HETATM   13  H   UNL     1      43.291 -15.370   0.079  1.00  0.00     0.130 HD
BRANCH  12  14
HETATM   14  C   UNL     1      42.283 -16.925   1.006  1.00  0.00     0.100 C 
BRANCH  14  15
HETATM   15  C   UNL     1      43.653 -17.609   0.916  1.00  0.00     0.053 C 
BRANCH  15  16
HETATM   16  C   UNL     1      43.920 -18.510   2.093  1.00  0.00    -0.057 A 
HETATM   17  C   UNL     1      43.935 -17.992   3.393  1.00  0.00     0.010 A 
HETATM   18  C   UNL     1      44.181 -18.831   4.483  1.00  0.00     0.037 A 
HETATM   19  C   UNL     1      44.413 -20.195   4.294  1.00  0.00     0.068 A 
HETATM   20  C   UNL     1      44.411 -20.713   3.001  1.00  0.00     0.037 A 
HETATM   21  C   UNL     1      44.169 -19.875   1.905  1.00  0.00     0.010 A 
BRANCH  19  22
HETATM   22  O   UNL     1      44.629 -20.901   5.445  1.00  0.00    -0.356 OA
HETATM   23  C   UNL     1      45.001 -22.267   5.302  1.00  0.00     0.210 C 
ENDBRANCH  19  22
ENDBRANCH  15  16
ENDBRANCH  14  15
ENDBRANCH  12  14
ENDBRANCH   3  12
BRANCH   1  24
HETATM   24  N   UNL     1      38.719 -12.645  -0.316  1.00  0.00    -0.273 NA
HETATM   25  H   UNL     1      37.733 -12.889  -0.250  1.00  0.00     0.129 HD
BRANCH  24  26
HETATM   26  C   UNL     1      39.148 -11.789   0.796  1.00  0.00     0.053 C 
HETATM   27  C   UNL     1      38.229 -11.960   2.004  1.00  0.00     0.026 C 
HETATM   28  C   UNL     1      39.110 -10.339   0.310  1.00  0.00     0.026 C 
ENDBRANCH  24  26
ENDBRANCH   1  24
TORSDOF 7
ENDMDL
