MODEL 1
REMARK VINA RESULT:      -8.9      0.000      0.000
REMARK  7 active torsions:
REMARK  status: ('A' for Active; 'I' for Inactive)
REMARK    1  A    between atoms: C_2  and  C_3 
REMARK    2  A    between atoms: C_6  and  C_7 
REMARK       I    between atoms: C_7  and  N_8 
REMARK    3  A    between atoms: C_14  and  C_15 
REMARK       I    between atoms: C_15  and  N_16 
REMARK    4  A    between atoms: N_16  and  C_17 
REMARK    5  A    between atoms: C_17  and  C_18 
REMARK       I    between atoms: N_25  and  C_26 
REMARK    6  A    between atoms: C_26  and  C_27 
REMARK    7  A    between atoms: C_30  and  O_31 
ROOT
HETATM    1  C   UNL     1      43.906 -15.637   6.270  1.00  0.00     0.253 C 
HETATM    2  N   UNL     1      42.879 -14.972   5.579  1.00  0.00    -0.348 N 
HETATM    3  C   UNL     1      41.809 -15.680   4.885  1.00  0.00     0.131 C 
HETATM    4  C   UNL     1      40.566 -14.840   4.684  1.00  0.00     0.081 C 
HETATM    5  C   UNL     1      40.822 -13.442   4.104  1.00  0.00     0.142 C 
HETATM    6  O   UNL     1      39.623 -12.703   4.487  1.00  0.00    -0.358 OA
HETATM    7  C   UNL     1      38.998 -12.175   3.320  1.00  0.00     0.206 C 
HETATM    8  C   UNL     1      39.517 -12.991   2.157  1.00  0.00     0.206 C 
HETATM    9  N   UNL     1      40.840 -13.380   2.632  1.00  0.00    -0.300 N 
HETATM   10  C   UNL     1      41.805 -14.036   1.884  1.00  0.00     0.257 C 
HETATM   11  O   UNL     1      42.845 -14.489   2.350  1.00  0.00    -0.267 OA
HETATM   12  C   UNL     1      41.978 -12.744   4.827  1.00  0.00     0.081 C 
HETATM   13  C   UNL     1      43.191 -13.617   5.129  1.00  0.00     0.131 C 
HETATM   14  O   UNL     1      44.823 -15.056   6.848  1.00  0.00    -0.267 OA
ENDROOT
BRANCH   8  15
HETATM   15  C   UNL     1      39.297 -12.129   0.913  1.00  0.00     0.243 C 
HETATM   16  N   UNL     1      39.730 -10.832   0.960  1.00  0.00    -0.354 N 
HETATM   17  H   UNL     1      40.282 -10.476   1.735  1.00  0.00     0.162 HD
HETATM   18  O   UNL     1      38.633 -12.562  -0.031  1.00  0.00    -0.271 OA
BRANCH  16  19
HETATM   19  C   UNL     1      39.539  -9.942  -0.168  1.00  0.00     0.181 C 
BRANCH  19  20
HETATM   20  C   UNL     1      40.777  -9.804  -1.023  1.00  0.00     0.051 A 
HETATM   21  N   UNL     1      40.644  -9.930  -2.371  1.00  0.00    -0.264 NA
HETATM   22  C   UNL     1      41.769  -9.814  -3.112  1.00  0.00     0.117 A 
HETATM   23  C   UNL     1      43.028  -9.589  -2.577  1.00  0.00     0.019 A 
HETATM   24  C   UNL     1      43.148  -9.478  -1.198  1.00  0.00     0.003 A 
HETATM   25  C   UNL     1      42.010  -9.591  -0.406  1.00  0.00     0.029 A 
ENDBRANCH  19  20
ENDBRANCH  16  19
ENDBRANCH   8  15
BRANCH  10  26
HETATM   26  C   UNL     1      41.667 -14.168   0.421  1.00  0.00     0.032 A 
HETATM   27  C   UNL     1      40.990 -15.289  -0.066  1.00  0.00     0.020 A 
HETATM   28  C   UNL     1      40.785 -15.437  -1.436  1.00  0.00     0.038 A 
HETATM   29  C   UNL     1      41.228 -14.457  -2.327  1.00  0.00     0.068 A 
HETATM   30  C   UNL     1      41.884 -13.325  -1.834  1.00  0.00     0.038 A 
HETATM   31  C   UNL     1      42.094 -13.171  -0.458  1.00  0.00     0.020 A 
BRANCH  29  32
HETATM   32  O   UNL     1      40.953 -14.723  -3.639  1.00  0.00    -0.356 OA
HETATM   33  C   UNL     1      39.697 -15.325  -3.923  1.00  0.00     0.210 C 
ENDBRANCH  29  32
ENDBRANCH  10  26
BRANCH   1  34
HETATM   34  C   UNL     1      43.911 -17.119   6.316  1.00  0.00     0.032 A 
HETATM   35  C   UNL     1      44.268 -17.865   5.189  1.00  0.00     0.017 A 
HETATM   36  C   UNL     1      44.282 -19.259   5.253  1.00  0.00     0.008 A 
HETATM   37  C   UNL     1      43.980 -19.920   6.454  1.00  0.00    -0.059 A 
HETATM   38  C   UNL     1      43.665 -19.158   7.589  1.00  0.00     0.008 A 
HETATM   39  C   UNL     1      43.634 -17.763   7.523  1.00  0.00     0.017 A 
BRANCH  37  40
HETATM   40  C   UNL     1      44.009 -21.427   6.524  1.00  0.00     0.034 C 
HETATM   41  C   UNL     1      44.746 -22.051   5.348  1.00  0.00     0.010 C 
ENDBRANCH  37  40
ENDBRANCH   1  34
TORSDOF 7
ENDMDL
MODEL 2
REMARK VINA RESULT:      -8.8      3.771      6.539
REMARK  7 active torsions:
REMARK  status: ('A' for Active; 'I' for Inactive)
REMARK    1  A    between atoms: C_2  and  C_3 
REMARK    2  A    between atoms: C_6  and  C_7 
REMARK       I    between atoms: C_7  and  N_8 
REMARK    3  A    between atoms: C_14  and  C_15 
REMARK       I    between atoms: C_15  and  N_16 
REMARK    4  A    between atoms: N_16  and  C_17 
REMARK    5  A    between atoms: C_17  and  C_18 
REMARK       I    between atoms: N_25  and  C_26 
REMARK    6  A    between atoms: C_26  and  C_27 
REMARK    7  A    between atoms: C_30  and  O_31 
ROOT
HETATM    1  C   UNL     1      41.356  -9.684   7.293  1.00  0.00     0.253 C 
HETATM    2  N   UNL     1      40.863 -10.492   6.255  1.00  0.00    -0.348 N 
HETATM    3  C   UNL     1      40.237 -11.788   6.495  1.00  0.00     0.131 C 
HETATM    4  C   UNL     1      39.325 -12.230   5.371  1.00  0.00     0.081 C 
HETATM    5  C   UNL     1      39.935 -12.120   3.967  1.00  0.00     0.142 C 
HETATM    6  O   UNL     1      38.762 -12.095   3.099  1.00  0.00    -0.358 OA
HETATM    7  C   UNL     1      38.844 -13.162   2.158  1.00  0.00     0.206 C 
HETATM    8  C   UNL     1      39.816 -14.165   2.740  1.00  0.00     0.206 C 
HETATM    9  N   UNL     1      40.692 -13.307   3.530  1.00  0.00    -0.300 N 
HETATM   10  C   UNL     1      41.852 -13.712   4.172  1.00  0.00     0.257 C 
HETATM   11  O   UNL     1      42.484 -13.011   4.955  1.00  0.00    -0.267 OA
HETATM   12  C   UNL     1      40.621 -10.765   3.764  1.00  0.00     0.081 C 
HETATM   13  C   UNL     1      41.453 -10.264   4.938  1.00  0.00     0.131 C 
HETATM   14  O   UNL     1      41.899  -8.596   7.108  1.00  0.00    -0.267 OA
ENDROOT
BRANCH   8  15
HETATM   15  C   UNL     1      40.311 -14.999   1.557  1.00  0.00     0.243 C 
HETATM   16  N   UNL     1      40.758 -14.326   0.454  1.00  0.00    -0.354 N 
HETATM   17  H   UNL     1      40.876 -13.317   0.450  1.00  0.00     0.162 HD
HETATM   18  O   UNL     1      40.174 -16.224   1.564  1.00  0.00    -0.271 OA
BRANCH  16  19
HETATM   19  C   UNL     1      41.222 -15.042  -0.717  1.00  0.00     0.181 C 
BRANCH  19  20
HETATM   20  C   UNL     1      40.215 -15.038  -1.845  1.00  0.00     0.051 A 
HETATM   21  N   UNL     1      39.129 -14.226  -1.733  1.00  0.00    -0.264 NA
HETATM   22  C   UNL     1      38.238 -14.251  -2.749  1.00  0.00     0.117 A 
HETATM   23  C   UNL     1      38.367 -15.052  -3.872  1.00  0.00     0.019 A 
HETATM   24  C   UNL     1      39.474 -15.886  -3.964  1.00  0.00     0.003 A 
HETATM   25  C   UNL     1      40.411 -15.884  -2.935  1.00  0.00     0.029 A 
ENDBRANCH  19  20
ENDBRANCH  16  19
ENDBRANCH   8  15
BRANCH  10  26
HETATM   26  C   UNL     1      42.456 -15.026   3.884  1.00  0.00     0.032 A 
HETATM   27  C   UNL     1      42.031 -16.114   4.649  1.00  0.00     0.020 A 
HETATM   28  C   UNL     1      42.530 -17.388   4.385  1.00  0.00     0.038 A 
HETATM   29  C   UNL     1      43.433 -17.591   3.340  1.00  0.00     0.068 A 
HETATM   30  C   UNL     1      43.837 -16.503   2.560  1.00  0.00     0.038 A 
HETATM   31  C   UNL     1      43.341 -15.220   2.821  1.00  0.00     0.020 A 
BRANCH  29  32
HETATM   32  O   UNL     1      43.832 -18.889   3.184  1.00  0.00    -0.356 OA
HETATM   33  C   UNL     1      43.293 -19.599   2.077  1.00  0.00     0.210 C 
ENDBRANCH  29  32
ENDBRANCH  10  26
BRANCH   1  34
HETATM   34  C   UNL     1      41.232 -10.144   8.697  1.00  0.00     0.032 A 
HETATM   35  C   UNL     1      42.346 -10.629   9.388  1.00  0.00     0.017 A 
HETATM   36  C   UNL     1      42.216 -11.046  10.714  1.00  0.00     0.008 A 
HETATM   37  C   UNL     1      40.982 -10.944  11.374  1.00  0.00    -0.059 A 
HETATM   38  C   UNL     1      39.881 -10.417  10.682  1.00  0.00     0.008 A 
HETATM   39  C   UNL     1      40.005 -10.014   9.350  1.00  0.00     0.017 A 
BRANCH  37  40
HETATM   40  C   UNL     1      40.847 -11.383  12.811  1.00  0.00     0.034 C 
HETATM   41  C   UNL     1      41.804 -10.647  13.738  1.00  0.00     0.010 C 
ENDBRANCH  37  40
ENDBRANCH   1  34
TORSDOF 7
ENDMDL
MODEL 3
REMARK VINA RESULT:      -8.7      1.591      2.783
REMARK  7 active torsions:
REMARK  status: ('A' for Active; 'I' for Inactive)
REMARK    1  A    between atoms: C_2  and  C_3 
REMARK    2  A    between atoms: C_6  and  C_7 
REMARK       I    between atoms: C_7  and  N_8 
REMARK    3  A    between atoms: C_14  and  C_15 
REMARK       I    between atoms: C_15  and  N_16 
REMARK    4  A    between atoms: N_16  and  C_17 
REMARK    5  A    between atoms: C_17  and  C_18 
REMARK       I    between atoms: N_25  and  C_26 
REMARK    6  A    between atoms: C_26  and  C_27 
REMARK    7  A    between atoms: C_30  and  O_31 
ROOT
HETATM    1  C   UNL     1      43.889 -15.586   6.602  1.00  0.00     0.253 C 
HETATM    2  N   UNL     1      42.836 -14.935   5.938  1.00  0.00    -0.348 N 
HETATM    3  C   UNL     1      41.805 -15.657   5.200  1.00  0.00     0.131 C 
HETATM    4  C   UNL     1      40.524 -14.867   5.033  1.00  0.00     0.081 C 
HETATM    5  C   UNL     1      40.716 -13.431   4.526  1.00  0.00     0.142 C 
HETATM    6  O   UNL     1      39.481 -12.770   4.936  1.00  0.00    -0.358 OA
HETATM    7  C   UNL     1      38.838 -12.214   3.793  1.00  0.00     0.206 C 
HETATM    8  C   UNL     1      39.402 -12.944   2.594  1.00  0.00     0.206 C 
HETATM    9  N   UNL     1      40.739 -13.294   3.060  1.00  0.00    -0.300 N 
HETATM   10  C   UNL     1      41.738 -13.864   2.287  1.00  0.00     0.257 C 
HETATM   11  O   UNL     1      42.796 -14.290   2.737  1.00  0.00    -0.267 OA
HETATM   12  C   UNL     1      41.834 -12.717   5.293  1.00  0.00     0.081 C 
HETATM   13  C   UNL     1      43.085 -13.546   5.560  1.00  0.00     0.131 C 
HETATM   14  O   UNL     1      44.775 -14.992   7.216  1.00  0.00    -0.267 OA
ENDROOT
BRANCH   8  15
HETATM   15  C   UNL     1      39.148 -12.031   1.393  1.00  0.00     0.243 C 
HETATM   16  N   UNL     1      38.482 -12.565   0.325  1.00  0.00    -0.354 N 
HETATM   17  H   UNL     1      38.063 -13.490   0.358  1.00  0.00     0.162 HD
HETATM   18  O   UNL     1      39.651 -10.906   1.354  1.00  0.00    -0.271 OA
BRANCH  16  19
HETATM   19  C   UNL     1      38.222 -11.773  -0.861  1.00  0.00     0.181 C 
BRANCH  19  20
HETATM   20  C   UNL     1      37.769 -12.608  -2.037  1.00  0.00     0.051 A 
HETATM   21  N   UNL     1      37.115 -11.983  -3.054  1.00  0.00    -0.264 NA
HETATM   22  C   UNL     1      36.709 -12.755  -4.087  1.00  0.00     0.117 A 
HETATM   23  C   UNL     1      36.913 -14.124  -4.157  1.00  0.00     0.019 A 
HETATM   24  C   UNL     1      37.569 -14.748  -3.104  1.00  0.00     0.003 A 
HETATM   25  C   UNL     1      38.001 -13.983  -2.025  1.00  0.00     0.029 A 
ENDBRANCH  19  20
ENDBRANCH  16  19
ENDBRANCH   8  15
BRANCH  10  26
HETATM   26  C   UNL     1      41.615 -13.927   0.818  1.00  0.00     0.032 A 
HETATM   27  C   UNL     1      42.088 -12.838   0.083  1.00  0.00     0.020 A 
HETATM   28  C   UNL     1      42.044 -12.867  -1.310  1.00  0.00     0.038 A 
HETATM   29  C   UNL     1      41.555 -13.990  -1.978  1.00  0.00     0.068 A 
HETATM   30  C   UNL     1      41.105 -15.089  -1.239  1.00  0.00     0.038 A 
HETATM   31  C   UNL     1      41.145 -15.066   0.160  1.00  0.00     0.020 A 
BRANCH  29  32
HETATM   32  O   UNL     1      41.579 -13.890  -3.341  1.00  0.00    -0.356 OA
HETATM   33  C   UNL     1      41.253 -12.623  -3.898  1.00  0.00     0.210 C 
ENDBRANCH  29  32
ENDBRANCH  10  26
BRANCH   1  34
HETATM   34  C   UNL     1      43.965 -17.066   6.574  1.00  0.00     0.032 A 
HETATM   35  C   UNL     1      43.571 -17.820   7.683  1.00  0.00     0.017 A 
HETATM   36  C   UNL     1      43.635 -19.214   7.634  1.00  0.00     0.008 A 
HETATM   37  C   UNL     1      44.054 -19.867   6.465  1.00  0.00    -0.059 A 
HETATM   38  C   UNL     1      44.407 -19.100   5.345  1.00  0.00     0.008 A 
HETATM   39  C   UNL     1      44.359 -17.704   5.396  1.00  0.00     0.017 A 
BRANCH  37  40
HETATM   40  C   UNL     1      44.109 -21.374   6.411  1.00  0.00     0.034 C 
HETATM   41  C   UNL     1      44.830 -21.887   5.172  1.00  0.00     0.010 C 
ENDBRANCH  37  40
ENDBRANCH   1  34
TORSDOF 7
ENDMDL
MODEL 4
REMARK VINA RESULT:      -8.4      1.886      2.734
REMARK  7 active torsions:
REMARK  status: ('A' for Active; 'I' for Inactive)
REMARK    1  A    between atoms: C_2  and  C_3 
REMARK    2  A    between atoms: C_6  and  C_7 
REMARK       I    between atoms: C_7  and  N_8 
REMARK    3  A    between atoms: C_14  and  C_15 
REMARK       I    between atoms: C_15  and  N_16 
REMARK    4  A    between atoms: N_16  and  C_17 
REMARK    5  A    between atoms: C_17  and  C_18 
REMARK       I    between atoms: N_25  and  C_26 
REMARK    6  A    between atoms: C_26  and  C_27 
REMARK    7  A    between atoms: C_30  and  O_31 
ROOT
HETATM    1  C   UNL     1      43.918 -15.786   6.344  1.00  0.00     0.253 C 
HETATM    2  N   UNL     1      42.882 -15.106   5.680  1.00  0.00    -0.348 N 
HETATM    3  C   UNL     1      41.823 -15.801   4.955  1.00  0.00     0.131 C 
HETATM    4  C   UNL     1      40.568 -14.971   4.788  1.00  0.00     0.081 C 
HETATM    5  C   UNL     1      40.805 -13.547   4.267  1.00  0.00     0.142 C 
HETATM    6  O   UNL     1      39.594 -12.841   4.679  1.00  0.00    -0.358 OA
HETATM    7  C   UNL     1      38.963 -12.274   3.534  1.00  0.00     0.206 C 
HETATM    8  C   UNL     1      39.494 -13.034   2.338  1.00  0.00     0.206 C 
HETATM    9  N   UNL     1      40.822 -13.423   2.799  1.00  0.00    -0.300 N 
HETATM   10  C   UNL     1      41.797 -14.034   2.025  1.00  0.00     0.257 C 
HETATM   11  O   UNL     1      42.843 -14.491   2.473  1.00  0.00    -0.267 OA
HETATM   12  C   UNL     1      41.950 -12.862   5.020  1.00  0.00     0.081 C 
HETATM   13  C   UNL     1      43.175 -13.730   5.287  1.00  0.00     0.131 C 
HETATM   14  O   UNL     1      44.826 -15.216   6.946  1.00  0.00    -0.267 OA
ENDROOT
BRANCH   8  15
HETATM   15  C   UNL     1      39.263 -12.124   1.131  1.00  0.00     0.243 C 
HETATM   16  N   UNL     1      38.460 -12.598   0.129  1.00  0.00    -0.354 N 
HETATM   17  H   UNL     1      37.938 -13.464   0.221  1.00  0.00     0.162 HD
HETATM   18  O   UNL     1      39.892 -11.070   1.021  1.00  0.00    -0.271 OA
BRANCH  16  19
HETATM   19  C   UNL     1      38.210 -11.807  -1.059  1.00  0.00     0.181 C 
BRANCH  19  20
HETATM   20  C   UNL     1      36.765 -11.383  -1.189  1.00  0.00     0.051 A 
HETATM   21  N   UNL     1      36.293 -11.080  -2.429  1.00  0.00    -0.264 NA
HETATM   22  C   UNL     1      35.001 -10.692  -2.515  1.00  0.00     0.117 A 
HETATM   23  C   UNL     1      34.152 -10.579  -1.426  1.00  0.00     0.019 A 
HETATM   24  C   UNL     1      34.654 -10.878  -0.165  1.00  0.00     0.003 A 
HETATM   25  C   UNL     1      35.980 -11.282  -0.041  1.00  0.00     0.029 A 
ENDBRANCH  19  20
ENDBRANCH  16  19
ENDBRANCH   8  15
BRANCH  10  26
HETATM   26  C   UNL     1      41.662 -14.107   0.558  1.00  0.00     0.032 A 
HETATM   27  C   UNL     1      40.977 -15.202   0.026  1.00  0.00     0.020 A 
HETATM   28  C   UNL     1      40.775 -15.294  -1.350  1.00  0.00     0.038 A 
HETATM   29  C   UNL     1      41.229 -14.284  -2.200  1.00  0.00     0.068 A 
HETATM   30  C   UNL     1      41.892 -13.177  -1.661  1.00  0.00     0.038 A 
HETATM   31  C   UNL     1      42.099 -13.079  -0.279  1.00  0.00     0.020 A 
BRANCH  29  32
HETATM   32  O   UNL     1      40.955 -14.495  -3.522  1.00  0.00    -0.356 OA
HETATM   33  C   UNL     1      39.819 -15.295  -3.824  1.00  0.00     0.210 C 
ENDBRANCH  29  32
ENDBRANCH  10  26
BRANCH   1  34
HETATM   34  C   UNL     1      43.945 -17.268   6.328  1.00  0.00     0.032 A 
HETATM   35  C   UNL     1      44.378 -17.960   5.194  1.00  0.00     0.017 A 
HETATM   36  C   UNL     1      44.411 -19.355   5.200  1.00  0.00     0.008 A 
HETATM   37  C   UNL     1      44.051 -20.070   6.353  1.00  0.00    -0.059 A 
HETATM   38  C   UNL     1      43.658 -19.363   7.498  1.00  0.00     0.008 A 
HETATM   39  C   UNL     1      43.608 -17.966   7.489  1.00  0.00     0.017 A 
BRANCH  37  40
HETATM   40  C   UNL     1      44.100 -21.579   6.362  1.00  0.00     0.034 C 
HETATM   41  C   UNL     1      44.906 -22.142   5.201  1.00  0.00     0.010 C 
ENDBRANCH  37  40
ENDBRANCH   1  34
TORSDOF 7
ENDMDL
MODEL 5
REMARK VINA RESULT:      -8.3      2.967      9.805
REMARK  7 active torsions:
REMARK  status: ('A' for Active; 'I' for Inactive)
REMARK    1  A    between atoms: C_2  and  C_3 
REMARK    2  A    between atoms: C_6  and  C_7 
REMARK       I    between atoms: C_7  and  N_8 
REMARK    3  A    between atoms: C_14  and  C_15 
REMARK       I    between atoms: C_15  and  N_16 
REMARK    4  A    between atoms: N_16  and  C_17 
REMARK    5  A    between atoms: C_17  and  C_18 
REMARK       I    between atoms: N_25  and  C_26 
REMARK    6  A    between atoms: C_26  and  C_27 
REMARK    7  A    between atoms: C_30  and  O_31 
ROOT
HETATM    1  C   UNL     1      38.211 -10.737  -0.341  1.00  0.00     0.253 C 
HETATM    2  N   UNL     1      38.882 -11.961  -0.182  1.00  0.00    -0.348 N 
HETATM    3  C   UNL     1      38.421 -12.999   0.733  1.00  0.00     0.131 C 
HETATM    4  C   UNL     1      38.927 -14.381   0.376  1.00  0.00     0.081 C 
HETATM    5  C   UNL     1      40.435 -14.461   0.104  1.00  0.00     0.142 C 
HETATM    6  O   UNL     1      40.563 -15.685  -0.682  1.00  0.00    -0.358 OA
HETATM    7  C   UNL     1      41.465 -16.576  -0.030  1.00  0.00     0.206 C 
HETATM    8  C   UNL     1      41.528 -16.131   1.414  1.00  0.00     0.206 C 
HETATM    9  N   UNL     1      41.265 -14.701   1.298  1.00  0.00    -0.300 N 
HETATM   10  C   UNL     1      41.344 -13.780   2.331  1.00  0.00     0.257 C 
HETATM   11  O   UNL     1      40.968 -12.616   2.243  1.00  0.00    -0.267 OA
HETATM   12  C   UNL     1      40.893 -13.332  -0.826  1.00  0.00     0.081 C 
HETATM   13  C   UNL     1      40.299 -11.959  -0.537  1.00  0.00     0.131 C 
HETATM   14  O   UNL     1      38.594  -9.845  -1.096  1.00  0.00    -0.267 OA
ENDROOT
BRANCH   8  15
HETATM   15  C   UNL     1      42.838 -16.697   1.966  1.00  0.00     0.243 C 
HETATM   16  N   UNL     1      42.757 -17.539   3.041  1.00  0.00    -0.354 N 
HETATM   17  H   UNL     1      41.867 -17.879   3.394  1.00  0.00     0.162 HD
HETATM   18  O   UNL     1      43.918 -16.290   1.534  1.00  0.00    -0.271 OA
BRANCH  16  19
HETATM   19  C   UNL     1      43.953 -18.099   3.638  1.00  0.00     0.181 C 
BRANCH  19  20
HETATM   20  C   UNL     1      44.105 -19.579   3.372  1.00  0.00     0.051 A 
HETATM   21  N   UNL     1      44.621 -20.360   4.360  1.00  0.00    -0.264 NA
HETATM   22  C   UNL     1      44.757 -21.678   4.091  1.00  0.00     0.117 A 
HETATM   23  C   UNL     1      44.414 -22.261   2.882  1.00  0.00     0.019 A 
HETATM   24  C   UNL     1      43.903 -21.447   1.879  1.00  0.00     0.003 A 
HETATM   25  C   UNL     1      43.748 -20.086   2.123  1.00  0.00     0.029 A 
ENDBRANCH  19  20
ENDBRANCH  16  19
ENDBRANCH   8  15
BRANCH  10  26
HETATM   26  C   UNL     1      41.974 -14.138   3.615  1.00  0.00     0.032 A 
HETATM   27  C   UNL     1      43.315 -13.791   3.796  1.00  0.00     0.020 A 
HETATM   28  C   UNL     1      43.945 -14.058   5.010  1.00  0.00     0.038 A 
HETATM   29  C   UNL     1      43.238 -14.646   6.059  1.00  0.00     0.068 A 
HETATM   30  C   UNL     1      41.889 -14.970   5.883  1.00  0.00     0.038 A 
HETATM   31  C   UNL     1      41.250 -14.705   4.665  1.00  0.00     0.020 A 
BRANCH  29  32
HETATM   32  O   UNL     1      43.973 -14.842   7.195  1.00  0.00    -0.356 OA
HETATM   33  C   UNL     1      44.662 -13.713   7.717  1.00  0.00     0.210 C 
ENDBRANCH  29  32
ENDBRANCH  10  26
BRANCH   1  34
HETATM   34  C   UNL     1      36.975 -10.478   0.436  1.00  0.00     0.032 A 
HETATM   35  C   UNL     1      37.018  -9.720   1.610  1.00  0.00     0.017 A 
HETATM   36  C   UNL     1      35.843  -9.472   2.322  1.00  0.00     0.008 A 
HETATM   37  C   UNL     1      34.610  -9.945   1.847  1.00  0.00    -0.059 A 
HETATM   38  C   UNL     1      34.575 -10.669   0.646  1.00  0.00     0.008 A 
HETATM   39  C   UNL     1      35.752 -10.932  -0.061  1.00  0.00     0.017 A 
BRANCH  37  40
HETATM   40  C   UNL     1      33.339  -9.665   2.611  1.00  0.00     0.034 C 
HETATM   41  C   UNL     1      32.362 -10.831   2.564  1.00  0.00     0.010 C 
ENDBRANCH  37  40
ENDBRANCH   1  34
TORSDOF 7
ENDMDL
MODEL 6
REMARK VINA RESULT:      -8.0      2.955      4.204
REMARK  7 active torsions:
REMARK  status: ('A' for Active; 'I' for Inactive)
REMARK    1  A    between atoms: C_2  and  C_3 
REMARK    2  A    between atoms: C_6  and  C_7 
REMARK       I    between atoms: C_7  and  N_8 
REMARK    3  A    between atoms: C_14  and  C_15 
REMARK       I    between atoms: C_15  and  N_16 
REMARK    4  A    between atoms: N_16  and  C_17 
REMARK    5  A    between atoms: C_17  and  C_18 
REMARK       I    between atoms: N_25  and  C_26 
REMARK    6  A    between atoms: C_26  and  C_27 
REMARK    7  A    between atoms: C_30  and  O_31 
ROOT
HETATM    1  C   UNL     1      42.384 -16.225   4.332  1.00  0.00     0.253 C 
HETATM    2  N   UNL     1      41.404 -15.678   3.487  1.00  0.00    -0.348 N 
HETATM    3  C   UNL     1      41.025 -16.293   2.220  1.00  0.00     0.131 C 
HETATM    4  C   UNL     1      39.644 -15.888   1.746  1.00  0.00     0.081 C 
HETATM    5  C   UNL     1      39.374 -14.378   1.774  1.00  0.00     0.142 C 
HETATM    6  O   UNL     1      37.915 -14.306   1.786  1.00  0.00    -0.358 OA
HETATM    7  C   UNL     1      37.469 -13.535   0.674  1.00  0.00     0.206 C 
HETATM    8  C   UNL     1      38.607 -13.533  -0.323  1.00  0.00     0.206 C 
HETATM    9  N   UNL     1      39.769 -13.659   0.551  1.00  0.00    -0.300 N 
HETATM   10  C   UNL     1      41.093 -13.570   0.149  1.00  0.00     0.257 C 
HETATM   11  O   UNL     1      42.048 -13.833   0.871  1.00  0.00    -0.267 OA
HETATM   12  C   UNL     1      39.822 -13.757   3.102  1.00  0.00     0.081 C 
HETATM   13  C   UNL     1      41.163 -14.245   3.638  1.00  0.00     0.131 C 
HETATM   14  O   UNL     1      42.726 -15.712   5.397  1.00  0.00    -0.267 OA
ENDROOT
BRANCH   8  15
HETATM   15  C   UNL     1      38.368 -12.321  -1.225  1.00  0.00     0.243 C 
HETATM   16  N   UNL     1      38.223 -12.551  -2.565  1.00  0.00    -0.354 N 
HETATM   17  H   UNL     1      38.155 -13.490  -2.947  1.00  0.00     0.162 HD
HETATM   18  O   UNL     1      38.445 -11.181  -0.762  1.00  0.00    -0.271 OA
BRANCH  16  19
HETATM   19  C   UNL     1      38.017 -11.455  -3.490  1.00  0.00     0.181 C 
BRANCH  19  20
HETATM   20  C   UNL     1      36.872 -11.700  -4.446  1.00  0.00     0.051 A 
HETATM   21  N   UNL     1      36.526 -10.701  -5.303  1.00  0.00    -0.264 NA
HETATM   22  C   UNL     1      35.491 -10.942  -6.138  1.00  0.00     0.117 A 
HETATM   23  C   UNL     1      34.772 -12.126  -6.159  1.00  0.00     0.019 A 
HETATM   24  C   UNL     1      35.128 -13.130  -5.267  1.00  0.00     0.003 A 
HETATM   25  C   UNL     1      36.191 -12.915  -4.394  1.00  0.00     0.029 A 
ENDBRANCH  19  20
ENDBRANCH  16  19
ENDBRANCH   8  15
BRANCH  10  26
HETATM   26  C   UNL     1      41.444 -13.065  -1.191  1.00  0.00     0.032 A 
HETATM   27  C   UNL     1      41.832 -11.727  -1.297  1.00  0.00     0.020 A 
HETATM   28  C   UNL     1      42.224 -11.213  -2.531  1.00  0.00     0.038 A 
HETATM   29  C   UNL     1      42.259 -12.032  -3.660  1.00  0.00     0.068 A 
HETATM   30  C   UNL     1      41.893 -13.377  -3.546  1.00  0.00     0.038 A 
HETATM   31  C   UNL     1      41.497 -13.901  -2.309  1.00  0.00     0.020 A 
BRANCH  29  32
HETATM   32  O   UNL     1      42.672 -11.403  -4.801  1.00  0.00    -0.356 OA
HETATM   33  C   UNL     1      42.381 -10.015  -4.912  1.00  0.00     0.210 C 
ENDBRANCH  29  32
ENDBRANCH  10  26
BRANCH   1  34
HETATM   34  C   UNL     1      43.063 -17.484   3.942  1.00  0.00     0.032 A 
HETATM   35  C   UNL     1      43.308 -18.483   4.889  1.00  0.00     0.017 A 
HETATM   36  C   UNL     1      43.935 -19.669   4.503  1.00  0.00     0.008 A 
HETATM   37  C   UNL     1      44.285 -19.884   3.161  1.00  0.00    -0.059 A 
HETATM   38  C   UNL     1      43.995 -18.892   2.213  1.00  0.00     0.008 A 
HETATM   39  C   UNL     1      43.382 -17.697   2.600  1.00  0.00     0.017 A 
BRANCH  37  40
HETATM   40  C   UNL     1      44.950 -21.173   2.743  1.00  0.00     0.034 C 
HETATM   41  C   UNL     1      44.206 -21.874   1.616  1.00  0.00     0.010 C 
ENDBRANCH  37  40
ENDBRANCH   1  34
TORSDOF 7
ENDMDL
MODEL 7
REMARK VINA RESULT:      -7.8      2.508      3.888
REMARK  7 active torsions:
REMARK  status: ('A' for Active; 'I' for Inactive)
REMARK    1  A    between atoms: C_2  and  C_3 
REMARK    2  A    between atoms: C_6  and  C_7 
REMARK       I    between atoms: C_7  and  N_8 
REMARK    3  A    between atoms: C_14  and  C_15 
REMARK       I    between atoms: C_15  and  N_16 
REMARK    4  A    between atoms: N_16  and  C_17 
REMARK    5  A    between atoms: C_17  and  C_18 
REMARK       I    between atoms: N_25  and  C_26 
REMARK    6  A    between atoms: C_26  and  C_27 
REMARK    7  A    between atoms: C_30  and  O_31 
ROOT
HETATM    1  C   UNL     1      44.310 -17.107   5.715  1.00  0.00     0.253 C 
HETATM    2  N   UNL     1      43.209 -16.248   5.556  1.00  0.00    -0.348 N 
HETATM    3  C   UNL     1      42.062 -16.585   4.720  1.00  0.00     0.131 C 
HETATM    4  C   UNL     1      40.805 -15.827   5.094  1.00  0.00     0.081 C 
HETATM    5  C   UNL     1      40.994 -14.312   5.255  1.00  0.00     0.142 C 
HETATM    6  O   UNL     1      39.851 -13.925   6.077  1.00  0.00    -0.358 OA
HETATM    7  C   UNL     1      39.092 -12.930   5.396  1.00  0.00     0.206 C 
HETATM    8  C   UNL     1      39.464 -13.041   3.934  1.00  0.00     0.206 C 
HETATM    9  N   UNL     1      40.834 -13.537   4.012  1.00  0.00    -0.300 N 
HETATM   10  C   UNL     1      41.700 -13.686   2.940  1.00  0.00     0.257 C 
HETATM   11  O   UNL     1      42.787 -14.249   3.008  1.00  0.00    -0.267 OA
HETATM   12  C   UNL     1      42.231 -13.993   6.100  1.00  0.00     0.081 C 
HETATM   13  C   UNL     1      43.468 -14.831   5.802  1.00  0.00     0.131 C 
HETATM   14  O   UNL     1      45.292 -16.832   6.403  1.00  0.00    -0.267 OA
ENDROOT
BRANCH   8  15
HETATM   15  C   UNL     1      39.098 -11.694   3.308  1.00  0.00     0.243 C 
HETATM   16  N   UNL     1      38.191 -11.701   2.284  1.00  0.00    -0.354 N 
HETATM   17  H   UNL     1      37.683 -12.540   2.019  1.00  0.00     0.162 HD
HETATM   18  O   UNL     1      39.709 -10.674   3.633  1.00  0.00    -0.271 OA
BRANCH  16  19
HETATM   19  C   UNL     1      37.808 -10.469   1.622  1.00  0.00     0.181 C 
BRANCH  19  20
HETATM   20  C   UNL     1      36.310 -10.306   1.506  1.00  0.00     0.051 A 
HETATM   21  N   UNL     1      35.691  -9.440   2.352  1.00  0.00    -0.264 NA
HETATM   22  C   UNL     1      34.349  -9.322   2.236  1.00  0.00     0.117 A 
HETATM   23  C   UNL     1      33.586 -10.032   1.322  1.00  0.00     0.019 A 
HETATM   24  C   UNL     1      34.232 -10.923   0.476  1.00  0.00     0.003 A 
HETATM   25  C   UNL     1      35.613 -11.068   0.569  1.00  0.00     0.029 A 
ENDBRANCH  19  20
ENDBRANCH  16  19
ENDBRANCH   8  15
BRANCH  10  26
HETATM   26  C   UNL     1      41.386 -13.092   1.627  1.00  0.00     0.032 A 
HETATM   27  C   UNL     1      41.956 -11.853   1.325  1.00  0.00     0.020 A 
HETATM   28  C   UNL     1      41.735 -11.270   0.079  1.00  0.00     0.038 A 
HETATM   29  C   UNL     1      40.969 -11.930  -0.884  1.00  0.00     0.068 A 
HETATM   30  C   UNL     1      40.421 -13.182  -0.588  1.00  0.00     0.038 A 
HETATM   31  C   UNL     1      40.638 -13.772   0.664  1.00  0.00     0.020 A 
BRANCH  29  32
HETATM   32  O   UNL     1      40.842 -11.252  -2.064  1.00  0.00    -0.356 OA
HETATM   33  C   UNL     1      40.377 -11.993  -3.184  1.00  0.00     0.210 C 
ENDBRANCH  29  32
ENDBRANCH  10  26
BRANCH   1  34
HETATM   34  C   UNL     1      44.317 -18.418   5.024  1.00  0.00     0.032 A 
HETATM   35  C   UNL     1      44.168 -18.492   3.636  1.00  0.00     0.017 A 
HETATM   36  C   UNL     1      44.191 -19.734   2.999  1.00  0.00     0.008 A 
HETATM   37  C   UNL     1      44.404 -20.908   3.736  1.00  0.00    -0.059 A 
HETATM   38  C   UNL     1      44.593 -20.817   5.123  1.00  0.00     0.008 A 
HETATM   39  C   UNL     1      44.555 -19.577   5.766  1.00  0.00     0.017 A 
BRANCH  37  40
HETATM   40  C   UNL     1      44.442 -22.249   3.043  1.00  0.00     0.034 C 
HETATM   41  C   UNL     1      44.171 -22.140   1.550  1.00  0.00     0.010 C 
ENDBRANCH  37  40
ENDBRANCH   1  34
TORSDOF 7
ENDMDL
MODEL 8
REMARK VINA RESULT:      -7.7      2.289      3.183
REMARK  7 active torsions:
REMARK  status: ('A' for Active; 'I' for Inactive)
REMARK    1  A    between atoms: C_2  and  C_3 
REMARK    2  A    between atoms: C_6  and  C_7 
REMARK       I    between atoms: C_7  and  N_8 
REMARK    3  A    between atoms: C_14  and  C_15 
REMARK       I    between atoms: C_15  and  N_16 
REMARK    4  A    between atoms: N_16  and  C_17 
REMARK    5  A    between atoms: C_17  and  C_18 
REMARK       I    between atoms: N_25  and  C_26 
REMARK    6  A    between atoms: C_26  and  C_27 
REMARK    7  A    between atoms: C_30  and  O_31 
ROOT
HETATM    1  C   UNL     1      43.217 -15.881   4.469  1.00  0.00     0.253 C 
HETATM    2  N   UNL     1      42.260 -14.956   4.021  1.00  0.00    -0.348 N 
HETATM    3  C   UNL     1      41.392 -15.212   2.877  1.00  0.00     0.131 C 
HETATM    4  C   UNL     1      40.123 -14.385   2.890  1.00  0.00     0.081 C 
HETATM    5  C   UNL     1      40.337 -12.887   3.145  1.00  0.00     0.142 C 
HETATM    6  O   UNL     1      39.026 -12.442   3.609  1.00  0.00    -0.358 OA
HETATM    7  C   UNL     1      38.554 -11.394   2.766  1.00  0.00     0.206 C 
HETATM    8  C   UNL     1      39.333 -11.508   1.474  1.00  0.00     0.206 C 
HETATM    9  N   UNL     1      40.591 -12.086   1.934  1.00  0.00    -0.300 N 
HETATM   10  C   UNL     1      41.724 -12.273   1.158  1.00  0.00     0.257 C 
HETATM   11  O   UNL     1      42.711 -12.901   1.524  1.00  0.00    -0.267 OA
HETATM   12  C   UNL     1      41.286 -12.653   4.325  1.00  0.00     0.081 C 
HETATM   13  C   UNL     1      42.510 -13.561   4.375  1.00  0.00     0.131 C 
HETATM   14  O   UNL     1      43.967 -15.675   5.422  1.00  0.00    -0.267 OA
ENDROOT
BRANCH   8  15
HETATM   15  C   UNL     1      39.240 -10.133   0.810  1.00  0.00     0.243 C 
HETATM   16  N   UNL     1      38.796 -10.087  -0.483  1.00  0.00    -0.354 N 
HETATM   17  H   UNL     1      38.427 -10.906  -0.956  1.00  0.00     0.162 HD
HETATM   18  O   UNL     1      39.682  -9.137   1.385  1.00  0.00    -0.271 OA
BRANCH  16  19
HETATM   19  C   UNL     1      38.701  -8.826  -1.192  1.00  0.00     0.181 C 
BRANCH  19  20
HETATM   20  C   UNL     1      38.826  -8.984  -2.690  1.00  0.00     0.051 A 
HETATM   21  N   UNL     1      38.412 -10.153  -3.250  1.00  0.00    -0.264 NA
HETATM   22  C   UNL     1      38.547 -10.272  -4.589  1.00  0.00     0.117 A 
HETATM   23  C   UNL     1      39.083  -9.288  -5.404  1.00  0.00     0.019 A 
HETATM   24  C   UNL     1      39.514  -8.107  -4.815  1.00  0.00     0.003 A 
HETATM   25  C   UNL     1      39.389  -7.951  -3.438  1.00  0.00     0.029 A 
ENDBRANCH  19  20
ENDBRANCH  16  19
ENDBRANCH   8  15
BRANCH  10  26
HETATM   26  C   UNL     1      41.842 -11.644  -0.171  1.00  0.00     0.032 A 
HETATM   27  C   UNL     1      42.504 -10.416  -0.248  1.00  0.00     0.020 A 
HETATM   28  C   UNL     1      42.690  -9.802  -1.485  1.00  0.00     0.038 A 
HETATM   29  C   UNL     1      42.243 -10.419  -2.655  1.00  0.00     0.068 A 
HETATM   30  C   UNL     1      41.602 -11.660  -2.576  1.00  0.00     0.038 A 
HETATM   31  C   UNL     1      41.411 -12.281  -1.336  1.00  0.00     0.020 A 
BRANCH  29  32
HETATM   32  O   UNL     1      42.499  -9.714  -3.797  1.00  0.00    -0.356 OA
HETATM   33  C   UNL     1      42.471 -10.439  -5.020  1.00  0.00     0.210 C 
ENDBRANCH  29  32
ENDBRANCH  10  26
BRANCH   1  34
HETATM   34  C   UNL     1      43.357 -17.181   3.770  1.00  0.00     0.032 A 
HETATM   35  C   UNL     1      43.831 -17.236   2.456  1.00  0.00     0.017 A 
HETATM   36  C   UNL     1      43.971 -18.470   1.818  1.00  0.00     0.008 A 
HETATM   37  C   UNL     1      43.676 -19.661   2.498  1.00  0.00    -0.059 A 
HETATM   38  C   UNL     1      43.240 -19.595   3.830  1.00  0.00     0.008 A 
HETATM   39  C   UNL     1      43.085 -18.360   4.467  1.00  0.00     0.017 A 
BRANCH  37  40
HETATM   40  C   UNL     1      43.840 -20.994   1.810  1.00  0.00     0.034 C 
HETATM   41  C   UNL     1      44.346 -22.077   2.751  1.00  0.00     0.010 C 
ENDBRANCH  37  40
ENDBRANCH   1  34
TORSDOF 7
ENDMDL
MODEL 9
REMARK VINA RESULT:      -7.6      2.608      3.339
REMARK  7 active torsions:
REMARK  status: ('A' for Active; 'I' for Inactive)
REMARK    1  A    between atoms: C_2  and  C_3 
REMARK    2  A    between atoms: C_6  and  C_7 
REMARK       I    between atoms: C_7  and  N_8 
REMARK    3  A    between atoms: C_14  and  C_15 
REMARK       I    between atoms: C_15  and  N_16 
REMARK    4  A    between atoms: N_16  and  C_17 
REMARK    5  A    between atoms: C_17  and  C_18 
REMARK       I    between atoms: N_25  and  C_26 
REMARK    6  A    between atoms: C_26  and  C_27 
REMARK    7  A    between atoms: C_30  and  O_31 
ROOT
HETATM    1  C   UNL     1      43.135 -16.007   4.750  1.00  0.00     0.253 C 
HETATM    2  N   UNL     1      42.179 -15.251   4.051  1.00  0.00    -0.348 N 
HETATM    3  C   UNL     1      41.503 -15.747   2.857  1.00  0.00     0.131 C 
HETATM    4  C   UNL     1      40.183 -15.056   2.585  1.00  0.00     0.081 C 
HETATM    5  C   UNL     1      40.239 -13.523   2.639  1.00  0.00     0.142 C 
HETATM    6  O   UNL     1      38.844 -13.152   2.861  1.00  0.00    -0.358 OA
HETATM    7  C   UNL     1      38.413 -12.281   1.818  1.00  0.00     0.206 C 
HETATM    8  C   UNL     1      39.372 -12.493   0.668  1.00  0.00     0.206 C 
HETATM    9  N   UNL     1      40.595 -12.874   1.365  1.00  0.00    -0.300 N 
HETATM   10  C   UNL     1      41.837 -13.052   0.776  1.00  0.00     0.257 C 
HETATM   11  O   UNL     1      42.810 -13.522   1.354  1.00  0.00    -0.267 OA
HETATM   12  C   UNL     1      40.991 -13.038   3.882  1.00  0.00     0.081 C 
HETATM   13  C   UNL     1      42.264 -13.803   4.223  1.00  0.00     0.131 C 
HETATM   14  O   UNL     1      43.724 -15.599   5.750  1.00  0.00    -0.267 OA
ENDROOT
BRANCH   8  15
HETATM   15  C   UNL     1      39.263 -11.237  -0.200  1.00  0.00     0.243 C 
HETATM   16  N   UNL     1      38.946 -11.409  -1.520  1.00  0.00    -0.354 N 
HETATM   17  H   UNL     1      38.675 -12.313  -1.896  1.00  0.00     0.162 HD
HETATM   18  O   UNL     1      39.586 -10.139   0.257  1.00  0.00    -0.271 OA
BRANCH  16  19
HETATM   19  C   UNL     1      38.847 -10.273  -2.414  1.00  0.00     0.181 C 
BRANCH  19  20
HETATM   20  C   UNL     1      37.657 -10.360  -3.343  1.00  0.00     0.051 A 
HETATM   21  N   UNL     1      36.422 -10.111  -2.830  1.00  0.00    -0.264 NA
HETATM   22  C   UNL     1      35.375 -10.208  -3.679  1.00  0.00     0.117 A 
HETATM   23  C   UNL     1      35.492 -10.549  -5.017  1.00  0.00     0.019 A 
HETATM   24  C   UNL     1      36.758 -10.814  -5.521  1.00  0.00     0.003 A 
HETATM   25  C   UNL     1      37.859 -10.723  -4.674  1.00  0.00     0.029 A 
ENDBRANCH  19  20
ENDBRANCH  16  19
ENDBRANCH   8  15
BRANCH  10  26
HETATM   26  C   UNL     1      42.090 -12.601  -0.605  1.00  0.00     0.032 A 
HETATM   27  C   UNL     1      41.764 -13.480  -1.642  1.00  0.00     0.020 A 
HETATM   28  C   UNL     1      41.933 -13.086  -2.967  1.00  0.00     0.038 A 
HETATM   29  C   UNL     1      42.401 -11.806  -3.270  1.00  0.00     0.068 A 
HETATM   30  C   UNL     1      42.703 -10.920  -2.230  1.00  0.00     0.038 A 
HETATM   31  C   UNL     1      42.536 -11.311  -0.896  1.00  0.00     0.020 A 
BRANCH  29  32
HETATM   32  O   UNL     1      42.509 -11.548  -4.608  1.00  0.00    -0.356 OA
HETATM   33  C   UNL     1      41.659 -10.539  -5.139  1.00  0.00     0.210 C 
ENDBRANCH  29  32
ENDBRANCH  10  26
BRANCH   1  34
HETATM   34  C   UNL     1      43.474 -17.370   4.277  1.00  0.00     0.032 A 
HETATM   35  C   UNL     1      43.723 -17.612   2.922  1.00  0.00     0.017 A 
HETATM   36  C   UNL     1      44.056 -18.898   2.494  1.00  0.00     0.008 A 
HETATM   37  C   UNL     1      44.183 -19.945   3.420  1.00  0.00    -0.059 A 
HETATM   38  C   UNL     1      43.972 -19.681   4.781  1.00  0.00     0.008 A 
HETATM   39  C   UNL     1      43.623 -18.398   5.210  1.00  0.00     0.017 A 
BRANCH  37  40
HETATM   40  C   UNL     1      44.556 -21.332   2.956  1.00  0.00     0.034 C 
HETATM   41  C   UNL     1      44.017 -21.647   1.568  1.00  0.00     0.010 C 
ENDBRANCH  37  40
ENDBRANCH   1  34
TORSDOF 7
ENDMDL
MODEL 10
REMARK VINA RESULT:      -7.5      2.975      5.462
REMARK  7 active torsions:
REMARK  status: ('A' for Active; 'I' for Inactive)
REMARK    1  A    between atoms: C_2  and  C_3 
REMARK    2  A    between atoms: C_6  and  C_7 
REMARK       I    between atoms: C_7  and  N_8 
REMARK    3  A    between atoms: C_14  and  C_15 
REMARK       I    between atoms: C_15  and  N_16 
REMARK    4  A    between atoms: N_16  and  C_17 
REMARK    5  A    between atoms: C_17  and  C_18 
REMARK       I    between atoms: N_25  and  C_26 
REMARK    6  A    between atoms: C_26  and  C_27 
REMARK    7  A    between atoms: C_30  and  O_31 
ROOT
HETATM    1  C   UNL     1      42.096 -17.589   2.243  1.00  0.00     0.253 C 
HETATM    2  N   UNL     1      41.954 -16.420   1.477  1.00  0.00    -0.348 N 
HETATM    3  C   UNL     1      42.058 -15.083   2.053  1.00  0.00     0.131 C 
HETATM    4  C   UNL     1      42.410 -14.018   1.036  1.00  0.00     0.081 C 
HETATM    5  C   UNL     1      41.562 -14.046  -0.242  1.00  0.00     0.142 C 
HETATM    6  O   UNL     1      42.393 -13.327  -1.204  1.00  0.00    -0.358 OA
HETATM    7  C   UNL     1      41.664 -12.218  -1.725  1.00  0.00     0.206 C 
HETATM    8  C   UNL     1      40.556 -11.937  -0.735  1.00  0.00     0.206 C 
HETATM    9  N   UNL     1      40.316 -13.261  -0.172  1.00  0.00    -0.300 N 
HETATM   10  C   UNL     1      39.291 -13.593   0.701  1.00  0.00     0.257 C 
HETATM   11  O   UNL     1      39.204 -14.670   1.279  1.00  0.00    -0.267 OA
HETATM   12  C   UNL     1      41.438 -15.469  -0.796  1.00  0.00     0.081 C 
HETATM   13  C   UNL     1      41.192 -16.560   0.239  1.00  0.00     0.131 C 
HETATM   14  O   UNL     1      41.997 -18.723   1.777  1.00  0.00    -0.267 OA
ENDROOT
BRANCH   8  15
HETATM   15  C   UNL     1      39.494 -11.155  -1.510  1.00  0.00     0.243 C 
HETATM   16  N   UNL     1      38.881 -11.791  -2.554  1.00  0.00    -0.354 N 
HETATM   17  H   UNL     1      39.026 -12.778  -2.745  1.00  0.00     0.162 HD
HETATM   18  O   UNL     1      39.313  -9.959  -1.276  1.00  0.00    -0.271 OA
BRANCH  16  19
HETATM   19  C   UNL     1      37.880 -11.112  -3.354  1.00  0.00     0.181 C 
BRANCH  19  20
HETATM   20  C   UNL     1      36.866 -12.059  -3.953  1.00  0.00     0.051 A 
HETATM   21  N   UNL     1      35.742 -11.529  -4.509  1.00  0.00    -0.264 NA
HETATM   22  C   UNL     1      34.846 -12.398  -5.026  1.00  0.00     0.117 A 
HETATM   23  C   UNL     1      35.004 -13.775  -5.011  1.00  0.00     0.019 A 
HETATM   24  C   UNL     1      36.150 -14.300  -4.426  1.00  0.00     0.003 A 
HETATM   25  C   UNL     1      37.094 -13.433  -3.885  1.00  0.00     0.029 A 
ENDBRANCH  19  20
ENDBRANCH  16  19
ENDBRANCH   8  15
BRANCH  10  26
HETATM   26  C   UNL     1      38.168 -12.666   0.934  1.00  0.00     0.032 A 
HETATM   27  C   UNL     1      38.355 -11.647   1.871  1.00  0.00     0.020 A 
HETATM   28  C   UNL     1      37.346 -10.712   2.093  1.00  0.00     0.038 A 
HETATM   29  C   UNL     1      36.156 -10.770   1.365  1.00  0.00     0.068 A 
HETATM   30  C   UNL     1      35.982 -11.777   0.410  1.00  0.00     0.038 A 
HETATM   31  C   UNL     1      36.992 -12.720   0.183  1.00  0.00     0.020 A 
BRANCH  29  32
HETATM   32  O   UNL     1      35.258  -9.787   1.674  1.00  0.00    -0.356 OA
HETATM   33  C   UNL     1      33.886 -10.157   1.707  1.00  0.00     0.210 C 
ENDBRANCH  29  32
ENDBRANCH  10  26
BRANCH   1  34
HETATM   34  C   UNL     1      42.376 -17.479   3.695  1.00  0.00     0.032 A 
HETATM   35  C   UNL     1      41.338 -17.253   4.605  1.00  0.00     0.017 A 
HETATM   36  C   UNL     1      41.616 -17.167   5.970  1.00  0.00     0.008 A 
HETATM   37  C   UNL     1      42.925 -17.347   6.442  1.00  0.00    -0.059 A 
HETATM   38  C   UNL     1      43.950 -17.614   5.523  1.00  0.00     0.008 A 
HETATM   39  C   UNL     1      43.678 -17.685   4.154  1.00  0.00     0.017 A 
BRANCH  37  40
HETATM   40  C   UNL     1      43.221 -17.266   7.920  1.00  0.00     0.034 C 
HETATM   41  C   UNL     1      44.099 -18.413   8.402  1.00  0.00     0.010 C 
ENDBRANCH  37  40
ENDBRANCH   1  34
TORSDOF 7
ENDMDL
