MODEL 1
REMARK VINA RESULT:      -8.9      0.000      0.000
REMARK  7 active torsions:
REMARK  status: ('A' for Active; 'I' for Inactive)
REMARK    1  A    between atoms: O_2  and  C_3 
REMARK    2  A    between atoms: C_5  and  N_6 
REMARK    3  A    between atoms: C_7  and  C_9 
REMARK    4  A    between atoms: C_7  and  O_8 
REMARK       I    between atoms: C_9  and  N_10 
REMARK    5  A    between atoms: N_10  and  C_11 
REMARK    6  A    between atoms: C_11  and  C_12 
REMARK    7  A    between atoms: C_12  and  C_13 
ROOT
HETATM    1  N   UNL     1      41.854 -14.586   3.881  1.00  0.00    -0.254 N 
HETATM    2  C   UNL     1      41.420 -16.005   3.950  1.00  0.00     0.256 C 
HETATM    3  C   UNL     1      42.278 -16.993   3.188  1.00  0.00     0.034 A 
HETATM    4  C   UNL     1      43.349 -16.537   2.444  1.00  0.00     0.048 A 
HETATM    5  N   UNL     1      43.582 -15.177   2.382  1.00  0.00    -0.308 N 
HETATM    6  C   UNL     1      42.867 -14.205   3.008  1.00  0.00     0.330 C 
HETATM    7  O   UNL     1      43.197 -13.050   2.736  1.00  0.00    -0.246 OA
HETATM    8  C   UNL     1      42.009 -18.375   3.196  1.00  0.00     0.015 A 
HETATM    9  C   UNL     1      42.823 -19.264   2.492  1.00  0.00     0.001 A 
HETATM   10  C   UNL     1      43.909 -18.784   1.767  1.00  0.00     0.002 A 
HETATM   11  C   UNL     1      44.170 -17.415   1.734  1.00  0.00     0.030 A 
HETATM   12  H   UNL     1      44.312 -14.823   1.778  1.00  0.00     0.170 HD
ENDROOT
BRANCH   2  13
HETATM   13  C   UNL     1      41.461 -16.463   5.488  1.00  0.00     0.279 C 
HETATM   14  N   UNL     1      42.721 -16.460   6.068  1.00  0.00    -0.356 N 
HETATM   15  H   UNL     1      43.518 -16.203   5.497  1.00  0.00     0.162 HD
HETATM   16  O   UNL     1      40.462 -16.846   6.099  1.00  0.00    -0.268 OA
BRANCH  14  17
HETATM   17  C   UNL     1      42.947 -16.807   7.457  1.00  0.00     0.127 C 
BRANCH  17  18
HETATM   18  C   UNL     1      44.214 -17.633   7.716  1.00  0.00     0.058 C 
BRANCH  18  19
HETATM   19  C   UNL     1      44.324 -18.901   6.903  1.00  0.00    -0.057 A 
HETATM   20  C   UNL     1      43.703 -20.088   7.318  1.00  0.00     0.009 A 
HETATM   21  C   UNL     1      43.800 -21.246   6.543  1.00  0.00     0.024 A 
HETATM   22  C   UNL     1      44.510 -21.222   5.345  1.00  0.00     0.034 A 
HETATM   23 CL   UNL     1      44.629 -22.649   4.391  1.00  0.00    -0.084 Cl
HETATM   24  C   UNL     1      45.119 -20.049   4.911  1.00  0.00     0.024 A 
HETATM   25  C   UNL     1      45.026 -18.893   5.688  1.00  0.00     0.009 A 
ENDBRANCH  18  19
ENDBRANCH  17  18
ENDBRANCH  14  17
ENDBRANCH   2  13
BRANCH   2  26
HETATM   26  O   UNL     1      40.163 -16.084   3.296  1.00  0.00    -0.359 OA
HETATM   27  H   UNL     1      39.629 -15.376   3.689  1.00  0.00     0.213 HD
ENDBRANCH   2  26
BRANCH   1  28
HETATM   28  C   UNL     1      41.173 -13.592   4.720  1.00  0.00     0.045 A 
HETATM   29  C   UNL     1      41.865 -12.849   5.698  1.00  0.00     0.066 A 
HETATM   30  C   UNL     1      41.230 -11.887   6.496  1.00  0.00     0.070 A 
HETATM   31  C   UNL     1      39.862 -11.677   6.360  1.00  0.00     0.037 A 
HETATM   32  C   UNL     1      39.142 -12.408   5.426  1.00  0.00     0.005 A 
HETATM   33  C   UNL     1      39.789 -13.350   4.618  1.00  0.00     0.030 A 
BRANCH  30  34
HETATM   34  O   UNL     1      41.833 -11.117   7.453  1.00  0.00    -0.356 OA
HETATM   35  C   UNL     1      41.472  -9.740   7.485  1.00  0.00     0.210 C 
ENDBRANCH  30  34
ENDBRANCH   1  28
TORSDOF 7
ENDMDL
MODEL 2
REMARK VINA RESULT:      -8.9      2.507      3.404
REMARK  7 active torsions:
REMARK  status: ('A' for Active; 'I' for Inactive)
REMARK    1  A    between atoms: O_2  and  C_3 
REMARK    2  A    between atoms: C_5  and  N_6 
REMARK    3  A    between atoms: C_7  and  C_9 
REMARK    4  A    between atoms: C_7  and  O_8 
REMARK       I    between atoms: C_9  and  N_10 
REMARK    5  A    between atoms: N_10  and  C_11 
REMARK    6  A    between atoms: C_11  and  C_12 
REMARK    7  A    between atoms: C_12  and  C_13 
ROOT
HETATM    1  N   UNL     1      40.787 -15.271   1.385  1.00  0.00    -0.254 N 
HETATM    2  C   UNL     1      40.865 -16.172   2.564  1.00  0.00     0.256 C 
HETATM    3  C   UNL     1      41.999 -17.175   2.552  1.00  0.00     0.034 A 
HETATM    4  C   UNL     1      42.840 -17.242   1.458  1.00  0.00     0.048 A 
HETATM    5  N   UNL     1      42.594 -16.414   0.381  1.00  0.00    -0.308 N 
HETATM    6  C   UNL     1      41.598 -15.495   0.278  1.00  0.00     0.330 C 
HETATM    7  O   UNL     1      41.511 -14.931  -0.813  1.00  0.00    -0.246 OA
HETATM    8  C   UNL     1      42.218 -18.065   3.620  1.00  0.00     0.015 A 
HETATM    9  C   UNL     1      43.278 -18.973   3.586  1.00  0.00     0.001 A 
HETATM   10  C   UNL     1      44.127 -19.007   2.484  1.00  0.00     0.002 A 
HETATM   11  C   UNL     1      43.903 -18.145   1.411  1.00  0.00     0.030 A 
HETATM   12  H   UNL     1      43.152 -16.507  -0.458  1.00  0.00     0.170 HD
ENDROOT
BRANCH   2  13
HETATM   13  C   UNL     1      41.078 -15.264   3.870  1.00  0.00     0.279 C 
HETATM   14  N   UNL     1      42.364 -14.772   4.040  1.00  0.00    -0.356 N 
HETATM   15  H   UNL     1      43.075 -15.029   3.365  1.00  0.00     0.162 HD
HETATM   16  O   UNL     1      40.188 -15.061   4.698  1.00  0.00    -0.268 OA
BRANCH  14  17
HETATM   17  C   UNL     1      42.734 -13.904   5.140  1.00  0.00     0.127 C 
BRANCH  17  18
HETATM   18  C   UNL     1      43.939 -14.384   5.961  1.00  0.00     0.058 C 
BRANCH  18  19
HETATM   19  C   UNL     1      43.878 -15.831   6.392  1.00  0.00    -0.057 A 
HETATM   20  C   UNL     1      44.978 -16.685   6.230  1.00  0.00     0.009 A 
HETATM   21  C   UNL     1      44.909 -18.016   6.651  1.00  0.00     0.024 A 
HETATM   22  C   UNL     1      43.745 -18.497   7.244  1.00  0.00     0.034 A 
HETATM   23 CL   UNL     1      43.660 -20.136   7.762  1.00  0.00    -0.084 Cl
HETATM   24  C   UNL     1      42.649 -17.658   7.426  1.00  0.00     0.024 A 
HETATM   25  C   UNL     1      42.716 -16.330   7.001  1.00  0.00     0.009 A 
ENDBRANCH  18  19
ENDBRANCH  17  18
ENDBRANCH  14  17
ENDBRANCH   2  13
BRANCH   2  26
HETATM   26  O   UNL     1      39.702 -16.986   2.539  1.00  0.00    -0.359 OA
HETATM   27  H   UNL     1      39.834 -17.636   3.246  1.00  0.00     0.213 HD
ENDBRANCH   2  26
BRANCH   1  28
HETATM   28  C   UNL     1      39.818 -14.168   1.395  1.00  0.00     0.045 A 
HETATM   29  C   UNL     1      40.177 -12.870   1.810  1.00  0.00     0.066 A 
HETATM   30  C   UNL     1      39.265 -11.804   1.810  1.00  0.00     0.070 A 
HETATM   31  C   UNL     1      37.946 -12.030   1.434  1.00  0.00     0.037 A 
HETATM   32  C   UNL     1      37.548 -13.301   1.044  1.00  0.00     0.005 A 
HETATM   33  C   UNL     1      38.472 -14.353   1.024  1.00  0.00     0.030 A 
BRANCH  30  34
HETATM   34  O   UNL     1      39.540 -10.517   2.183  1.00  0.00    -0.356 OA
HETATM   35  C   UNL     1      40.331 -10.348   3.355  1.00  0.00     0.210 C 
ENDBRANCH  30  34
ENDBRANCH   1  28
TORSDOF 7
ENDMDL
MODEL 3
REMARK VINA RESULT:      -8.8      2.092      4.890
REMARK  7 active torsions:
REMARK  status: ('A' for Active; 'I' for Inactive)
REMARK    1  A    between atoms: O_2  and  C_3 
REMARK    2  A    between atoms: C_5  and  N_6 
REMARK    3  A    between atoms: C_7  and  C_9 
REMARK    4  A    between atoms: C_7  and  O_8 
REMARK       I    between atoms: C_9  and  N_10 
REMARK    5  A    between atoms: N_10  and  C_11 
REMARK    6  A    between atoms: C_11  and  C_12 
REMARK    7  A    between atoms: C_12  and  C_13 
ROOT
HETATM    1  N   UNL     1      41.108 -14.092   4.711  1.00  0.00    -0.254 N 
HETATM    2  C   UNL     1      40.710 -14.810   3.474  1.00  0.00     0.256 C 
HETATM    3  C   UNL     1      39.751 -14.073   2.563  1.00  0.00     0.034 A 
HETATM    4  C   UNL     1      39.263 -12.837   2.942  1.00  0.00     0.048 A 
HETATM    5  N   UNL     1      39.635 -12.326   4.169  1.00  0.00    -0.308 N 
HETATM    6  C   UNL     1      40.470 -12.909   5.069  1.00  0.00     0.330 C 
HETATM    7  O   UNL     1      40.588 -12.314   6.142  1.00  0.00    -0.246 OA
HETATM    8  C   UNL     1      39.319 -14.617   1.339  1.00  0.00     0.015 A 
HETATM    9  C   UNL     1      38.442 -13.910   0.514  1.00  0.00     0.001 A 
HETATM   10  C   UNL     1      37.981 -12.656   0.906  1.00  0.00     0.002 A 
HETATM   11  C   UNL     1      38.385 -12.120   2.128  1.00  0.00     0.030 A 
HETATM   12  H   UNL     1      39.224 -11.460   4.495  1.00  0.00     0.170 HD
ENDROOT
BRANCH   2  13
HETATM   13  C   UNL     1      42.035 -15.083   2.610  1.00  0.00     0.279 C 
HETATM   14  N   UNL     1      42.460 -16.403   2.586  1.00  0.00    -0.356 N 
HETATM   15  H   UNL     1      41.940 -17.090   3.119  1.00  0.00     0.162 HD
HETATM   16  O   UNL     1      42.668 -14.183   2.054  1.00  0.00    -0.268 OA
BRANCH  14  17
HETATM   17  C   UNL     1      43.614 -16.843   1.827  1.00  0.00     0.127 C 
BRANCH  17  18
HETATM   18  C   UNL     1      43.517 -18.274   1.281  1.00  0.00     0.058 C 
BRANCH  18  19
HETATM   19  C   UNL     1      43.925 -19.355   2.255  1.00  0.00    -0.057 A 
HETATM   20  C   UNL     1      43.954 -20.704   1.875  1.00  0.00     0.009 A 
HETATM   21  C   UNL     1      44.351 -21.688   2.783  1.00  0.00     0.024 A 
HETATM   22  C   UNL     1      44.730 -21.328   4.074  1.00  0.00     0.034 A 
HETATM   23 CL   UNL     1      45.219 -22.539   5.193  1.00  0.00    -0.084 Cl
HETATM   24  C   UNL     1      44.722 -19.991   4.463  1.00  0.00     0.024 A 
HETATM   25  C   UNL     1      44.320 -19.009   3.557  1.00  0.00     0.009 A 
ENDBRANCH  18  19
ENDBRANCH  17  18
ENDBRANCH  14  17
ENDBRANCH   2  13
BRANCH   2  26
HETATM   26  O   UNL     1      39.971 -15.952   3.880  1.00  0.00    -0.359 OA
HETATM   27  H   UNL     1      40.518 -16.380   4.556  1.00  0.00     0.213 HD
ENDBRANCH   2  26
BRANCH   1  28
HETATM   28  C   UNL     1      42.155 -14.667   5.564  1.00  0.00     0.045 A 
HETATM   29  C   UNL     1      41.954 -15.866   6.278  1.00  0.00     0.066 A 
HETATM   30  C   UNL     1      42.951 -16.434   7.084  1.00  0.00     0.070 A 
HETATM   31  C   UNL     1      44.170 -15.782   7.229  1.00  0.00     0.037 A 
HETATM   32  C   UNL     1      44.397 -14.587   6.562  1.00  0.00     0.005 A 
HETATM   33  C   UNL     1      43.403 -14.039   5.741  1.00  0.00     0.030 A 
BRANCH  30  34
HETATM   34  O   UNL     1      42.837 -17.598   7.795  1.00  0.00    -0.356 OA
HETATM   35  C   UNL     1      43.995 -18.425   7.852  1.00  0.00     0.210 C 
ENDBRANCH  30  34
ENDBRANCH   1  28
TORSDOF 7
ENDMDL
MODEL 4
REMARK VINA RESULT:      -8.8      3.824      7.784
REMARK  7 active torsions:
REMARK  status: ('A' for Active; 'I' for Inactive)
REMARK    1  A    between atoms: O_2  and  C_3 
REMARK    2  A    between atoms: C_5  and  N_6 
REMARK    3  A    between atoms: C_7  and  C_9 
REMARK    4  A    between atoms: C_7  and  O_8 
REMARK       I    between atoms: C_9  and  N_10 
REMARK    5  A    between atoms: N_10  and  C_11 
REMARK    6  A    between atoms: C_11  and  C_12 
REMARK    7  A    between atoms: C_12  and  C_13 
ROOT
HETATM    1  N   UNL     1      42.124 -15.623   5.706  1.00  0.00    -0.254 N 
HETATM    2  C   UNL     1      42.504 -14.266   5.236  1.00  0.00     0.256 C 
HETATM    3  C   UNL     1      41.503 -13.166   5.520  1.00  0.00     0.034 A 
HETATM    4  C   UNL     1      40.301 -13.477   6.126  1.00  0.00     0.048 A 
HETATM    5  N   UNL     1      40.029 -14.798   6.420  1.00  0.00    -0.308 N 
HETATM    6  C   UNL     1      40.843 -15.862   6.192  1.00  0.00     0.330 C 
HETATM    7  O   UNL     1      40.357 -16.964   6.450  1.00  0.00    -0.246 OA
HETATM    8  C   UNL     1      41.747 -11.826   5.166  1.00  0.00     0.015 A 
HETATM    9  C   UNL     1      40.810 -10.831   5.449  1.00  0.00     0.001 A 
HETATM   10  C   UNL     1      39.615 -11.164   6.081  1.00  0.00     0.002 A 
HETATM   11  C   UNL     1      39.354 -12.492   6.413  1.00  0.00     0.030 A 
HETATM   12  H   UNL     1      39.121 -15.051   6.790  1.00  0.00     0.170 HD
ENDROOT
BRANCH   2  13
HETATM   13  C   UNL     1      43.861 -13.844   5.982  1.00  0.00     0.279 C 
HETATM   14  N   UNL     1      43.738 -13.624   7.346  1.00  0.00    -0.356 N 
HETATM   15  H   UNL     1      42.823 -13.715   7.772  1.00  0.00     0.162 HD
HETATM   16  O   UNL     1      44.926 -13.669   5.386  1.00  0.00    -0.268 OA
BRANCH  14  17
HETATM   17  C   UNL     1      44.863 -13.274   8.190  1.00  0.00     0.127 C 
BRANCH  17  18
HETATM   18  C   UNL     1      44.849 -11.831   8.714  1.00  0.00     0.058 C 
BRANCH  18  19
HETATM   19  C   UNL     1      43.882 -11.577   9.848  1.00  0.00    -0.057 A 
HETATM   20  C   UNL     1      42.653 -10.942   9.626  1.00  0.00     0.009 A 
HETATM   21  C   UNL     1      41.763 -10.731  10.683  1.00  0.00     0.024 A 
HETATM   22  C   UNL     1      42.095 -11.164  11.965  1.00  0.00     0.034 A 
HETATM   23 CL   UNL     1      41.000 -10.905  13.267  1.00  0.00    -0.084 Cl
HETATM   24  C   UNL     1      43.305 -11.810  12.199  1.00  0.00     0.024 A 
HETATM   25  C   UNL     1      44.195 -12.016  11.144  1.00  0.00     0.009 A 
ENDBRANCH  18  19
ENDBRANCH  17  18
ENDBRANCH  14  17
ENDBRANCH   2  13
BRANCH   2  26
HETATM   26  O   UNL     1      42.548 -14.317   3.818  1.00  0.00    -0.359 OA
HETATM   27  H   UNL     1      41.621 -14.291   3.536  1.00  0.00     0.213 HD
ENDBRANCH   2  26
BRANCH   1  28
HETATM   28  C   UNL     1      43.107 -16.709   5.614  1.00  0.00     0.045 A 
HETATM   29  C   UNL     1      43.215 -17.516   4.463  1.00  0.00     0.066 A 
HETATM   30  C   UNL     1      44.159 -18.548   4.357  1.00  0.00     0.070 A 
HETATM   31  C   UNL     1      44.996 -18.825   5.432  1.00  0.00     0.037 A 
HETATM   32  C   UNL     1      44.903 -18.069   6.592  1.00  0.00     0.005 A 
HETATM   33  C   UNL     1      43.972 -17.026   6.679  1.00  0.00     0.030 A 
BRANCH  30  34
HETATM   34  O   UNL     1      44.335 -19.363   3.272  1.00  0.00    -0.356 OA
HETATM   35  C   UNL     1      44.692 -20.714   3.542  1.00  0.00     0.210 C 
ENDBRANCH  30  34
ENDBRANCH   1  28
TORSDOF 7
ENDMDL
MODEL 5
REMARK VINA RESULT:      -8.8      2.296      4.595
REMARK  7 active torsions:
REMARK  status: ('A' for Active; 'I' for Inactive)
REMARK    1  A    between atoms: O_2  and  C_3 
REMARK    2  A    between atoms: C_5  and  N_6 
REMARK    3  A    between atoms: C_7  and  C_9 
REMARK    4  A    between atoms: C_7  and  O_8 
REMARK       I    between atoms: C_9  and  N_10 
REMARK    5  A    between atoms: N_10  and  C_11 
REMARK    6  A    between atoms: C_11  and  C_12 
REMARK    7  A    between atoms: C_12  and  C_13 
ROOT
HETATM    1  N   UNL     1      41.016 -14.082   4.728  1.00  0.00    -0.254 N 
HETATM    2  C   UNL     1      40.666 -14.781   3.465  1.00  0.00     0.256 C 
HETATM    3  C   UNL     1      39.729 -14.037   2.537  1.00  0.00     0.034 A 
HETATM    4  C   UNL     1      39.215 -12.814   2.923  1.00  0.00     0.048 A 
HETATM    5  N   UNL     1      39.541 -12.322   4.171  1.00  0.00    -0.308 N 
HETATM    6  C   UNL     1      40.353 -12.913   5.086  1.00  0.00     0.330 C 
HETATM    7  O   UNL     1      40.429 -12.338   6.174  1.00  0.00    -0.246 OA
HETATM    8  C   UNL     1      39.343 -14.562   1.289  1.00  0.00     0.015 A 
HETATM    9  C   UNL     1      38.486 -13.849   0.450  1.00  0.00     0.001 A 
HETATM   10  C   UNL     1      37.999 -12.608   0.849  1.00  0.00     0.002 A 
HETATM   11  C   UNL     1      38.356 -12.091   2.093  1.00  0.00     0.030 A 
HETATM   12  H   UNL     1      39.110 -11.467   4.499  1.00  0.00     0.170 HD
ENDROOT
BRANCH   2  13
HETATM   13  C   UNL     1      42.022 -15.023   2.640  1.00  0.00     0.279 C 
HETATM   14  N   UNL     1      42.429 -16.346   2.553  1.00  0.00    -0.356 N 
HETATM   15  H   UNL     1      41.878 -17.055   3.023  1.00  0.00     0.162 HD
HETATM   16  O   UNL     1      42.690 -14.102   2.164  1.00  0.00    -0.268 OA
BRANCH  14  17
HETATM   17  C   UNL     1      43.607 -16.759   1.816  1.00  0.00     0.127 C 
BRANCH  17  18
HETATM   18  C   UNL     1      43.550 -18.187   1.258  1.00  0.00     0.058 C 
BRANCH  18  19
HETATM   19  C   UNL     1      43.936 -19.269   2.240  1.00  0.00    -0.057 A 
HETATM   20  C   UNL     1      43.972 -20.617   1.860  1.00  0.00     0.009 A 
HETATM   21  C   UNL     1      44.350 -21.602   2.776  1.00  0.00     0.024 A 
HETATM   22  C   UNL     1      44.702 -21.243   4.075  1.00  0.00     0.034 A 
HETATM   23 CL   UNL     1      45.167 -22.455   5.204  1.00  0.00    -0.084 Cl
HETATM   24  C   UNL     1      44.686 -19.907   4.464  1.00  0.00     0.024 A 
HETATM   25  C   UNL     1      44.304 -18.924   3.550  1.00  0.00     0.009 A 
ENDBRANCH  18  19
ENDBRANCH  17  18
ENDBRANCH  14  17
ENDBRANCH   2  13
BRANCH   2  26
HETATM   26  O   UNL     1      39.927 -15.938   3.825  1.00  0.00    -0.359 OA
HETATM   27  H   UNL     1      39.834 -16.444   3.003  1.00  0.00     0.213 HD
ENDBRANCH   2  26
BRANCH   1  28
HETATM   28  C   UNL     1      42.041 -14.662   5.603  1.00  0.00     0.045 A 
HETATM   29  C   UNL     1      43.241 -13.983   5.890  1.00  0.00     0.066 A 
HETATM   30  C   UNL     1      44.223 -14.520   6.736  1.00  0.00     0.070 A 
HETATM   31  C   UNL     1      44.039 -15.784   7.284  1.00  0.00     0.037 A 
HETATM   32  C   UNL     1      42.881 -16.496   7.004  1.00  0.00     0.005 A 
HETATM   33  C   UNL     1      41.897 -15.941   6.176  1.00  0.00     0.030 A 
BRANCH  30  34
HETATM   34  O   UNL     1      45.404 -13.917   7.074  1.00  0.00    -0.356 OA
HETATM   35  C   UNL     1      45.346 -12.931   8.099  1.00  0.00     0.210 C 
ENDBRANCH  30  34
ENDBRANCH   1  28
TORSDOF 7
ENDMDL
MODEL 6
REMARK VINA RESULT:      -8.6      3.043      4.268
REMARK  7 active torsions:
REMARK  status: ('A' for Active; 'I' for Inactive)
REMARK    1  A    between atoms: O_2  and  C_3 
REMARK    2  A    between atoms: C_5  and  N_6 
REMARK    3  A    between atoms: C_7  and  C_9 
REMARK    4  A    between atoms: C_7  and  O_8 
REMARK       I    between atoms: C_9  and  N_10 
REMARK    5  A    between atoms: N_10  and  C_11 
REMARK    6  A    between atoms: C_11  and  C_12 
REMARK    7  A    between atoms: C_12  and  C_13 
ROOT
HETATM    1  N   UNL     1      41.168 -13.950   1.597  1.00  0.00    -0.254 N 
HETATM    2  C   UNL     1      40.686 -14.961   0.621  1.00  0.00     0.256 C 
HETATM    3  C   UNL     1      40.996 -14.673  -0.833  1.00  0.00     0.034 A 
HETATM    4  C   UNL     1      41.635 -13.497  -1.175  1.00  0.00     0.048 A 
HETATM    5  N   UNL     1      41.939 -12.593  -0.176  1.00  0.00    -0.308 N 
HETATM    6  C   UNL     1      41.690 -12.741   1.152  1.00  0.00     0.330 C 
HETATM    7  O   UNL     1      41.963 -11.764   1.852  1.00  0.00    -0.246 OA
HETATM    8  C   UNL     1      40.634 -15.562  -1.862  1.00  0.00     0.015 A 
HETATM    9  C   UNL     1      40.941 -15.275  -3.193  1.00  0.00     0.001 A 
HETATM   10  C   UNL     1      41.606 -14.095  -3.512  1.00  0.00     0.002 A 
HETATM   11  C   UNL     1      41.947 -13.197  -2.502  1.00  0.00     0.030 A 
HETATM   12  H   UNL     1      42.334 -11.694  -0.420  1.00  0.00     0.170 HD
ENDROOT
BRANCH   2  13
HETATM   13  C   UNL     1      41.394 -16.360   0.965  1.00  0.00     0.279 C 
HETATM   14  N   UNL     1      42.761 -16.399   0.734  1.00  0.00    -0.356 N 
HETATM   15  H   UNL     1      43.212 -15.577   0.350  1.00  0.00     0.162 HD
HETATM   16  O   UNL     1      40.769 -17.350   1.350  1.00  0.00    -0.268 OA
BRANCH  14  17
HETATM   17  C   UNL     1      43.573 -17.565   1.021  1.00  0.00     0.127 C 
BRANCH  17  18
HETATM   18  C   UNL     1      44.001 -17.705   2.489  1.00  0.00     0.058 C 
BRANCH  18  19
HETATM   19  C   UNL     1      44.194 -19.127   2.962  1.00  0.00    -0.057 A 
HETATM   20  C   UNL     1      44.042 -20.211   2.088  1.00  0.00     0.009 A 
HETATM   21  C   UNL     1      44.241 -21.519   2.539  1.00  0.00     0.024 A 
HETATM   22  C   UNL     1      44.604 -21.747   3.864  1.00  0.00     0.034 A 
HETATM   23 CL   UNL     1      44.849 -23.357   4.420  1.00  0.00    -0.084 Cl
HETATM   24  C   UNL     1      44.773 -20.680   4.741  1.00  0.00     0.024 A 
HETATM   25  C   UNL     1      44.569 -19.375   4.292  1.00  0.00     0.009 A 
ENDBRANCH  18  19
ENDBRANCH  17  18
ENDBRANCH  14  17
ENDBRANCH   2  13
BRANCH   2  26
HETATM   26  O   UNL     1      39.268 -14.938   0.669  1.00  0.00    -0.359 OA
HETATM   27  H   UNL     1      39.048 -14.202   1.261  1.00  0.00     0.213 HD
ENDBRANCH   2  26
BRANCH   1  28
HETATM   28  C   UNL     1      41.051 -14.234   3.032  1.00  0.00     0.045 A 
HETATM   29  C   UNL     1      42.149 -14.688   3.790  1.00  0.00     0.066 A 
HETATM   30  C   UNL     1      42.055 -14.949   5.165  1.00  0.00     0.070 A 
HETATM   31  C   UNL     1      40.831 -14.802   5.809  1.00  0.00     0.037 A 
HETATM   32  C   UNL     1      39.721 -14.381   5.091  1.00  0.00     0.005 A 
HETATM   33  C   UNL     1      39.831 -14.101   3.723  1.00  0.00     0.030 A 
BRANCH  30  34
HETATM   34  O   UNL     1      43.076 -15.377   5.970  1.00  0.00    -0.356 OA
HETATM   35  C   UNL     1      43.985 -14.382   6.428  1.00  0.00     0.210 C 
ENDBRANCH  30  34
ENDBRANCH   1  28
TORSDOF 7
ENDMDL
MODEL 7
REMARK VINA RESULT:      -8.1      3.083      4.917
REMARK  7 active torsions:
REMARK  status: ('A' for Active; 'I' for Inactive)
REMARK    1  A    between atoms: O_2  and  C_3 
REMARK    2  A    between atoms: C_5  and  N_6 
REMARK    3  A    between atoms: C_7  and  C_9 
REMARK    4  A    between atoms: C_7  and  O_8 
REMARK       I    between atoms: C_9  and  N_10 
REMARK    5  A    between atoms: N_10  and  C_11 
REMARK    6  A    between atoms: C_11  and  C_12 
REMARK    7  A    between atoms: C_12  and  C_13 
ROOT
HETATM    1  N   UNL     1      39.952 -13.717   2.999  1.00  0.00    -0.254 N 
HETATM    2  C   UNL     1      39.660 -14.495   1.767  1.00  0.00     0.256 C 
HETATM    3  C   UNL     1      38.974 -13.733   0.653  1.00  0.00     0.034 A 
HETATM    4  C   UNL     1      38.612 -12.414   0.850  1.00  0.00     0.048 A 
HETATM    5  N   UNL     1      38.851 -11.838   2.082  1.00  0.00    -0.308 N 
HETATM    6  C   UNL     1      39.440 -12.433   3.153  1.00  0.00     0.330 C 
HETATM    7  O   UNL     1      39.467 -11.759   4.183  1.00  0.00    -0.246 OA
HETATM    8  C   UNL     1      38.672 -14.332  -0.584  1.00  0.00     0.015 A 
HETATM    9  C   UNL     1      38.048 -13.602  -1.597  1.00  0.00     0.001 A 
HETATM   10  C   UNL     1      37.713 -12.268  -1.383  1.00  0.00     0.002 A 
HETATM   11  C   UNL     1      37.987 -11.673  -0.153  1.00  0.00     0.030 A 
HETATM   12  H   UNL     1      38.520 -10.900   2.268  1.00  0.00     0.170 HD
ENDROOT
BRANCH   2  13
HETATM   13  C   UNL     1      41.054 -15.016   1.166  1.00  0.00     0.279 C 
HETATM   14  N   UNL     1      41.288 -16.375   1.318  1.00  0.00    -0.356 N 
HETATM   15  H   UNL     1      40.598 -16.935   1.806  1.00  0.00     0.162 HD
HETATM   16  O   UNL     1      41.888 -14.263   0.659  1.00  0.00    -0.268 OA
BRANCH  14  17
HETATM   17  C   UNL     1      42.475 -17.030   0.805  1.00  0.00     0.127 C 
BRANCH  17  18
HETATM   18  C   UNL     1      43.719 -16.895   1.694  1.00  0.00     0.058 C 
BRANCH  18  19
HETATM   19  C   UNL     1      43.979 -18.073   2.605  1.00  0.00    -0.057 A 
HETATM   20  C   UNL     1      43.930 -17.939   3.999  1.00  0.00     0.009 A 
HETATM   21  C   UNL     1      44.155 -19.043   4.825  1.00  0.00     0.024 A 
HETATM   22  C   UNL     1      44.422 -20.288   4.261  1.00  0.00     0.034 A 
HETATM   23 CL   UNL     1      44.700 -21.648   5.279  1.00  0.00    -0.084 Cl
HETATM   24  C   UNL     1      44.460 -20.441   2.879  1.00  0.00     0.024 A 
HETATM   25  C   UNL     1      44.239 -19.337   2.054  1.00  0.00     0.009 A 
ENDBRANCH  18  19
ENDBRANCH  17  18
ENDBRANCH  14  17
ENDBRANCH   2  13
BRANCH   2  26
HETATM   26  O   UNL     1      38.710 -15.489   2.123  1.00  0.00    -0.359 OA
HETATM   27  H   UNL     1      38.195 -15.645   1.316  1.00  0.00     0.213 HD
ENDBRANCH   2  26
BRANCH   1  28
HETATM   28  C   UNL     1      40.756 -14.337   4.058  1.00  0.00     0.045 A 
HETATM   29  C   UNL     1      42.095 -13.960   4.290  1.00  0.00     0.066 A 
HETATM   30  C   UNL     1      42.870 -14.534   5.308  1.00  0.00     0.070 A 
HETATM   31  C   UNL     1      42.327 -15.542   6.097  1.00  0.00     0.037 A 
HETATM   32  C   UNL     1      41.021 -15.958   5.883  1.00  0.00     0.005 A 
HETATM   33  C   UNL     1      40.248 -15.363   4.879  1.00  0.00     0.030 A 
BRANCH  30  34
HETATM   34  O   UNL     1      44.167 -14.213   5.604  1.00  0.00    -0.356 OA
HETATM   35  C   UNL     1      44.611 -14.510   6.923  1.00  0.00     0.210 C 
ENDBRANCH  30  34
ENDBRANCH   1  28
TORSDOF 7
ENDMDL
MODEL 8
REMARK VINA RESULT:      -8.0      2.192      4.980
REMARK  7 active torsions:
REMARK  status: ('A' for Active; 'I' for Inactive)
REMARK    1  A    between atoms: O_2  and  C_3 
REMARK    2  A    between atoms: C_5  and  N_6 
REMARK    3  A    between atoms: C_7  and  C_9 
REMARK    4  A    between atoms: C_7  and  O_8 
REMARK       I    between atoms: C_9  and  N_10 
REMARK    5  A    between atoms: N_10  and  C_11 
REMARK    6  A    between atoms: C_11  and  C_12 
REMARK    7  A    between atoms: C_12  and  C_13 
ROOT
HETATM    1  N   UNL     1      41.219 -13.774   4.597  1.00  0.00    -0.254 N 
HETATM    2  C   UNL     1      41.221 -13.918   3.118  1.00  0.00     0.256 C 
HETATM    3  C   UNL     1      41.111 -12.630   2.330  1.00  0.00     0.034 A 
HETATM    4  C   UNL     1      40.958 -11.431   3.000  1.00  0.00     0.048 A 
HETATM    5  N   UNL     1      40.869 -11.448   4.377  1.00  0.00    -0.308 N 
HETATM    6  C   UNL     1      40.936 -12.543   5.179  1.00  0.00     0.330 C 
HETATM    7  O   UNL     1      40.739 -12.334   6.377  1.00  0.00    -0.246 OA
HETATM    8  C   UNL     1      41.138 -12.613   0.923  1.00  0.00     0.015 A 
HETATM    9  C   UNL     1      41.045 -11.409   0.223  1.00  0.00     0.001 A 
HETATM   10  C   UNL     1      40.914 -10.210   0.919  1.00  0.00     0.002 A 
HETATM   11  C   UNL     1      40.862 -10.221   2.312  1.00  0.00     0.030 A 
HETATM   12  H   UNL     1      40.678 -10.588   4.876  1.00  0.00     0.170 HD
ENDROOT
BRANCH   2  13
HETATM   13  C   UNL     1      42.612 -14.594   2.687  1.00  0.00     0.279 C 
HETATM   14  N   UNL     1      42.512 -15.894   2.213  1.00  0.00    -0.356 N 
HETATM   15  H   UNL     1      41.599 -16.334   2.193  1.00  0.00     0.162 HD
HETATM   16  O   UNL     1      43.700 -14.029   2.818  1.00  0.00    -0.268 OA
BRANCH  14  17
HETATM   17  C   UNL     1      43.657 -16.649   1.743  1.00  0.00     0.127 C 
BRANCH  17  18
HETATM   18  C   UNL     1      43.348 -18.095   1.332  1.00  0.00     0.058 C 
BRANCH  18  19
HETATM   19  C   UNL     1      43.831 -19.148   2.302  1.00  0.00    -0.057 A 
HETATM   20  C   UNL     1      44.114 -18.832   3.637  1.00  0.00     0.009 A 
HETATM   21  C   UNL     1      44.542 -19.822   4.525  1.00  0.00     0.024 A 
HETATM   22  C   UNL     1      44.680 -21.136   4.084  1.00  0.00     0.034 A 
HETATM   23 CL   UNL     1      45.207 -22.356   5.176  1.00  0.00    -0.084 Cl
HETATM   24  C   UNL     1      44.388 -21.470   2.764  1.00  0.00     0.024 A 
HETATM   25  C   UNL     1      43.966 -20.479   1.877  1.00  0.00     0.009 A 
ENDBRANCH  18  19
ENDBRANCH  17  18
ENDBRANCH  14  17
ENDBRANCH   2  13
BRANCH   2  26
HETATM   26  O   UNL     1      40.039 -14.622   2.771  1.00  0.00    -0.359 OA
HETATM   27  H   UNL     1      39.780 -14.270   1.906  1.00  0.00     0.213 HD
ENDBRANCH   2  26
BRANCH   1  28
HETATM   28  C   UNL     1      41.485 -14.954   5.428  1.00  0.00     0.045 A 
HETATM   29  C   UNL     1      42.776 -15.244   5.913  1.00  0.00     0.066 A 
HETATM   30  C   UNL     1      43.040 -16.361   6.720  1.00  0.00     0.070 A 
HETATM   31  C   UNL     1      42.012 -17.246   7.024  1.00  0.00     0.037 A 
HETATM   32  C   UNL     1      40.732 -17.008   6.544  1.00  0.00     0.005 A 
HETATM   33  C   UNL     1      40.474 -15.878   5.758  1.00  0.00     0.030 A 
BRANCH  30  34
HETATM   34  O   UNL     1      44.259 -16.701   7.240  1.00  0.00    -0.356 OA
HETATM   35  C   UNL     1      44.405 -18.041   7.698  1.00  0.00     0.210 C 
ENDBRANCH  30  34
ENDBRANCH   1  28
TORSDOF 7
ENDMDL
MODEL 9
REMARK VINA RESULT:      -7.9      2.066      4.066
REMARK  7 active torsions:
REMARK  status: ('A' for Active; 'I' for Inactive)
REMARK    1  A    between atoms: O_2  and  C_3 
REMARK    2  A    between atoms: C_5  and  N_6 
REMARK    3  A    between atoms: C_7  and  C_9 
REMARK    4  A    between atoms: C_7  and  O_8 
REMARK       I    between atoms: C_9  and  N_10 
REMARK    5  A    between atoms: N_10  and  C_11 
REMARK    6  A    between atoms: C_11  and  C_12 
REMARK    7  A    between atoms: C_12  and  C_13 
ROOT
HETATM    1  N   UNL     1      41.358 -14.059   4.890  1.00  0.00    -0.254 N 
HETATM    2  C   UNL     1      42.786 -14.405   5.106  1.00  0.00     0.256 C 
HETATM    3  C   UNL     1      43.048 -15.602   5.996  1.00  0.00     0.034 A 
HETATM    4  C   UNL     1      41.985 -16.254   6.592  1.00  0.00     0.048 A 
HETATM    5  N   UNL     1      40.709 -15.766   6.389  1.00  0.00    -0.308 N 
HETATM    6  C   UNL     1      40.365 -14.693   5.629  1.00  0.00     0.330 C 
HETATM    7  O   UNL     1      39.174 -14.381   5.665  1.00  0.00    -0.246 OA
HETATM    8  C   UNL     1      44.350 -16.066   6.258  1.00  0.00     0.015 A 
HETATM    9  C   UNL     1      44.560 -17.178   7.075  1.00  0.00     0.001 A 
HETATM   10  C   UNL     1      43.473 -17.834   7.646  1.00  0.00     0.002 A 
HETATM   11  C   UNL     1      42.181 -17.366   7.413  1.00  0.00     0.030 A 
HETATM   12  H   UNL     1      39.931 -16.184   6.882  1.00  0.00     0.170 HD
ENDROOT
BRANCH   2  13
HETATM   13  C   UNL     1      43.434 -14.754   3.679  1.00  0.00     0.279 C 
HETATM   14  N   UNL     1      43.201 -16.045   3.228  1.00  0.00    -0.356 N 
HETATM   15  H   UNL     1      42.674 -16.678   3.819  1.00  0.00     0.162 HD
HETATM   16  O   UNL     1      44.137 -13.960   3.051  1.00  0.00    -0.268 OA
BRANCH  14  17
HETATM   17  C   UNL     1      43.675 -16.527   1.946  1.00  0.00     0.127 C 
BRANCH  17  18
HETATM   18  C   UNL     1      43.137 -17.905   1.538  1.00  0.00     0.058 C 
BRANCH  18  19
HETATM   19  C   UNL     1      43.642 -19.057   2.375  1.00  0.00    -0.057 A 
HETATM   20  C   UNL     1      43.772 -20.345   1.837  1.00  0.00     0.009 A 
HETATM   21  C   UNL     1      44.258 -21.395   2.621  1.00  0.00     0.024 A 
HETATM   22  C   UNL     1      44.626 -21.160   3.944  1.00  0.00     0.034 A 
HETATM   23 CL   UNL     1      45.224 -22.452   4.909  1.00  0.00    -0.084 Cl
HETATM   24  C   UNL     1      44.517 -19.884   4.488  1.00  0.00     0.024 A 
HETATM   25  C   UNL     1      44.027 -18.837   3.706  1.00  0.00     0.009 A 
ENDBRANCH  18  19
ENDBRANCH  17  18
ENDBRANCH  14  17
ENDBRANCH   2  13
BRANCH   2  26
HETATM   26  O   UNL     1      43.368 -13.326   5.821  1.00  0.00    -0.359 OA
HETATM   27  H   UNL     1      43.396 -12.591   5.189  1.00  0.00     0.213 HD
ENDBRANCH   2  26
BRANCH   1  28
HETATM   28  C   UNL     1      41.017 -13.017   3.914  1.00  0.00     0.045 A 
HETATM   29  C   UNL     1      41.088 -11.647   4.238  1.00  0.00     0.066 A 
HETATM   30  C   UNL     1      40.779 -10.641   3.311  1.00  0.00     0.070 A 
HETATM   31  C   UNL     1      40.345 -10.991   2.037  1.00  0.00     0.037 A 
HETATM   32  C   UNL     1      40.238 -12.331   1.689  1.00  0.00     0.005 A 
HETATM   33  C   UNL     1      40.571 -13.327   2.615  1.00  0.00     0.030 A 
BRANCH  30  34
HETATM   34  O   UNL     1      40.838  -9.294   3.543  1.00  0.00    -0.356 OA
HETATM   35  C   UNL     1      39.931  -8.775   4.511  1.00  0.00     0.210 C 
ENDBRANCH  30  34
ENDBRANCH   1  28
TORSDOF 7
ENDMDL
MODEL 10
REMARK VINA RESULT:      -7.9      3.252      4.320
REMARK  7 active torsions:
REMARK  status: ('A' for Active; 'I' for Inactive)
REMARK    1  A    between atoms: O_2  and  C_3 
REMARK    2  A    between atoms: C_5  and  N_6 
REMARK    3  A    between atoms: C_7  and  C_9 
REMARK    4  A    between atoms: C_7  and  O_8 
REMARK       I    between atoms: C_9  and  N_10 
REMARK    5  A    between atoms: N_10  and  C_11 
REMARK    6  A    between atoms: C_11  and  C_12 
REMARK    7  A    between atoms: C_12  and  C_13 
ROOT
HETATM    1  N   UNL     1      41.554 -13.188   0.983  1.00  0.00    -0.254 N 
HETATM    2  C   UNL     1      40.698 -14.259   0.412  1.00  0.00     0.256 C 
HETATM    3  C   UNL     1      40.746 -14.409  -1.094  1.00  0.00     0.034 A 
HETATM    4  C   UNL     1      41.510 -13.534  -1.843  1.00  0.00     0.048 A 
HETATM    5  N   UNL     1      42.179 -12.516  -1.194  1.00  0.00    -0.308 N 
HETATM    6  C   UNL     1      42.190 -12.279   0.144  1.00  0.00     0.330 C 
HETATM    7  O   UNL     1      42.781 -11.256   0.494  1.00  0.00    -0.246 OA
HETATM    8  C   UNL     1      40.017 -15.406  -1.768  1.00  0.00     0.015 A 
HETATM    9  C   UNL     1      40.088 -15.527  -3.156  1.00  0.00     0.001 A 
HETATM   10  C   UNL     1      40.882 -14.649  -3.888  1.00  0.00     0.002 A 
HETATM   11  C   UNL     1      41.589 -13.643  -3.232  1.00  0.00     0.030 A 
HETATM   12  H   UNL     1      42.677 -11.821  -1.736  1.00  0.00     0.170 HD
ENDROOT
BRANCH   2  13
HETATM   13  C   UNL     1      41.186 -15.662   1.021  1.00  0.00     0.279 C 
HETATM   14  N   UNL     1      42.436 -16.086   0.592  1.00  0.00    -0.356 N 
HETATM   15  H   UNL     1      42.938 -15.515  -0.078  1.00  0.00     0.162 HD
HETATM   16  O   UNL     1      40.486 -16.347   1.769  1.00  0.00    -0.268 OA
BRANCH  14  17
HETATM   17  C   UNL     1      43.055 -17.308   1.065  1.00  0.00     0.127 C 
BRANCH  17  18
HETATM   18  C   UNL     1      43.875 -17.157   2.354  1.00  0.00     0.058 C 
BRANCH  18  19
HETATM   19  C   UNL     1      44.158 -18.451   3.081  1.00  0.00    -0.057 A 
HETATM   20  C   UNL     1      44.222 -18.499   4.481  1.00  0.00     0.009 A 
HETATM   21  C   UNL     1      44.467 -19.708   5.138  1.00  0.00     0.024 A 
HETATM   22  C   UNL     1      44.641 -20.875   4.399  1.00  0.00     0.034 A 
HETATM   23 CL   UNL     1      44.944 -22.364   5.207  1.00  0.00    -0.084 Cl
HETATM   24  C   UNL     1      44.566 -20.847   3.009  1.00  0.00     0.024 A 
HETATM   25  C   UNL     1      44.326 -19.639   2.354  1.00  0.00     0.009 A 
ENDBRANCH  18  19
ENDBRANCH  17  18
ENDBRANCH  14  17
ENDBRANCH   2  13
BRANCH   2  26
HETATM   26  O   UNL     1      39.351 -13.890   0.666  1.00  0.00    -0.359 OA
HETATM   27  H   UNL     1      38.824 -14.421   0.050  1.00  0.00     0.213 HD
ENDBRANCH   2  26
BRANCH   1  28
HETATM   28  C   UNL     1      41.688 -13.084   2.441  1.00  0.00     0.045 A 
HETATM   29  C   UNL     1      40.683 -12.500   3.237  1.00  0.00     0.066 A 
HETATM   30  C   UNL     1      40.791 -12.408   4.633  1.00  0.00     0.070 A 
HETATM   31  C   UNL     1      41.943 -12.864   5.263  1.00  0.00     0.037 A 
HETATM   32  C   UNL     1      42.967 -13.422   4.509  1.00  0.00     0.005 A 
HETATM   33  C   UNL     1      42.839 -13.531   3.119  1.00  0.00     0.030 A 
BRANCH  30  34
HETATM   34  O   UNL     1      39.855 -11.870   5.474  1.00  0.00    -0.356 OA
HETATM   35  C   UNL     1      39.483 -12.658   6.600  1.00  0.00     0.210 C 
ENDBRANCH  30  34
ENDBRANCH   1  28
TORSDOF 7
ENDMDL
