MODEL 1
REMARK VINA RESULT:      -7.8      0.000      0.000
REMARK  6 active torsions:
REMARK  status: ('A' for Active; 'I' for Inactive)
REMARK    1  A    between atoms: C_2  and  N_3 
REMARK    2  A    between atoms: C_2  and  C_21 
REMARK       I    between atoms: N_3  and  C_4 
REMARK       I    between atoms: C_4  and  N_5 
REMARK    3  A    between atoms: N_5  and  C_6 
REMARK    4  A    between atoms: C_9  and  O_10 
REMARK    5  A    between atoms: O_10  and  C_11 
REMARK    6  A    between atoms: C_11  and  C_12 
ROOT
HETATM    1  C   UNL     1      41.405 -15.190   2.005  1.00  0.00     0.036 A 
HETATM    2  C   UNL     1      42.631 -14.872   2.590  1.00  0.00     0.032 A 
HETATM    3  C   UNL     1      43.176 -15.678   3.599  1.00  0.00     0.039 A 
HETATM    4  C   UNL     1      42.499 -16.813   4.040  1.00  0.00     0.068 A 
HETATM    5  C   UNL     1      41.269 -17.130   3.463  1.00  0.00     0.039 A 
HETATM    6  C   UNL     1      40.723 -16.326   2.454  1.00  0.00     0.032 A 
ENDROOT
BRANCH   1   7
HETATM    7  N   UNL     1      40.797 -14.417   0.996  1.00  0.00    -0.309 N 
HETATM    8  C   UNL     1      40.932 -14.567  -0.366  1.00  0.00     0.321 C 
HETATM    9  N   UNL     1      40.280 -13.569  -1.046  1.00  0.00    -0.332 N 
HETATM   10  O   UNL     1      41.533 -15.460  -0.948  1.00  0.00    -0.247 OA
HETATM   11  H   UNL     1      40.032 -12.714  -0.569  1.00  0.00     0.165 HD
HETATM   12  H   UNL     1      40.113 -13.738   1.294  1.00  0.00     0.170 HD
BRANCH   9  13
HETATM   13  C   UNL     1      40.345 -13.475  -2.501  1.00  0.00     0.155 C 
HETATM   14  C   UNL     1      39.958 -12.075  -2.983  1.00  0.00     0.041 C 
BRANCH  13  15
HETATM   15  C   UNL     1      39.418 -14.510  -3.077  1.00  0.00     0.169 A 
HETATM   16  N   UNL     1      38.120 -14.601  -2.753  1.00  0.00    -0.156 NA
HETATM   17  N   UNL     1      37.727 -15.650  -3.492  1.00  0.00    -0.270 N 
HETATM   18  H   UNL     1      36.762 -15.956  -3.449  1.00  0.00     0.190 HD
HETATM   19  C   UNL     1      38.760 -16.158  -4.216  1.00  0.00     0.227 A 
HETATM   20  N   UNL     1      39.847 -15.463  -3.981  1.00  0.00    -0.223 NA
ENDBRANCH  13  15
ENDBRANCH   9  13
ENDBRANCH   1   7
BRANCH   4  21
HETATM   21  O   UNL     1      42.924 -17.675   5.012  1.00  0.00    -0.351 OA
BRANCH  21  22
HETATM   22  C   UNL     1      43.069 -19.047   4.632  1.00  0.00     0.180 C 
BRANCH  22  23
HETATM   23  C   UNL     1      44.370 -19.214   3.826  1.00  0.00     0.010 C 
HETATM   24  C   UNL     1      45.188 -20.412   4.334  1.00  0.00     0.007 C 
HETATM   25  C   UNL     1      44.574 -21.758   3.951  1.00  0.00     0.000 C 
HETATM   26  C   UNL     1      44.331 -21.857   2.447  1.00  0.00     0.000 C 
HETATM   27  C   UNL     1      43.508 -20.686   1.922  1.00  0.00     0.000 C 
HETATM   28  C   UNL     1      44.119 -19.342   2.313  1.00  0.00     0.007 C 
ENDBRANCH  22  23
ENDBRANCH  21  22
ENDBRANCH   4  21
TORSDOF 6
ENDMDL
MODEL 2
REMARK VINA RESULT:      -7.6      2.273      3.500
REMARK  6 active torsions:
REMARK  status: ('A' for Active; 'I' for Inactive)
REMARK    1  A    between atoms: C_2  and  N_3 
REMARK    2  A    between atoms: C_2  and  C_21 
REMARK       I    between atoms: N_3  and  C_4 
REMARK       I    between atoms: C_4  and  N_5 
REMARK    3  A    between atoms: N_5  and  C_6 
REMARK    4  A    between atoms: C_9  and  O_10 
REMARK    5  A    between atoms: O_10  and  C_11 
REMARK    6  A    between atoms: C_11  and  C_12 
ROOT
HETATM    1  C   UNL     1      42.028 -17.101   1.320  1.00  0.00     0.036 A 
HETATM    2  C   UNL     1      43.311 -17.511   0.955  1.00  0.00     0.032 A 
HETATM    3  C   UNL     1      44.155 -18.139   1.881  1.00  0.00     0.039 A 
HETATM    4  C   UNL     1      43.728 -18.363   3.188  1.00  0.00     0.068 A 
HETATM    5  C   UNL     1      42.448 -17.948   3.559  1.00  0.00     0.039 A 
HETATM    6  C   UNL     1      41.604 -17.321   2.635  1.00  0.00     0.032 A 
ENDROOT
BRANCH   1   7
HETATM    7  N   UNL     1      41.135 -16.455   0.442  1.00  0.00    -0.309 N 
HETATM    8  C   UNL     1      40.900 -15.103   0.335  1.00  0.00     0.321 C 
HETATM    9  N   UNL     1      39.885 -14.841  -0.551  1.00  0.00    -0.332 N 
HETATM   10  O   UNL     1      41.496 -14.208   0.919  1.00  0.00    -0.247 OA
HETATM   11  H   UNL     1      39.238 -15.573  -0.807  1.00  0.00     0.165 HD
HETATM   12  H   UNL     1      40.682 -17.033  -0.250  1.00  0.00     0.170 HD
BRANCH   9  13
HETATM   13  C   UNL     1      39.406 -13.479  -0.774  1.00  0.00     0.155 C 
HETATM   14  C   UNL     1      37.880 -13.409  -0.695  1.00  0.00     0.041 C 
BRANCH  13  15
HETATM   15  C   UNL     1      39.889 -13.032  -2.128  1.00  0.00     0.169 A 
HETATM   16  N   UNL     1      39.069 -12.601  -3.098  1.00  0.00    -0.156 NA
HETATM   17  N   UNL     1      39.936 -12.333  -4.087  1.00  0.00    -0.270 N 
HETATM   18  H   UNL     1      39.588 -11.978  -4.971  1.00  0.00     0.190 HD
HETATM   19  C   UNL     1      41.213 -12.605  -3.711  1.00  0.00     0.227 A 
HETATM   20  N   UNL     1      41.225 -13.049  -2.476  1.00  0.00    -0.223 NA
ENDBRANCH  13  15
ENDBRANCH   9  13
ENDBRANCH   1   7
BRANCH   4  21
HETATM   21  O   UNL     1      44.454 -18.963   4.179  1.00  0.00    -0.351 OA
BRANCH  21  22
HETATM   22  C   UNL     1      43.733 -19.363   5.348  1.00  0.00     0.180 C 
BRANCH  22  23
HETATM   23  C   UNL     1      44.546 -18.981   6.599  1.00  0.00     0.010 C 
HETATM   24  C   UNL     1      45.388 -17.720   6.349  1.00  0.00     0.007 C 
HETATM   25  C   UNL     1      44.549 -16.444   6.292  1.00  0.00     0.000 C 
HETATM   26  C   UNL     1      43.681 -16.286   7.537  1.00  0.00     0.000 C 
HETATM   27  C   UNL     1      42.823 -17.520   7.798  1.00  0.00     0.000 C 
HETATM   28  C   UNL     1      43.664 -18.795   7.846  1.00  0.00     0.007 C 
ENDBRANCH  22  23
ENDBRANCH  21  22
ENDBRANCH   4  21
TORSDOF 6
ENDMDL
MODEL 3
REMARK VINA RESULT:      -7.3      1.791      2.388
REMARK  6 active torsions:
REMARK  status: ('A' for Active; 'I' for Inactive)
REMARK    1  A    between atoms: C_2  and  N_3 
REMARK    2  A    between atoms: C_2  and  C_21 
REMARK       I    between atoms: N_3  and  C_4 
REMARK       I    between atoms: C_4  and  N_5 
REMARK    3  A    between atoms: N_5  and  C_6 
REMARK    4  A    between atoms: C_9  and  O_10 
REMARK    5  A    between atoms: O_10  and  C_11 
REMARK    6  A    between atoms: C_11  and  C_12 
ROOT
HETATM    1  C   UNL     1      40.672 -15.383   2.850  1.00  0.00     0.036 A 
HETATM    2  C   UNL     1      40.882 -14.315   3.724  1.00  0.00     0.032 A 
HETATM    3  C   UNL     1      41.382 -14.531   5.015  1.00  0.00     0.039 A 
HETATM    4  C   UNL     1      41.676 -15.821   5.453  1.00  0.00     0.068 A 
HETATM    5  C   UNL     1      41.461 -16.892   4.584  1.00  0.00     0.039 A 
HETATM    6  C   UNL     1      40.962 -16.678   3.294  1.00  0.00     0.032 A 
ENDROOT
BRANCH   1   7
HETATM    7  N   UNL     1      40.163 -15.236   1.545  1.00  0.00    -0.309 N 
HETATM    8  C   UNL     1      40.881 -15.071   0.382  1.00  0.00     0.321 C 
HETATM    9  N   UNL     1      40.053 -14.852  -0.690  1.00  0.00    -0.332 N 
HETATM   10  O   UNL     1      42.098 -15.116   0.260  1.00  0.00    -0.247 OA
HETATM   11  H   UNL     1      39.101 -14.550  -0.538  1.00  0.00     0.165 HD
HETATM   12  H   UNL     1      39.168 -15.357   1.429  1.00  0.00     0.170 HD
BRANCH   9  13
HETATM   13  C   UNL     1      40.590 -14.574  -2.019  1.00  0.00     0.155 C 
HETATM   14  C   UNL     1      40.962 -13.098  -2.169  1.00  0.00     0.041 C 
BRANCH  13  15
HETATM   15  C   UNL     1      39.548 -14.965  -3.033  1.00  0.00     0.169 A 
HETATM   16  N   UNL     1      39.835 -15.602  -4.178  1.00  0.00    -0.156 NA
HETATM   17  N   UNL     1      38.621 -15.720  -4.736  1.00  0.00    -0.270 N 
HETATM   18  H   UNL     1      38.529 -16.178  -5.635  1.00  0.00     0.190 HD
HETATM   19  C   UNL     1      37.661 -15.166  -3.949  1.00  0.00     0.227 A 
HETATM   20  N   UNL     1      38.208 -14.677  -2.862  1.00  0.00    -0.223 NA
ENDBRANCH  13  15
ENDBRANCH   9  13
ENDBRANCH   1   7
BRANCH   4  21
HETATM   21  O   UNL     1      42.167 -16.160   6.683  1.00  0.00    -0.351 OA
BRANCH  21  22
HETATM   22  C   UNL     1      42.272 -17.558   6.968  1.00  0.00     0.180 C 
BRANCH  22  23
HETATM   23  C   UNL     1      43.734 -17.895   7.313  1.00  0.00     0.010 C 
HETATM   24  C   UNL     1      43.867 -19.345   7.806  1.00  0.00     0.007 C 
HETATM   25  C   UNL     1      43.714 -20.372   6.685  1.00  0.00     0.000 C 
HETATM   26  C   UNL     1      44.674 -20.093   5.532  1.00  0.00     0.000 C 
HETATM   27  C   UNL     1      44.550 -18.664   5.015  1.00  0.00     0.000 C 
HETATM   28  C   UNL     1      44.695 -17.640   6.140  1.00  0.00     0.007 C 
ENDBRANCH  22  23
ENDBRANCH  21  22
ENDBRANCH   4  21
TORSDOF 6
ENDMDL
MODEL 4
REMARK VINA RESULT:      -7.2      3.941      9.122
REMARK  6 active torsions:
REMARK  status: ('A' for Active; 'I' for Inactive)
REMARK    1  A    between atoms: C_2  and  N_3 
REMARK    2  A    between atoms: C_2  and  C_21 
REMARK       I    between atoms: N_3  and  C_4 
REMARK       I    between atoms: C_4  and  N_5 
REMARK    3  A    between atoms: N_5  and  C_6 
REMARK    4  A    between atoms: C_9  and  O_10 
REMARK    5  A    between atoms: O_10  and  C_11 
REMARK    6  A    between atoms: C_11  and  C_12 
ROOT
HETATM    1  C   UNL     1      41.788 -16.400   1.033  1.00  0.00     0.036 A 
HETATM    2  C   UNL     1      41.936 -15.234   1.785  1.00  0.00     0.032 A 
HETATM    3  C   UNL     1      41.687 -13.977   1.218  1.00  0.00     0.039 A 
HETATM    4  C   UNL     1      41.290 -13.869  -0.114  1.00  0.00     0.068 A 
HETATM    5  C   UNL     1      41.149 -15.032  -0.871  1.00  0.00     0.039 A 
HETATM    6  C   UNL     1      41.396 -16.289  -0.305  1.00  0.00     0.032 A 
ENDROOT
BRANCH   1   7
HETATM    7  N   UNL     1      42.032 -17.692   1.539  1.00  0.00    -0.309 N 
HETATM    8  C   UNL     1      43.251 -18.314   1.691  1.00  0.00     0.321 C 
HETATM    9  N   UNL     1      43.102 -19.611   2.112  1.00  0.00    -0.332 N 
HETATM   10  O   UNL     1      44.354 -17.819   1.500  1.00  0.00    -0.247 OA
HETATM   11  H   UNL     1      42.213 -20.077   2.002  1.00  0.00     0.165 HD
HETATM   12  H   UNL     1      41.240 -18.187   1.920  1.00  0.00     0.170 HD
BRANCH   9  13
HETATM   13  C   UNL     1      44.254 -20.494   2.271  1.00  0.00     0.155 C 
HETATM   14  C   UNL     1      44.076 -21.785   1.470  1.00  0.00     0.041 C 
BRANCH  13  15
HETATM   15  C   UNL     1      44.411 -20.796   3.737  1.00  0.00     0.169 A 
HETATM   16  N   UNL     1      44.287 -19.870   4.699  1.00  0.00    -0.156 NA
HETATM   17  N   UNL     1      44.516 -20.594   5.805  1.00  0.00    -0.270 N 
HETATM   18  H   UNL     1      44.484 -20.141   6.712  1.00  0.00     0.190 HD
HETATM   19  C   UNL     1      44.769 -21.894   5.500  1.00  0.00     0.227 A 
HETATM   20  N   UNL     1      44.712 -22.062   4.200  1.00  0.00    -0.223 NA
ENDBRANCH  13  15
ENDBRANCH   9  13
ENDBRANCH   1   7
BRANCH   4  21
HETATM   21  O   UNL     1      41.019 -12.705  -0.779  1.00  0.00    -0.351 OA
BRANCH  21  22
HETATM   22  C   UNL     1      41.825 -11.572  -0.443  1.00  0.00     0.180 C 
BRANCH  22  23
HETATM   23  C   UNL     1      43.031 -11.509  -1.398  1.00  0.00     0.010 C 
HETATM   24  C   UNL     1      42.620 -11.860  -2.836  1.00  0.00     0.007 C 
HETATM   25  C   UNL     1      41.809 -10.754  -3.510  1.00  0.00     0.000 C 
HETATM   26  C   UNL     1      42.535  -9.413  -3.459  1.00  0.00     0.000 C 
HETATM   27  C   UNL     1      42.941  -9.035  -2.038  1.00  0.00     0.000 C 
HETATM   28  C   UNL     1      43.744 -10.146  -1.364  1.00  0.00     0.007 C 
ENDBRANCH  22  23
ENDBRANCH  21  22
ENDBRANCH   4  21
TORSDOF 6
ENDMDL
MODEL 5
REMARK VINA RESULT:      -7.2      4.961      7.689
REMARK  6 active torsions:
REMARK  status: ('A' for Active; 'I' for Inactive)
REMARK    1  A    between atoms: C_2  and  N_3 
REMARK    2  A    between atoms: C_2  and  C_21 
REMARK       I    between atoms: N_3  and  C_4 
REMARK       I    between atoms: C_4  and  N_5 
REMARK    3  A    between atoms: N_5  and  C_6 
REMARK    4  A    between atoms: C_9  and  O_10 
REMARK    5  A    between atoms: O_10  and  C_11 
REMARK    6  A    between atoms: C_11  and  C_12 
ROOT
HETATM    1  C   UNL     1      42.236 -13.235   3.521  1.00  0.00     0.036 A 
HETATM    2  C   UNL     1      41.255 -13.633   2.612  1.00  0.00     0.032 A 
HETATM    3  C   UNL     1      41.444 -14.757   1.796  1.00  0.00     0.039 A 
HETATM    4  C   UNL     1      42.622 -15.496   1.876  1.00  0.00     0.068 A 
HETATM    5  C   UNL     1      43.609 -15.098   2.778  1.00  0.00     0.039 A 
HETATM    6  C   UNL     1      43.420 -13.976   3.595  1.00  0.00     0.032 A 
ENDROOT
BRANCH   1   7
HETATM    7  N   UNL     1      42.113 -12.111   4.362  1.00  0.00    -0.309 N 
HETATM    8  C   UNL     1      41.304 -11.980   5.468  1.00  0.00     0.321 C 
HETATM    9  N   UNL     1      41.360 -10.708   5.981  1.00  0.00    -0.332 N 
HETATM   10  O   UNL     1      40.613 -12.852   5.977  1.00  0.00    -0.247 OA
HETATM   11  H   UNL     1      41.705  -9.950   5.410  1.00  0.00     0.165 HD
HETATM   12  H   UNL     1      42.752 -11.348   4.197  1.00  0.00     0.170 HD
BRANCH   9  13
HETATM   13  C   UNL     1      40.528 -10.309   7.112  1.00  0.00     0.155 C 
HETATM   14  C   UNL     1      40.127  -8.836   7.011  1.00  0.00     0.041 C 
BRANCH  13  15
HETATM   15  C   UNL     1      41.306 -10.562   8.375  1.00  0.00     0.169 A 
HETATM   16  N   UNL     1      40.733 -10.883   9.544  1.00  0.00    -0.156 NA
HETATM   17  N   UNL     1      41.800 -10.996  10.349  1.00  0.00    -0.270 N 
HETATM   18  H   UNL     1      41.664 -11.241  11.324  1.00  0.00     0.190 HD
HETATM   19  C   UNL     1      42.954 -10.744   9.677  1.00  0.00     0.227 A 
HETATM   20  N   UNL     1      42.683 -10.466   8.424  1.00  0.00    -0.223 NA
ENDBRANCH  13  15
ENDBRANCH   9  13
ENDBRANCH   1   7
BRANCH   4  21
HETATM   21  O   UNL     1      42.925 -16.607   1.138  1.00  0.00    -0.351 OA
BRANCH  21  22
HETATM   22  C   UNL     1      43.791 -17.567   1.750  1.00  0.00     0.180 C 
BRANCH  22  23
HETATM   23  C   UNL     1      42.941 -18.677   2.395  1.00  0.00     0.010 C 
HETATM   24  C   UNL     1      43.455 -20.070   1.999  1.00  0.00     0.007 C 
HETATM   25  C   UNL     1      44.769 -20.437   2.687  1.00  0.00     0.000 C 
HETATM   26  C   UNL     1      44.668 -20.301   4.203  1.00  0.00     0.000 C 
HETATM   27  C   UNL     1      44.173 -18.920   4.622  1.00  0.00     0.000 C 
HETATM   28  C   UNL     1      42.864 -18.551   3.926  1.00  0.00     0.007 C 
ENDBRANCH  22  23
ENDBRANCH  21  22
ENDBRANCH   4  21
TORSDOF 6
ENDMDL
MODEL 6
REMARK VINA RESULT:      -7.2      6.102      8.451
REMARK  6 active torsions:
REMARK  status: ('A' for Active; 'I' for Inactive)
REMARK    1  A    between atoms: C_2  and  N_3 
REMARK    2  A    between atoms: C_2  and  C_21 
REMARK       I    between atoms: N_3  and  C_4 
REMARK       I    between atoms: C_4  and  N_5 
REMARK    3  A    between atoms: N_5  and  C_6 
REMARK    4  A    between atoms: C_9  and  O_10 
REMARK    5  A    between atoms: O_10  and  C_11 
REMARK    6  A    between atoms: C_11  and  C_12 
ROOT
HETATM    1  C   UNL     1      41.131 -13.793   5.557  1.00  0.00     0.036 A 
HETATM    2  C   UNL     1      41.522 -13.457   4.261  1.00  0.00     0.032 A 
HETATM    3  C   UNL     1      41.609 -14.435   3.260  1.00  0.00     0.039 A 
HETATM    4  C   UNL     1      41.311 -15.765   3.546  1.00  0.00     0.068 A 
HETATM    5  C   UNL     1      40.927 -16.107   4.843  1.00  0.00     0.039 A 
HETATM    6  C   UNL     1      40.838 -15.131   5.843  1.00  0.00     0.032 A 
ENDROOT
BRANCH   1   7
HETATM    7  N   UNL     1      41.033 -12.861   6.610  1.00  0.00    -0.309 N 
HETATM    8  C   UNL     1      39.938 -12.100   6.953  1.00  0.00     0.321 C 
HETATM    9  N   UNL     1      40.237 -11.223   7.965  1.00  0.00    -0.332 N 
HETATM   10  O   UNL     1      38.820 -12.163   6.461  1.00  0.00    -0.247 OA
HETATM   11  H   UNL     1      41.200 -10.993   8.165  1.00  0.00     0.165 HD
HETATM   12  H   UNL     1      41.816 -12.809   7.244  1.00  0.00     0.170 HD
BRANCH   9  13
HETATM   13  C   UNL     1      39.253 -10.258   8.447  1.00  0.00     0.155 C 
HETATM   14  C   UNL     1      39.530  -8.860   7.890  1.00  0.00     0.041 C 
BRANCH  13  15
HETATM   15  C   UNL     1      39.305 -10.251   9.951  1.00  0.00     0.169 A 
HETATM   16  N   UNL     1      38.452  -9.554  10.716  1.00  0.00    -0.156 NA
HETATM   17  N   UNL     1      38.890  -9.847  11.949  1.00  0.00    -0.270 N 
HETATM   18  H   UNL     1      38.418  -9.449  12.753  1.00  0.00     0.190 HD
HETATM   19  C   UNL     1      39.963 -10.680  11.906  1.00  0.00     0.227 A 
HETATM   20  N   UNL     1      40.256 -10.959  10.658  1.00  0.00    -0.223 NA
ENDBRANCH  13  15
ENDBRANCH   9  13
ENDBRANCH   1   7
BRANCH   4  21
HETATM   21  O   UNL     1      41.358 -16.807   2.661  1.00  0.00    -0.351 OA
BRANCH  21  22
HETATM   22  C   UNL     1      41.956 -18.019   3.129  1.00  0.00     0.180 C 
BRANCH  22  23
HETATM   23  C   UNL     1      43.488 -17.889   3.053  1.00  0.00     0.010 C 
HETATM   24  C   UNL     1      44.135 -18.141   4.424  1.00  0.00     0.007 C 
HETATM   25  C   UNL     1      44.107 -19.613   4.835  1.00  0.00     0.000 C 
HETATM   26  C   UNL     1      44.725 -20.508   3.764  1.00  0.00     0.000 C 
HETATM   27  C   UNL     1      44.088 -20.286   2.395  1.00  0.00     0.000 C 
HETATM   28  C   UNL     1      44.110 -18.813   1.992  1.00  0.00     0.007 C 
ENDBRANCH  22  23
ENDBRANCH  21  22
ENDBRANCH   4  21
TORSDOF 6
ENDMDL
MODEL 7
REMARK VINA RESULT:      -7.1      1.722      2.053
REMARK  6 active torsions:
REMARK  status: ('A' for Active; 'I' for Inactive)
REMARK    1  A    between atoms: C_2  and  N_3 
REMARK    2  A    between atoms: C_2  and  C_21 
REMARK       I    between atoms: N_3  and  C_4 
REMARK       I    between atoms: C_4  and  N_5 
REMARK    3  A    between atoms: N_5  and  C_6 
REMARK    4  A    between atoms: C_9  and  O_10 
REMARK    5  A    between atoms: O_10  and  C_11 
REMARK    6  A    between atoms: C_11  and  C_12 
ROOT
HETATM    1  C   UNL     1      39.655 -15.191   1.810  1.00  0.00     0.036 A 
HETATM    2  C   UNL     1      39.911 -14.369   2.908  1.00  0.00     0.032 A 
HETATM    3  C   UNL     1      40.631 -14.848   4.011  1.00  0.00     0.039 A 
HETATM    4  C   UNL     1      41.102 -16.160   4.032  1.00  0.00     0.068 A 
HETATM    5  C   UNL     1      40.842 -16.986   2.939  1.00  0.00     0.039 A 
HETATM    6  C   UNL     1      40.123 -16.509   1.836  1.00  0.00     0.032 A 
ENDROOT
BRANCH   1   7
HETATM    7  N   UNL     1      38.930 -14.775   0.676  1.00  0.00    -0.309 N 
HETATM    8  C   UNL     1      39.424 -14.515  -0.583  1.00  0.00     0.321 C 
HETATM    9  N   UNL     1      38.447 -14.027  -1.413  1.00  0.00    -0.332 N 
HETATM   10  O   UNL     1      40.572 -14.689  -0.969  1.00  0.00    -0.247 OA
HETATM   11  H   UNL     1      37.600 -13.640  -1.021  1.00  0.00     0.165 HD
HETATM   12  H   UNL     1      37.925 -14.753   0.762  1.00  0.00     0.170 HD
BRANCH   9  13
HETATM   13  C   UNL     1      38.750 -13.608  -2.778  1.00  0.00     0.155 C 
HETATM   14  C   UNL     1      39.283 -12.174  -2.811  1.00  0.00     0.041 C 
BRANCH  13  15
HETATM   15  C   UNL     1      37.490 -13.725  -3.593  1.00  0.00     0.169 A 
HETATM   16  N   UNL     1      37.013 -14.892  -4.050  1.00  0.00    -0.156 NA
HETATM   17  N   UNL     1      35.912 -14.497  -4.708  1.00  0.00    -0.270 N 
HETATM   18  H   UNL     1      35.332 -15.189  -5.168  1.00  0.00     0.190 HD
HETATM   19  C   UNL     1      35.755 -13.148  -4.642  1.00  0.00     0.227 A 
HETATM   20  N   UNL     1      36.734 -12.624  -3.944  1.00  0.00    -0.223 NA
ENDBRANCH  13  15
ENDBRANCH   9  13
ENDBRANCH   1   7
BRANCH   4  21
HETATM   21  O   UNL     1      41.813 -16.742   5.045  1.00  0.00    -0.351 OA
BRANCH  21  22
HETATM   22  C   UNL     1      42.325 -18.054   4.796  1.00  0.00     0.180 C 
BRANCH  22  23
HETATM   23  C   UNL     1      43.815 -17.954   4.422  1.00  0.00     0.010 C 
HETATM   24  C   UNL     1      44.682 -18.798   5.370  1.00  0.00     0.007 C 
HETATM   25  C   UNL     1      44.543 -20.300   5.124  1.00  0.00     0.000 C 
HETATM   26  C   UNL     1      44.815 -20.659   3.666  1.00  0.00     0.000 C 
HETATM   27  C   UNL     1      43.954 -19.844   2.706  1.00  0.00     0.000 C 
HETATM   28  C   UNL     1      44.088 -18.344   2.959  1.00  0.00     0.007 C 
ENDBRANCH  22  23
ENDBRANCH  21  22
ENDBRANCH   4  21
TORSDOF 6
ENDMDL
MODEL 8
REMARK VINA RESULT:      -7.1      5.380      7.545
REMARK  6 active torsions:
REMARK  status: ('A' for Active; 'I' for Inactive)
REMARK    1  A    between atoms: C_2  and  N_3 
REMARK    2  A    between atoms: C_2  and  C_21 
REMARK       I    between atoms: N_3  and  C_4 
REMARK       I    between atoms: C_4  and  N_5 
REMARK    3  A    between atoms: N_5  and  C_6 
REMARK    4  A    between atoms: C_9  and  O_10 
REMARK    5  A    between atoms: O_10  and  C_11 
REMARK    6  A    between atoms: C_11  and  C_12 
ROOT
HETATM    1  C   UNL     1      40.168 -14.495   5.611  1.00  0.00     0.036 A 
HETATM    2  C   UNL     1      40.103 -14.393   4.221  1.00  0.00     0.032 A 
HETATM    3  C   UNL     1      40.610 -15.411   3.400  1.00  0.00     0.039 A 
HETATM    4  C   UNL     1      41.193 -16.545   3.961  1.00  0.00     0.068 A 
HETATM    5  C   UNL     1      41.266 -16.648   5.351  1.00  0.00     0.039 A 
HETATM    6  C   UNL     1      40.760 -15.633   6.171  1.00  0.00     0.032 A 
ENDROOT
BRANCH   1   7
HETATM    7  N   UNL     1      39.688 -13.505   6.491  1.00  0.00    -0.309 N 
HETATM    8  C   UNL     1      40.342 -12.366   6.903  1.00  0.00     0.321 C 
HETATM    9  N   UNL     1      39.614 -11.686   7.847  1.00  0.00    -0.332 N 
HETATM   10  O   UNL     1      41.425 -11.959   6.505  1.00  0.00    -0.247 OA
HETATM   11  H   UNL     1      38.879 -12.159   8.353  1.00  0.00     0.165 HD
HETATM   12  H   UNL     1      38.726 -13.585   6.782  1.00  0.00     0.170 HD
BRANCH   9  13
HETATM   13  C   UNL     1      40.139 -10.484   8.489  1.00  0.00     0.155 C 
HETATM   14  C   UNL     1      39.719 -10.413   9.958  1.00  0.00     0.041 C 
BRANCH  13  15
HETATM   15  C   UNL     1      39.627  -9.289   7.731  1.00  0.00     0.169 A 
HETATM   16  N   UNL     1      40.341  -8.169   7.549  1.00  0.00    -0.156 NA
HETATM   17  N   UNL     1      39.485  -7.412   6.845  1.00  0.00    -0.270 N 
HETATM   18  H   UNL     1      39.766  -6.482   6.556  1.00  0.00     0.190 HD
HETATM   19  C   UNL     1      38.313  -8.064   6.629  1.00  0.00     0.227 A 
HETATM   20  N   UNL     1      38.363  -9.256   7.174  1.00  0.00    -0.223 NA
ENDBRANCH  13  15
ENDBRANCH   9  13
ENDBRANCH   1   7
BRANCH   4  21
HETATM   21  O   UNL     1      41.720 -17.601   3.272  1.00  0.00    -0.351 OA
BRANCH  21  22
HETATM   22  C   UNL     1      42.502 -18.532   4.025  1.00  0.00     0.180 C 
BRANCH  22  23
HETATM   23  C   UNL     1      43.908 -18.631   3.406  1.00  0.00     0.010 C 
HETATM   24  C   UNL     1      44.835 -19.500   4.270  1.00  0.00     0.007 C 
HETATM   25  C   UNL     1      44.505 -20.989   4.187  1.00  0.00     0.000 C 
HETATM   26  C   UNL     1      44.483 -21.480   2.742  1.00  0.00     0.000 C 
HETATM   27  C   UNL     1      43.557 -20.642   1.867  1.00  0.00     0.000 C 
HETATM   28  C   UNL     1      43.883 -19.153   1.959  1.00  0.00     0.007 C 
ENDBRANCH  22  23
ENDBRANCH  21  22
ENDBRANCH   4  21
TORSDOF 6
ENDMDL
MODEL 9
REMARK VINA RESULT:      -7.1      1.824      2.775
REMARK  6 active torsions:
REMARK  status: ('A' for Active; 'I' for Inactive)
REMARK    1  A    between atoms: C_2  and  N_3 
REMARK    2  A    between atoms: C_2  and  C_21 
REMARK       I    between atoms: N_3  and  C_4 
REMARK       I    between atoms: C_4  and  N_5 
REMARK    3  A    between atoms: N_5  and  C_6 
REMARK    4  A    between atoms: C_9  and  O_10 
REMARK    5  A    between atoms: O_10  and  C_11 
REMARK    6  A    between atoms: C_11  and  C_12 
ROOT
HETATM    1  C   UNL     1      41.818 -15.518   1.315  1.00  0.00     0.036 A 
HETATM    2  C   UNL     1      40.789 -16.344   1.768  1.00  0.00     0.032 A 
HETATM    3  C   UNL     1      40.572 -16.535   3.140  1.00  0.00     0.039 A 
HETATM    4  C   UNL     1      41.386 -15.904   4.078  1.00  0.00     0.068 A 
HETATM    5  C   UNL     1      42.421 -15.083   3.629  1.00  0.00     0.039 A 
HETATM    6  C   UNL     1      42.638 -14.891   2.259  1.00  0.00     0.032 A 
ENDROOT
BRANCH   1   7
HETATM    7  N   UNL     1      42.096 -15.293  -0.048  1.00  0.00    -0.309 N 
HETATM    8  C   UNL     1      41.293 -14.662  -0.971  1.00  0.00     0.321 C 
HETATM    9  N   UNL     1      41.838 -14.718  -2.229  1.00  0.00    -0.332 N 
HETATM   10  O   UNL     1      40.229 -14.099  -0.753  1.00  0.00    -0.247 OA
HETATM   11  H   UNL     1      42.552 -15.401  -2.439  1.00  0.00     0.165 HD
HETATM   12  H   UNL     1      43.022 -15.534  -0.368  1.00  0.00     0.170 HD
BRANCH   9  13
HETATM   13  C   UNL     1      41.129 -14.182  -3.388  1.00  0.00     0.155 C 
HETATM   14  C   UNL     1      40.765 -12.710  -3.181  1.00  0.00     0.041 C 
BRANCH  13  15
HETATM   15  C   UNL     1      39.891 -15.010  -3.602  1.00  0.00     0.169 A 
HETATM   16  N   UNL     1      39.908 -16.346  -3.717  1.00  0.00    -0.156 NA
HETATM   17  N   UNL     1      38.607 -16.620  -3.899  1.00  0.00    -0.270 N 
HETATM   18  H   UNL     1      38.313 -17.583  -4.017  1.00  0.00     0.190 HD
HETATM   19  C   UNL     1      37.859 -15.486  -3.897  1.00  0.00     0.227 A 
HETATM   20  N   UNL     1      38.636 -14.445  -3.711  1.00  0.00    -0.223 NA
ENDBRANCH  13  15
ENDBRANCH   9  13
ENDBRANCH   1   7
BRANCH   4  21
HETATM   21  O   UNL     1      41.276 -16.009   5.437  1.00  0.00    -0.351 OA
BRANCH  21  22
HETATM   22  C   UNL     1      42.495 -16.168   6.168  1.00  0.00     0.180 C 
BRANCH  22  23
HETATM   23  C   UNL     1      42.612 -17.627   6.646  1.00  0.00     0.010 C 
HETATM   24  C   UNL     1      42.592 -18.603   5.459  1.00  0.00     0.007 C 
HETATM   25  C   UNL     1      43.888 -18.583   4.650  1.00  0.00     0.000 C 
HETATM   26  C   UNL     1      45.108 -18.821   5.536  1.00  0.00     0.000 C 
HETATM   27  C   UNL     1      45.158 -17.853   6.713  1.00  0.00     0.000 C 
HETATM   28  C   UNL     1      43.858 -17.868   7.516  1.00  0.00     0.007 C 
ENDBRANCH  22  23
ENDBRANCH  21  22
ENDBRANCH   4  21
TORSDOF 6
ENDMDL
MODEL 10
REMARK VINA RESULT:      -6.9      1.825      2.638
REMARK  6 active torsions:
REMARK  status: ('A' for Active; 'I' for Inactive)
REMARK    1  A    between atoms: C_2  and  N_3 
REMARK    2  A    between atoms: C_2  and  C_21 
REMARK       I    between atoms: N_3  and  C_4 
REMARK       I    between atoms: C_4  and  N_5 
REMARK    3  A    between atoms: N_5  and  C_6 
REMARK    4  A    between atoms: C_9  and  O_10 
REMARK    5  A    between atoms: O_10  and  C_11 
REMARK    6  A    between atoms: C_11  and  C_12 
ROOT
HETATM    1  C   UNL     1      42.006 -15.790   0.821  1.00  0.00     0.036 A 
HETATM    2  C   UNL     1      41.187 -16.857   1.194  1.00  0.00     0.032 A 
HETATM    3  C   UNL     1      41.387 -17.525   2.411  1.00  0.00     0.039 A 
HETATM    4  C   UNL     1      42.413 -17.136   3.269  1.00  0.00     0.068 A 
HETATM    5  C   UNL     1      43.238 -16.075   2.896  1.00  0.00     0.039 A 
HETATM    6  C   UNL     1      43.039 -15.406   1.682  1.00  0.00     0.032 A 
ENDROOT
BRANCH   1   7
HETATM    7  N   UNL     1      41.866 -15.085  -0.390  1.00  0.00    -0.309 N 
HETATM    8  C   UNL     1      40.810 -14.289  -0.776  1.00  0.00     0.321 C 
HETATM    9  N   UNL     1      40.964 -13.847  -2.066  1.00  0.00    -0.332 N 
HETATM   10  O   UNL     1      39.843 -13.975  -0.096  1.00  0.00    -0.247 OA
HETATM   11  H   UNL     1      41.603 -14.320  -2.688  1.00  0.00     0.165 HD
HETATM   12  H   UNL     1      42.663 -15.082  -1.009  1.00  0.00     0.170 HD
BRANCH   9  13
HETATM   13  C   UNL     1      39.933 -13.047  -2.722  1.00  0.00     0.155 C 
HETATM   14  C   UNL     1      38.926 -13.936  -3.454  1.00  0.00     0.041 C 
BRANCH  13  15
HETATM   15  C   UNL     1      40.611 -12.109  -3.683  1.00  0.00     0.169 A 
HETATM   16  N   UNL     1      41.932 -12.117  -3.914  1.00  0.00    -0.156 NA
HETATM   17  N   UNL     1      42.058 -11.126  -4.810  1.00  0.00    -0.270 N 
HETATM   18  H   UNL     1      42.976 -10.901  -5.177  1.00  0.00     0.190 HD
HETATM   19  C   UNL     1      40.856 -10.556  -5.087  1.00  0.00     0.227 A 
HETATM   20  N   UNL     1      39.914 -11.151  -4.393  1.00  0.00    -0.223 NA
ENDBRANCH  13  15
ENDBRANCH   9  13
ENDBRANCH   1   7
BRANCH   4  21
HETATM   21  O   UNL     1      42.708 -17.705   4.478  1.00  0.00    -0.351 OA
BRANCH  21  22
HETATM   22  C   UNL     1      43.000 -19.105   4.472  1.00  0.00     0.180 C 
BRANCH  22  23
HETATM   23  C   UNL     1      44.373 -19.333   3.813  1.00  0.00     0.010 C 
HETATM   24  C   UNL     1      45.141 -20.467   4.510  1.00  0.00     0.007 C 
HETATM   25  C   UNL     1      44.570 -21.851   4.202  1.00  0.00     0.000 C 
HETATM   26  C   UNL     1      44.472 -22.097   2.699  1.00  0.00     0.000 C 
HETATM   27  C   UNL     1      43.700 -20.991   1.987  1.00  0.00     0.000 C 
HETATM   28  C   UNL     1      44.267 -19.609   2.303  1.00  0.00     0.007 C 
ENDBRANCH  22  23
ENDBRANCH  21  22
ENDBRANCH   4  21
TORSDOF 6
ENDMDL
