MODEL 1
REMARK VINA RESULT:      -7.6      0.000      0.000
REMARK  3 active torsions:
REMARK  status: ('A' for Active; 'I' for Inactive)
REMARK    1  A    between atoms: C_2  and  N_3 
REMARK       I    between atoms: N_3  and  C_4 
REMARK    2  A    between atoms: C_4  and  C_5 
REMARK    3  A    between atoms: C_5  and  C_6 
ROOT
HETATM    1  C   UNL     1      40.704 -14.320   1.981  1.00  0.00     0.286 C 
HETATM    2  N   UNL     1      41.665 -13.509   1.102  1.00  0.00    -0.056 N 
HETATM    3  H   UNL     1      41.747 -12.547   1.473  1.00  0.00     0.278 HD
HETATM    4  H   UNL     1      42.614 -13.900   1.188  1.00  0.00     0.278 HD
HETATM    5  C   UNL     1      41.215 -13.520  -0.329  1.00  0.00     0.209 C 
HETATM    6  C   UNL     1      41.267 -14.982  -0.821  1.00  0.00     0.115 C 
HETATM    7  N   UNL     1      40.479 -15.865   0.036  1.00  0.00    -0.353 N 
HETATM    8  C   UNL     1      40.433 -15.732   1.409  1.00  0.00     0.249 C 
HETATM    9  O   UNL     1      40.103 -16.680   2.111  1.00  0.00    -0.271 OA
HETATM   10  C   UNL     1      42.094 -12.608  -1.170  1.00  0.00     0.035 C 
HETATM   11  C   UNL     1      41.658 -12.680  -2.633  1.00  0.00     0.002 C 
HETATM   12  C   UNL     1      41.665 -14.116  -3.159  1.00  0.00     0.002 C 
HETATM   13  C   UNL     1      40.840 -15.065  -2.286  1.00  0.00     0.027 C 
HETATM   14  H   UNL     1      40.329 -16.827  -0.271  1.00  0.00     0.163 HD
ENDROOT
BRANCH   1  15
HETATM   15  C   UNL     1      41.246 -14.390   3.403  1.00  0.00     0.146 C 
BRANCH  15  16
HETATM   16  C   UNL     1      42.728 -14.174   3.336  1.00  0.00     0.224 C 
HETATM   17  N   UNL     1      43.647 -15.154   3.170  1.00  0.00    -0.327 N 
HETATM   18  H   UNL     1      44.587 -14.789   3.314  1.00  0.00     0.169 HD
HETATM   19  O   UNL     1      43.143 -13.058   3.683  1.00  0.00    -0.273 OA
BRANCH  17  20
HETATM   20  C   UNL     1      43.589 -16.539   2.940  1.00  0.00     0.034 A 
HETATM   21  C   UNL     1      43.424 -17.524   3.913  1.00  0.00     0.031 A 
HETATM   22  C   UNL     1      43.410 -18.880   3.556  1.00  0.00     0.026 A 
HETATM   23  C   UNL     1      43.551 -19.258   2.224  1.00  0.00     0.034 A 
HETATM   24  C   UNL     1      43.684 -18.288   1.240  1.00  0.00     0.026 A 
HETATM   25 CL   UNL     1      43.546 -20.922   1.797  1.00  0.00    -0.084 Cl
HETATM   26  C   UNL     1      43.690 -16.936   1.597  1.00  0.00     0.031 A 
ENDBRANCH  17  20
ENDBRANCH  15  16
ENDBRANCH   1  15
TORSDOF 3
ENDMDL
MODEL 2
REMARK VINA RESULT:      -7.2      2.861      6.298
REMARK  3 active torsions:
REMARK  status: ('A' for Active; 'I' for Inactive)
REMARK    1  A    between atoms: C_2  and  N_3 
REMARK       I    between atoms: N_3  and  C_4 
REMARK    2  A    between atoms: C_4  and  C_5 
REMARK    3  A    between atoms: C_5  and  C_6 
ROOT
HETATM    1  C   UNL     1      43.407 -17.544   4.592  1.00  0.00     0.286 C 
HETATM    2  N   UNL     1      43.600 -18.116   3.181  1.00  0.00    -0.056 N 
HETATM    3  H   UNL     1      42.895 -17.709   2.543  1.00  0.00     0.278 HD
HETATM    4  H   UNL     1      44.504 -17.793   2.806  1.00  0.00     0.278 HD
HETATM    5  C   UNL     1      43.538 -19.614   3.201  1.00  0.00     0.209 C 
HETATM    6  C   UNL     1      44.716 -20.117   4.063  1.00  0.00     0.115 C 
HETATM    7  N   UNL     1      44.695 -19.523   5.399  1.00  0.00    -0.353 N 
HETATM    8  C   UNL     1      44.346 -18.207   5.628  1.00  0.00     0.249 C 
HETATM    9  O   UNL     1      44.701 -17.645   6.656  1.00  0.00    -0.271 OA
HETATM   10  C   UNL     1      43.597 -20.167   1.785  1.00  0.00     0.035 C 
HETATM   11  C   UNL     1      43.595 -21.695   1.830  1.00  0.00     0.002 C 
HETATM   12  C   UNL     1      44.729 -22.241   2.699  1.00  0.00     0.002 C 
HETATM   13  C   UNL     1      44.728 -21.644   4.109  1.00  0.00     0.027 C 
HETATM   14  H   UNL     1      45.343 -19.885   6.098  1.00  0.00     0.163 HD
ENDROOT
BRANCH   1  15
HETATM   15  C   UNL     1      43.591 -16.032   4.562  1.00  0.00     0.146 C 
BRANCH  15  16
HETATM   16  C   UNL     1      42.252 -15.406   4.814  1.00  0.00     0.224 C 
HETATM   17  N   UNL     1      41.341 -15.112   3.857  1.00  0.00    -0.327 N 
HETATM   18  H   UNL     1      40.584 -14.553   4.244  1.00  0.00     0.169 HD
HETATM   19  O   UNL     1      42.068 -14.922   5.940  1.00  0.00    -0.273 OA
BRANCH  17  20
HETATM   20  C   UNL     1      41.259 -15.324   2.469  1.00  0.00     0.034 A 
HETATM   21  C   UNL     1      41.009 -16.543   1.841  1.00  0.00     0.031 A 
HETATM   22  C   UNL     1      40.980 -16.628   0.442  1.00  0.00     0.026 A 
HETATM   23  C   UNL     1      41.190 -15.493  -0.336  1.00  0.00     0.034 A 
HETATM   24  C   UNL     1      41.408 -14.266   0.274  1.00  0.00     0.026 A 
HETATM   25 CL   UNL     1      41.166 -15.609  -2.050  1.00  0.00    -0.084 Cl
HETATM   26  C   UNL     1      41.429 -14.182   1.670  1.00  0.00     0.031 A 
ENDBRANCH  17  20
ENDBRANCH  15  16
ENDBRANCH   1  15
TORSDOF 3
ENDMDL
MODEL 3
REMARK VINA RESULT:      -7.2      3.472      4.877
REMARK  3 active torsions:
REMARK  status: ('A' for Active; 'I' for Inactive)
REMARK    1  A    between atoms: C_2  and  N_3 
REMARK       I    between atoms: N_3  and  C_4 
REMARK    2  A    between atoms: C_4  and  C_5 
REMARK    3  A    between atoms: C_5  and  C_6 
ROOT
HETATM    1  C   UNL     1      41.316 -15.747   4.245  1.00  0.00     0.286 C 
HETATM    2  N   UNL     1      40.656 -14.568   3.517  1.00  0.00    -0.056 N 
HETATM    3  H   UNL     1      41.120 -14.421   2.604  1.00  0.00     0.278 HD
HETATM    4  H   UNL     1      39.686 -14.819   3.275  1.00  0.00     0.278 HD
HETATM    5  C   UNL     1      40.688 -13.333   4.366  1.00  0.00     0.209 C 
HETATM    6  C   UNL     1      39.850 -13.617   5.632  1.00  0.00     0.115 C 
HETATM    7  N   UNL     1      40.324 -14.808   6.332  1.00  0.00    -0.353 N 
HETATM    8  C   UNL     1      40.757 -15.942   5.674  1.00  0.00     0.249 C 
HETATM    9  O   UNL     1      40.773 -17.022   6.251  1.00  0.00    -0.271 OA
HETATM   10  C   UNL     1      40.153 -12.140   3.590  1.00  0.00     0.035 C 
HETATM   11  C   UNL     1      40.137 -10.905   4.491  1.00  0.00     0.002 C 
HETATM   12  C   UNL     1      39.342 -11.148   5.775  1.00  0.00     0.002 C 
HETATM   13  C   UNL     1      39.820 -12.386   6.537  1.00  0.00     0.027 C 
HETATM   14  H   UNL     1      39.935 -15.013   7.253  1.00  0.00     0.163 HD
ENDROOT
BRANCH   1  15
HETATM   15  C   UNL     1      41.166 -17.013   3.411  1.00  0.00     0.146 C 
BRANCH  15  16
HETATM   16  C   UNL     1      42.212 -16.978   2.337  1.00  0.00     0.224 C 
HETATM   17  N   UNL     1      43.307 -17.772   2.295  1.00  0.00    -0.327 N 
HETATM   18  H   UNL     1      43.946 -17.460   1.567  1.00  0.00     0.169 HD
HETATM   19  O   UNL     1      42.185 -16.006   1.568  1.00  0.00    -0.273 OA
BRANCH  17  20
HETATM   20  C   UNL     1      43.784 -18.843   3.071  1.00  0.00     0.034 A 
HETATM   21  C   UNL     1      44.086 -18.798   4.431  1.00  0.00     0.031 A 
HETATM   22  C   UNL     1      44.585 -19.933   5.086  1.00  0.00     0.026 A 
HETATM   23  C   UNL     1      44.775 -21.122   4.387  1.00  0.00     0.034 A 
HETATM   24  C   UNL     1      44.449 -21.192   3.040  1.00  0.00     0.026 A 
HETATM   25 CL   UNL     1      45.399 -22.503   5.194  1.00  0.00    -0.084 Cl
HETATM   26  C   UNL     1      43.945 -20.061   2.390  1.00  0.00     0.031 A 
ENDBRANCH  17  20
ENDBRANCH  15  16
ENDBRANCH   1  15
TORSDOF 3
ENDMDL
MODEL 4
REMARK VINA RESULT:      -7.2      2.198      3.046
REMARK  3 active torsions:
REMARK  status: ('A' for Active; 'I' for Inactive)
REMARK    1  A    between atoms: C_2  and  N_3 
REMARK       I    between atoms: N_3  and  C_4 
REMARK    2  A    between atoms: C_4  and  C_5 
REMARK    3  A    between atoms: C_5  and  C_6 
ROOT
HETATM    1  C   UNL     1      41.493 -15.658   4.064  1.00  0.00     0.286 C 
HETATM    2  N   UNL     1      41.440 -16.297   2.670  1.00  0.00    -0.056 N 
HETATM    3  H   UNL     1      42.319 -16.814   2.492  1.00  0.00     0.278 HD
HETATM    4  H   UNL     1      40.708 -17.022   2.657  1.00  0.00     0.278 HD
HETATM    5  C   UNL     1      41.179 -15.260   1.618  1.00  0.00     0.209 C 
HETATM    6  C   UNL     1      39.786 -14.655   1.897  1.00  0.00     0.115 C 
HETATM    7  N   UNL     1      39.692 -14.131   3.258  1.00  0.00    -0.353 N 
HETATM    8  C   UNL     1      40.264 -14.760   4.346  1.00  0.00     0.249 C 
HETATM    9  O   UNL     1      39.856 -14.530   5.477  1.00  0.00    -0.271 OA
HETATM   10  C   UNL     1      41.260 -15.877   0.231  1.00  0.00     0.035 C 
HETATM   11  C   UNL     1      40.931 -14.820  -0.823  1.00  0.00     0.002 C 
HETATM   12  C   UNL     1      39.570 -14.169  -0.571  1.00  0.00     0.002 C 
HETATM   13  C   UNL     1      39.443 -13.602   0.845  1.00  0.00     0.027 C 
HETATM   14  H   UNL     1      38.866 -13.586   3.509  1.00  0.00     0.163 HD
ENDROOT
BRANCH   1  15
HETATM   15  C   UNL     1      41.641 -16.745   5.121  1.00  0.00     0.146 C 
BRANCH  15  16
HETATM   16  C   UNL     1      43.026 -16.642   5.687  1.00  0.00     0.224 C 
HETATM   17  N   UNL     1      44.025 -17.525   5.454  1.00  0.00    -0.327 N 
HETATM   18  H   UNL     1      44.817 -17.337   6.066  1.00  0.00     0.169 HD
HETATM   19  O   UNL     1      43.192 -15.825   6.604  1.00  0.00    -0.273 OA
BRANCH  17  20
HETATM   20  C   UNL     1      44.172 -18.665   4.644  1.00  0.00     0.034 A 
HETATM   21  C   UNL     1      44.544 -19.936   5.080  1.00  0.00     0.031 A 
HETATM   22  C   UNL     1      44.684 -20.988   4.163  1.00  0.00     0.026 A 
HETATM   23  C   UNL     1      44.443 -20.777   2.809  1.00  0.00     0.034 A 
HETATM   24  C   UNL     1      44.042 -19.526   2.364  1.00  0.00     0.026 A 
HETATM   25 CL   UNL     1      44.630 -22.068   1.692  1.00  0.00    -0.084 Cl
HETATM   26  C   UNL     1      43.895 -18.480   3.281  1.00  0.00     0.031 A 
ENDBRANCH  17  20
ENDBRANCH  15  16
ENDBRANCH   1  15
TORSDOF 3
ENDMDL
MODEL 5
REMARK VINA RESULT:      -7.1      1.682      2.296
REMARK  3 active torsions:
REMARK  status: ('A' for Active; 'I' for Inactive)
REMARK    1  A    between atoms: C_2  and  N_3 
REMARK       I    between atoms: N_3  and  C_4 
REMARK    2  A    between atoms: C_4  and  C_5 
REMARK    3  A    between atoms: C_5  and  C_6 
ROOT
HETATM    1  C   UNL     1      41.382 -15.227   0.833  1.00  0.00     0.286 C 
HETATM    2  N   UNL     1      41.766 -15.262  -0.653  1.00  0.00    -0.056 N 
HETATM    3  H   UNL     1      42.796 -15.296  -0.744  1.00  0.00     0.278 HD
HETATM    4  H   UNL     1      41.441 -16.148  -1.066  1.00  0.00     0.278 HD
HETATM    5  C   UNL     1      41.179 -14.090  -1.381  1.00  0.00     0.209 C 
HETATM    6  C   UNL     1      39.642 -14.216  -1.303  1.00  0.00     0.115 C 
HETATM    7  N   UNL     1      39.183 -14.321   0.081  1.00  0.00    -0.353 N 
HETATM    8  C   UNL     1      39.860 -15.044   1.043  1.00  0.00     0.249 C 
HETATM    9  O   UNL     1      39.278 -15.430   2.048  1.00  0.00    -0.271 OA
HETATM   10  C   UNL     1      41.671 -14.058  -2.820  1.00  0.00     0.035 C 
HETATM   11  C   UNL     1      41.015 -12.894  -3.562  1.00  0.00     0.002 C 
HETATM   12  C   UNL     1      39.488 -12.959  -3.487  1.00  0.00     0.002 C 
HETATM   13  C   UNL     1      38.975 -13.061  -2.048  1.00  0.00     0.027 C 
HETATM   14  H   UNL     1      38.180 -14.270   0.261  1.00  0.00     0.163 HD
ENDROOT
BRANCH   1  15
HETATM   15  C   UNL     1      41.891 -16.486   1.524  1.00  0.00     0.146 C 
BRANCH  15  16
HETATM   16  C   UNL     1      42.924 -16.068   2.527  1.00  0.00     0.224 C 
HETATM   17  N   UNL     1      43.727 -16.917   3.211  1.00  0.00    -0.327 N 
HETATM   18  H   UNL     1      44.230 -16.419   3.943  1.00  0.00     0.169 HD
HETATM   19  O   UNL     1      42.877 -14.893   2.916  1.00  0.00    -0.273 OA
BRANCH  17  20
HETATM   20  C   UNL     1      43.945 -18.306   3.194  1.00  0.00     0.034 A 
HETATM   21  C   UNL     1      43.847 -19.135   2.078  1.00  0.00     0.031 A 
HETATM   22  C   UNL     1      44.062 -20.516   2.200  1.00  0.00     0.026 A 
HETATM   23  C   UNL     1      44.386 -21.072   3.434  1.00  0.00     0.034 A 
HETATM   24  C   UNL     1      44.517 -20.255   4.548  1.00  0.00     0.026 A 
HETATM   25 CL   UNL     1      44.634 -22.766   3.575  1.00  0.00    -0.084 Cl
HETATM   26  C   UNL     1      44.311 -18.877   4.423  1.00  0.00     0.031 A 
ENDBRANCH  17  20
ENDBRANCH  15  16
ENDBRANCH   1  15
TORSDOF 3
ENDMDL
MODEL 6
REMARK VINA RESULT:      -7.0      2.100      2.811
REMARK  3 active torsions:
REMARK  status: ('A' for Active; 'I' for Inactive)
REMARK    1  A    between atoms: C_2  and  N_3 
REMARK       I    between atoms: N_3  and  C_4 
REMARK    2  A    between atoms: C_4  and  C_5 
REMARK    3  A    between atoms: C_5  and  C_6 
ROOT
HETATM    1  C   UNL     1      41.207 -15.156   1.945  1.00  0.00     0.286 C 
HETATM    2  N   UNL     1      40.637 -13.743   2.134  1.00  0.00    -0.056 N 
HETATM    3  H   UNL     1      40.605 -13.514   3.143  1.00  0.00     0.278 HD
HETATM    4  H   UNL     1      41.293 -13.057   1.734  1.00  0.00     0.278 HD
HETATM    5  C   UNL     1      39.287 -13.624   1.491  1.00  0.00     0.209 C 
HETATM    6  C   UNL     1      39.474 -13.843  -0.026  1.00  0.00     0.115 C 
HETATM    7  N   UNL     1      40.134 -15.117  -0.307  1.00  0.00    -0.353 N 
HETATM    8  C   UNL     1      41.163 -15.614   0.468  1.00  0.00     0.249 C 
HETATM    9  O   UNL     1      41.933 -16.448   0.009  1.00  0.00    -0.271 OA
HETATM   10  C   UNL     1      38.671 -12.267   1.795  1.00  0.00     0.035 C 
HETATM   11  C   UNL     1      37.325 -12.142   1.081  1.00  0.00     0.002 C 
HETATM   12  C   UNL     1      37.454 -12.381  -0.424  1.00  0.00     0.002 C 
HETATM   13  C   UNL     1      38.136 -13.713  -0.751  1.00  0.00     0.027 C 
HETATM   14  H   UNL     1      40.186 -15.429  -1.276  1.00  0.00     0.163 HD
ENDROOT
BRANCH   1  15
HETATM   15  C   UNL     1      42.624 -15.215   2.504  1.00  0.00     0.146 C 
BRANCH  15  16
HETATM   16  C   UNL     1      42.536 -15.713   3.915  1.00  0.00     0.224 C 
HETATM   17  N   UNL     1      42.744 -16.994   4.299  1.00  0.00    -0.327 N 
HETATM   18  H   UNL     1      42.475 -17.123   5.272  1.00  0.00     0.169 HD
HETATM   19  O   UNL     1      42.016 -14.950   4.742  1.00  0.00    -0.273 OA
BRANCH  17  20
HETATM   20  C   UNL     1      43.152 -18.171   3.646  1.00  0.00     0.034 A 
HETATM   21  C   UNL     1      42.642 -18.658   2.443  1.00  0.00     0.031 A 
HETATM   22  C   UNL     1      43.116 -19.864   1.909  1.00  0.00     0.026 A 
HETATM   23  C   UNL     1      44.108 -20.584   2.567  1.00  0.00     0.034 A 
HETATM   24  C   UNL     1      44.649 -20.097   3.748  1.00  0.00     0.026 A 
HETATM   25 CL   UNL     1      44.673 -22.068   1.911  1.00  0.00    -0.084 Cl
HETATM   26  C   UNL     1      44.180 -18.889   4.277  1.00  0.00     0.031 A 
ENDBRANCH  17  20
ENDBRANCH  15  16
ENDBRANCH   1  15
TORSDOF 3
ENDMDL
MODEL 7
REMARK VINA RESULT:      -7.0      2.827      6.114
REMARK  3 active torsions:
REMARK  status: ('A' for Active; 'I' for Inactive)
REMARK    1  A    between atoms: C_2  and  N_3 
REMARK       I    between atoms: N_3  and  C_4 
REMARK    2  A    between atoms: C_4  and  C_5 
REMARK    3  A    between atoms: C_5  and  C_6 
ROOT
HETATM    1  C   UNL     1      43.150 -14.934   4.652  1.00  0.00     0.286 C 
HETATM    2  N   UNL     1      43.955 -16.241   4.643  1.00  0.00    -0.056 N 
HETATM    3  H   UNL     1      43.876 -16.690   3.714  1.00  0.00     0.278 HD
HETATM    4  H   UNL     1      44.957 -16.023   4.738  1.00  0.00     0.278 HD
HETATM    5  C   UNL     1      43.503 -17.153   5.744  1.00  0.00     0.209 C 
HETATM    6  C   UNL     1      43.797 -16.444   7.084  1.00  0.00     0.115 C 
HETATM    7  N   UNL     1      43.176 -15.123   7.140  1.00  0.00    -0.353 N 
HETATM    8  C   UNL     1      43.118 -14.275   6.052  1.00  0.00     0.249 C 
HETATM    9  O   UNL     1      42.957 -13.072   6.215  1.00  0.00    -0.271 OA
HETATM   10  C   UNL     1      44.210 -18.495   5.647  1.00  0.00     0.035 C 
HETATM   11  C   UNL     1      43.782 -19.387   6.813  1.00  0.00     0.002 C 
HETATM   12  C   UNL     1      44.027 -18.715   8.164  1.00  0.00     0.002 C 
HETATM   13  C   UNL     1      43.381 -17.330   8.257  1.00  0.00     0.027 C 
HETATM   14  H   UNL     1      43.188 -14.621   8.028  1.00  0.00     0.163 HD
ENDROOT
BRANCH   1  15
HETATM   15  C   UNL     1      43.707 -13.982   3.601  1.00  0.00     0.146 C 
BRANCH  15  16
HETATM   16  C   UNL     1      42.710 -13.906   2.483  1.00  0.00     0.224 C 
HETATM   17  N   UNL     1      42.289 -14.961   1.748  1.00  0.00    -0.327 N 
HETATM   18  H   UNL     1      41.740 -14.644   0.952  1.00  0.00     0.169 HD
HETATM   19  O   UNL     1      42.433 -12.773   2.063  1.00  0.00    -0.273 OA
BRANCH  17  20
HETATM   20  C   UNL     1      42.512 -16.349   1.787  1.00  0.00     0.034 A 
HETATM   21  C   UNL     1      41.583 -17.316   2.167  1.00  0.00     0.031 A 
HETATM   22  C   UNL     1      41.940 -18.672   2.191  1.00  0.00     0.026 A 
HETATM   23  C   UNL     1      43.223 -19.069   1.827  1.00  0.00     0.034 A 
HETATM   24  C   UNL     1      44.150 -18.121   1.417  1.00  0.00     0.026 A 
HETATM   25 CL   UNL     1      43.655 -20.731   1.873  1.00  0.00    -0.084 Cl
HETATM   26  C   UNL     1      43.790 -16.770   1.385  1.00  0.00     0.031 A 
ENDBRANCH  17  20
ENDBRANCH  15  16
ENDBRANCH   1  15
TORSDOF 3
ENDMDL
MODEL 8
REMARK VINA RESULT:      -6.8      3.082      4.611
REMARK  3 active torsions:
REMARK  status: ('A' for Active; 'I' for Inactive)
REMARK    1  A    between atoms: C_2  and  N_3 
REMARK       I    between atoms: N_3  and  C_4 
REMARK    2  A    between atoms: C_4  and  C_5 
REMARK    3  A    between atoms: C_5  and  C_6 
ROOT
HETATM    1  C   UNL     1      40.765 -16.521   2.908  1.00  0.00     0.286 C 
HETATM    2  N   UNL     1      42.093 -15.935   3.408  1.00  0.00    -0.056 N 
HETATM    3  H   UNL     1      42.720 -16.702   3.706  1.00  0.00     0.278 HD
HETATM    4  H   UNL     1      42.586 -15.492   2.618  1.00  0.00     0.278 HD
HETATM    5  C   UNL     1      41.857 -14.945   4.509  1.00  0.00     0.209 C 
HETATM    6  C   UNL     1      41.036 -13.779   3.917  1.00  0.00     0.115 C 
HETATM    7  N   UNL     1      39.801 -14.253   3.297  1.00  0.00    -0.353 N 
HETATM    8  C   UNL     1      39.730 -15.423   2.567  1.00  0.00     0.249 C 
HETATM    9  O   UNL     1      38.826 -15.592   1.759  1.00  0.00    -0.271 OA
HETATM   10  C   UNL     1      43.180 -14.469   5.088  1.00  0.00     0.035 C 
HETATM   11  C   UNL     1      42.921 -13.416   6.165  1.00  0.00     0.002 C 
HETATM   12  C   UNL     1      42.083 -12.252   5.634  1.00  0.00     0.002 C 
HETATM   13  C   UNL     1      40.777 -12.716   4.984  1.00  0.00     0.027 C 
HETATM   14  H   UNL     1      39.116 -13.560   2.996  1.00  0.00     0.163 HD
ENDROOT
BRANCH   1  15
HETATM   15  C   UNL     1      41.024 -17.432   1.715  1.00  0.00     0.146 C 
BRANCH  15  16
HETATM   16  C   UNL     1      42.371 -17.082   1.158  1.00  0.00     0.224 C 
HETATM   17  N   UNL     1      43.516 -17.755   1.420  1.00  0.00    -0.327 N 
HETATM   18  H   UNL     1      44.320 -17.243   1.063  1.00  0.00     0.169 HD
HETATM   19  O   UNL     1      42.475 -15.975   0.611  1.00  0.00    -0.273 OA
BRANCH  17  20
HETATM   20  C   UNL     1      43.839 -18.922   2.135  1.00  0.00     0.034 A 
HETATM   21  C   UNL     1      43.821 -20.221   1.630  1.00  0.00     0.031 A 
HETATM   22  C   UNL     1      44.138 -21.308   2.457  1.00  0.00     0.026 A 
HETATM   23  C   UNL     1      44.484 -21.101   3.789  1.00  0.00     0.034 A 
HETATM   24  C   UNL     1      44.538 -19.811   4.298  1.00  0.00     0.026 A 
HETATM   25 CL   UNL     1      44.858 -22.440   4.798  1.00  0.00    -0.084 Cl
HETATM   26  C   UNL     1      44.229 -18.728   3.470  1.00  0.00     0.031 A 
ENDBRANCH  17  20
ENDBRANCH  15  16
ENDBRANCH   1  15
TORSDOF 3
ENDMDL
MODEL 9
REMARK VINA RESULT:      -6.8      2.613      3.650
REMARK  3 active torsions:
REMARK  status: ('A' for Active; 'I' for Inactive)
REMARK    1  A    between atoms: C_2  and  N_3 
REMARK       I    between atoms: N_3  and  C_4 
REMARK    2  A    between atoms: C_4  and  C_5 
REMARK    3  A    between atoms: C_5  and  C_6 
ROOT
HETATM    1  C   UNL     1      40.774 -15.276   1.810  1.00  0.00     0.286 C 
HETATM    2  N   UNL     1      39.584 -15.230   0.842  1.00  0.00    -0.056 N 
HETATM    3  H   UNL     1      39.853 -15.662  -0.059  1.00  0.00     0.278 HD
HETATM    4  H   UNL     1      38.831 -15.834   1.201  1.00  0.00     0.278 HD
HETATM    5  C   UNL     1      39.096 -13.823   0.664  1.00  0.00     0.209 C 
HETATM    6  C   UNL     1      38.588 -13.330   2.036  1.00  0.00     0.115 C 
HETATM    7  N   UNL     1      39.618 -13.455   3.065  1.00  0.00    -0.353 N 
HETATM    8  C   UNL     1      40.482 -14.530   3.134  1.00  0.00     0.249 C 
HETATM    9  O   UNL     1      41.047 -14.801   4.186  1.00  0.00    -0.271 OA
HETATM   10  C   UNL     1      38.006 -13.768  -0.396  1.00  0.00     0.035 C 
HETATM   11  C   UNL     1      37.480 -12.339  -0.519  1.00  0.00     0.002 C 
HETATM   12  C   UNL     1      36.992 -11.794   0.824  1.00  0.00     0.002 C 
HETATM   13  C   UNL     1      38.052 -11.904   1.923  1.00  0.00     0.027 C 
HETATM   14  H   UNL     1      39.441 -13.034   3.977  1.00  0.00     0.163 HD
ENDROOT
BRANCH   1  15
HETATM   15  C   UNL     1      41.173 -16.724   2.063  1.00  0.00     0.146 C 
BRANCH  15  16
HETATM   16  C   UNL     1      42.115 -17.134   0.971  1.00  0.00     0.224 C 
HETATM   17  N   UNL     1      43.127 -18.021   1.113  1.00  0.00    -0.327 N 
HETATM   18  H   UNL     1      43.722 -18.019   0.287  1.00  0.00     0.169 HD
HETATM   19  O   UNL     1      42.104 -16.444  -0.059  1.00  0.00    -0.273 OA
BRANCH  17  20
HETATM   20  C   UNL     1      43.577 -18.853   2.154  1.00  0.00     0.034 A 
HETATM   21  C   UNL     1      43.897 -18.445   3.448  1.00  0.00     0.031 A 
HETATM   22  C   UNL     1      44.364 -19.373   4.389  1.00  0.00     0.026 A 
HETATM   23  C   UNL     1      44.505 -20.714   4.046  1.00  0.00     0.034 A 
HETATM   24  C   UNL     1      44.160 -21.142   2.771  1.00  0.00     0.026 A 
HETATM   25 CL   UNL     1      45.090 -21.841   5.202  1.00  0.00    -0.084 Cl
HETATM   26  C   UNL     1      43.687 -20.216   1.836  1.00  0.00     0.031 A 
ENDBRANCH  17  20
ENDBRANCH  15  16
ENDBRANCH   1  15
TORSDOF 3
ENDMDL
MODEL 10
REMARK VINA RESULT:      -6.8      1.873      2.492
REMARK  3 active torsions:
REMARK  status: ('A' for Active; 'I' for Inactive)
REMARK    1  A    between atoms: C_2  and  N_3 
REMARK       I    between atoms: N_3  and  C_4 
REMARK    2  A    between atoms: C_4  and  C_5 
REMARK    3  A    between atoms: C_5  and  C_6 
ROOT
HETATM    1  C   UNL     1      41.283 -14.031   0.709  1.00  0.00     0.286 C 
HETATM    2  N   UNL     1      42.037 -12.728   0.409  1.00  0.00    -0.056 N 
HETATM    3  H   UNL     1      41.829 -12.030   1.144  1.00  0.00     0.278 HD
HETATM    4  H   UNL     1      43.050 -12.896   0.492  1.00  0.00     0.278 HD
HETATM    5  C   UNL     1      41.695 -12.218  -0.959  1.00  0.00     0.209 C 
HETATM    6  C   UNL     1      42.175 -13.271  -1.982  1.00  0.00     0.115 C 
HETATM    7  N   UNL     1      41.609 -14.588  -1.701  1.00  0.00    -0.353 N 
HETATM    8  C   UNL     1      41.445 -15.077  -0.420  1.00  0.00     0.249 C 
HETATM    9  O   UNL     1      41.345 -16.282  -0.227  1.00  0.00    -0.271 OA
HETATM   10  C   UNL     1      42.340 -10.862  -1.198  1.00  0.00     0.035 C 
HETATM   11  C   UNL     1      42.030 -10.388  -2.618  1.00  0.00     0.002 C 
HETATM   12  C   UNL     1      42.462 -11.413  -3.667  1.00  0.00     0.002 C 
HETATM   13  C   UNL     1      41.878 -12.804  -3.405  1.00  0.00     0.027 C 
HETATM   14  H   UNL     1      41.747 -15.329  -2.389  1.00  0.00     0.163 HD
ENDROOT
BRANCH   1  15
HETATM   15  C   UNL     1      41.737 -14.588   2.052  1.00  0.00     0.146 C 
BRANCH  15  16
HETATM   16  C   UNL     1      40.614 -15.415   2.605  1.00  0.00     0.224 C 
HETATM   17  N   UNL     1      40.733 -16.692   3.037  1.00  0.00    -0.327 N 
HETATM   18  H   UNL     1      39.815 -17.094   3.216  1.00  0.00     0.169 HD
HETATM   19  O   UNL     1      39.467 -14.975   2.440  1.00  0.00    -0.273 OA
BRANCH  17  20
HETATM   20  C   UNL     1      41.804 -17.587   3.201  1.00  0.00     0.034 A 
HETATM   21  C   UNL     1      42.463 -18.271   2.180  1.00  0.00     0.031 A 
HETATM   22  C   UNL     1      43.503 -19.163   2.480  1.00  0.00     0.026 A 
HETATM   23  C   UNL     1      43.897 -19.367   3.798  1.00  0.00     0.034 A 
HETATM   24  C   UNL     1      43.273 -18.670   4.823  1.00  0.00     0.026 A 
HETATM   25 CL   UNL     1      45.163 -20.471   4.156  1.00  0.00    -0.084 Cl
HETATM   26  C   UNL     1      42.241 -17.775   4.522  1.00  0.00     0.031 A 
ENDBRANCH  17  20
ENDBRANCH  15  16
ENDBRANCH   1  15
TORSDOF 3
ENDMDL
