MODEL 1
REMARK VINA RESULT:      -8.9      0.000      0.000
REMARK  8 active torsions:
REMARK  status: ('A' for Active; 'I' for Inactive)
REMARK    1  A    between atoms: C_4  and  C_5 
REMARK    2  A    between atoms: C_5  and  N_6 
REMARK       I    between atoms: N_6  and  C_7 
REMARK       I    between atoms: C_7  and  N_8 
REMARK       I    between atoms: N_8  and  C_9 
REMARK    3  A    between atoms: C_9  and  C_10 
REMARK    4  A    between atoms: C_10  and  S_11 
REMARK    5  A    between atoms: S_11  and  C_12 
REMARK    6  A    between atoms: N_13  and  C_14 
REMARK    7  A    between atoms: C_21  and  C_22 
REMARK    8  A    between atoms: C_22  and  N_23 
ROOT
HETATM    1  C   UNL     1      42.162 -13.718   3.031  1.00  0.00     0.196 A 
HETATM    2  N   UNL     1      41.712 -14.738   2.214  1.00  0.00    -0.274 N 
HETATM    3  C   UNL     1      40.685 -14.151   1.485  1.00  0.00     0.161 A 
HETATM    4  N   UNL     1      40.530 -12.896   1.862  1.00  0.00    -0.132 NA
HETATM    5  N   UNL     1      41.463 -12.625   2.823  1.00  0.00    -0.122 NA
ENDROOT
BRANCH   1   6
HETATM    6  S   UNL     1      43.597 -13.803   3.998  1.00  0.00    -0.080 SA
BRANCH   6   7
HETATM    7  C   UNL     1      42.915 -13.556   5.668  1.00  0.00     0.185 C 
BRANCH   7   8
HETATM    8  C   UNL     1      41.664 -14.396   5.910  1.00  0.00     0.235 C 
HETATM    9  N   UNL     1      41.804 -15.609   6.553  1.00  0.00    -0.279 N 
HETATM   10  C   UNL     1      42.952 -16.234   6.985  1.00  0.00     0.323 C 
HETATM   11  H   UNL     1      40.945 -16.130   6.618  1.00  0.00     0.173 HD
HETATM   12  N   UNL     1      42.702 -17.496   7.462  1.00  0.00    -0.339 N 
HETATM   13  O   UNL     1      44.073 -15.746   6.936  1.00  0.00    -0.247 OA
HETATM   14  H   UNL     1      41.796 -17.686   7.866  1.00  0.00     0.164 HD
HETATM   15  O   UNL     1      40.527 -14.051   5.570  1.00  0.00    -0.272 OA
BRANCH  12  16
HETATM   16  C   UNL     1      43.793 -18.314   7.949  1.00  0.00     0.162 C 
BRANCH  16  17
HETATM   17  C   UNL     1      44.147 -19.377   6.945  1.00  0.00    -0.040 A 
HETATM   18  C   UNL     1      44.830 -19.041   5.766  1.00  0.00     0.009 A 
HETATM   19  C   UNL     1      45.137 -20.021   4.822  1.00  0.00     0.001 A 
HETATM   20  C   UNL     1      44.763 -21.345   5.043  1.00  0.00     0.000 A 
HETATM   21  C   UNL     1      44.080 -21.690   6.209  1.00  0.00     0.001 A 
HETATM   22  C   UNL     1      43.771 -20.711   7.154  1.00  0.00     0.009 A 
ENDBRANCH  16  17
ENDBRANCH  12  16
ENDBRANCH   7   8
ENDBRANCH   6   7
ENDBRANCH   1   6
BRANCH   2  23
HETATM   23  C   UNL     1      42.141 -16.088   2.151  1.00  0.00     0.043 A 
HETATM   24  C   UNL     1      41.723 -16.998   3.130  1.00  0.00     0.032 A 
HETATM   25  C   UNL     1      42.133 -18.333   3.063  1.00  0.00     0.026 A 
HETATM   26  C   UNL     1      42.964 -18.754   2.029  1.00  0.00     0.034 A 
HETATM   27 CL   UNL     1      43.469 -20.394   1.947  1.00  0.00    -0.084 Cl
HETATM   28  C   UNL     1      43.393 -17.849   1.058  1.00  0.00     0.026 A 
HETATM   29  C   UNL     1      42.984 -16.513   1.116  1.00  0.00     0.032 A 
ENDBRANCH   2  23
BRANCH   3  30
HETATM   30  C   UNL     1      39.763 -14.843   0.548  1.00  0.00     0.315 C 
BRANCH  30  31
HETATM   31  N   UNL     1      40.051 -14.474  -0.905  1.00  0.00    -0.064 N 
HETATM   32  H   UNL     1      40.687 -13.661  -0.841  1.00  0.00     0.280 HD
HETATM   33  C   UNL     1      40.821 -15.557  -1.629  1.00  0.00     0.235 C 
HETATM   34  C   UNL     1      41.193 -15.074  -3.023  1.00  0.00     0.028 C 
HETATM   35  C   UNL     1      39.964 -14.636  -3.810  1.00  0.00     0.003 C 
HETATM   36  C   UNL     1      39.172 -13.583  -3.045  1.00  0.00     0.028 C 
HETATM   37  C   UNL     1      38.810 -14.054  -1.643  1.00  0.00     0.235 C 
ENDBRANCH  30  31
ENDBRANCH   3  30
TORSDOF 8
ENDMDL
MODEL 2
REMARK VINA RESULT:      -8.4      3.397      6.996
REMARK  8 active torsions:
REMARK  status: ('A' for Active; 'I' for Inactive)
REMARK    1  A    between atoms: C_4  and  C_5 
REMARK    2  A    between atoms: C_5  and  N_6 
REMARK       I    between atoms: N_6  and  C_7 
REMARK       I    between atoms: C_7  and  N_8 
REMARK       I    between atoms: N_8  and  C_9 
REMARK    3  A    between atoms: C_9  and  C_10 
REMARK    4  A    between atoms: C_10  and  S_11 
REMARK    5  A    between atoms: S_11  and  C_12 
REMARK    6  A    between atoms: N_13  and  C_14 
REMARK    7  A    between atoms: C_21  and  C_22 
REMARK    8  A    between atoms: C_22  and  N_23 
ROOT
HETATM    1  C   UNL     1      41.799 -12.311   3.053  1.00  0.00     0.196 A 
HETATM    2  N   UNL     1      41.982 -12.607   4.391  1.00  0.00    -0.274 N 
HETATM    3  C   UNL     1      43.067 -13.475   4.394  1.00  0.00     0.161 A 
HETATM    4  N   UNL     1      43.471 -13.690   3.156  1.00  0.00    -0.132 NA
HETATM    5  N   UNL     1      42.680 -12.952   2.319  1.00  0.00    -0.122 NA
ENDROOT
BRANCH   1   6
HETATM    6  S   UNL     1      40.728 -11.084   2.462  1.00  0.00    -0.080 SA
BRANCH   6   7
HETATM    7  C   UNL     1      39.446 -12.091   1.653  1.00  0.00     0.185 C 
BRANCH   7   8
HETATM    8  C   UNL     1      39.884 -12.588   0.278  1.00  0.00     0.235 C 
HETATM    9  N   UNL     1      40.110 -13.938   0.111  1.00  0.00    -0.279 N 
HETATM   10  C   UNL     1      40.050 -14.950   1.044  1.00  0.00     0.323 C 
HETATM   11  H   UNL     1      40.456 -14.178  -0.804  1.00  0.00     0.173 HD
HETATM   12  N   UNL     1      40.472 -16.149   0.529  1.00  0.00    -0.339 N 
HETATM   13  O   UNL     1      39.688 -14.808   2.203  1.00  0.00    -0.247 OA
HETATM   14  H   UNL     1      40.354 -16.316  -0.460  1.00  0.00     0.164 HD
HETATM   15  O   UNL     1      40.042 -11.851  -0.702  1.00  0.00    -0.272 OA
BRANCH  12  16
HETATM   16  C   UNL     1      40.493 -17.329   1.369  1.00  0.00     0.162 C 
BRANCH  16  17
HETATM   17  C   UNL     1      41.906 -17.792   1.596  1.00  0.00    -0.040 A 
HETATM   18  C   UNL     1      42.167 -19.121   1.963  1.00  0.00     0.009 A 
HETATM   19  C   UNL     1      43.475 -19.547   2.197  1.00  0.00     0.001 A 
HETATM   20  C   UNL     1      44.535 -18.651   2.071  1.00  0.00     0.000 A 
HETATM   21  C   UNL     1      44.287 -17.327   1.711  1.00  0.00     0.001 A 
HETATM   22  C   UNL     1      42.979 -16.898   1.476  1.00  0.00     0.009 A 
ENDBRANCH  16  17
ENDBRANCH  12  16
ENDBRANCH   7   8
ENDBRANCH   6   7
ENDBRANCH   1   6
BRANCH   2  23
HETATM   23  C   UNL     1      41.225 -12.181   5.512  1.00  0.00     0.043 A 
HETATM   24  C   UNL     1      40.077 -12.892   5.887  1.00  0.00     0.032 A 
HETATM   25  C   UNL     1      39.336 -12.483   7.000  1.00  0.00     0.026 A 
HETATM   26  C   UNL     1      39.734 -11.366   7.728  1.00  0.00     0.034 A 
HETATM   27 CL   UNL     1      38.823 -10.864   9.095  1.00  0.00    -0.084 Cl
HETATM   28  C   UNL     1      40.869 -10.648   7.352  1.00  0.00     0.026 A 
HETATM   29  C   UNL     1      41.618 -11.053   6.243  1.00  0.00     0.032 A 
ENDBRANCH   2  23
BRANCH   3  30
HETATM   30  C   UNL     1      43.605 -14.209   5.569  1.00  0.00     0.315 C 
BRANCH  30  31
HETATM   31  N   UNL     1      43.482 -15.721   5.396  1.00  0.00    -0.064 N 
HETATM   32  H   UNL     1      43.828 -15.897   4.438  1.00  0.00     0.280 HD
HETATM   33  C   UNL     1      44.403 -16.480   6.325  1.00  0.00     0.235 C 
HETATM   34  C   UNL     1      44.333 -17.967   6.010  1.00  0.00     0.028 C 
HETATM   35  C   UNL     1      42.903 -18.488   6.086  1.00  0.00     0.003 C 
HETATM   36  C   UNL     1      41.979 -17.680   5.184  1.00  0.00     0.028 C 
HETATM   37  C   UNL     1      42.055 -16.189   5.483  1.00  0.00     0.235 C 
ENDBRANCH  30  31
ENDBRANCH   3  30
TORSDOF 8
ENDMDL
MODEL 3
REMARK VINA RESULT:      -8.4      1.518      2.014
REMARK  8 active torsions:
REMARK  status: ('A' for Active; 'I' for Inactive)
REMARK    1  A    between atoms: C_4  and  C_5 
REMARK    2  A    between atoms: C_5  and  N_6 
REMARK       I    between atoms: N_6  and  C_7 
REMARK       I    between atoms: C_7  and  N_8 
REMARK       I    between atoms: N_8  and  C_9 
REMARK    3  A    between atoms: C_9  and  C_10 
REMARK    4  A    between atoms: C_10  and  S_11 
REMARK    5  A    between atoms: S_11  and  C_12 
REMARK    6  A    between atoms: N_13  and  C_14 
REMARK    7  A    between atoms: C_21  and  C_22 
REMARK    8  A    between atoms: C_22  and  N_23 
ROOT
HETATM    1  C   UNL     1      40.184 -14.075   2.523  1.00  0.00     0.196 A 
HETATM    2  N   UNL     1      40.896 -14.728   1.534  1.00  0.00    -0.274 N 
HETATM    3  C   UNL     1      40.789 -13.885   0.435  1.00  0.00     0.161 A 
HETATM    4  N   UNL     1      40.054 -12.835   0.748  1.00  0.00    -0.132 NA
HETATM    5  N   UNL     1      39.684 -12.952   2.059  1.00  0.00    -0.122 NA
ENDROOT
BRANCH   1   6
HETATM    6  S   UNL     1      40.169 -14.547   4.190  1.00  0.00    -0.080 SA
BRANCH   6   7
HETATM    7  C   UNL     1      41.425 -13.430   4.887  1.00  0.00     0.185 C 
BRANCH   7   8
HETATM    8  C   UNL     1      42.814 -13.691   4.310  1.00  0.00     0.235 C 
HETATM    9  N   UNL     1      43.547 -14.744   4.818  1.00  0.00    -0.279 N 
HETATM   10  C   UNL     1      43.230 -15.605   5.846  1.00  0.00     0.323 C 
HETATM   11  H   UNL     1      44.474 -14.812   4.431  1.00  0.00     0.173 HD
HETATM   12  N   UNL     1      44.273 -16.442   6.153  1.00  0.00    -0.339 N 
HETATM   13  O   UNL     1      42.162 -15.619   6.439  1.00  0.00    -0.247 OA
HETATM   14  H   UNL     1      44.925 -16.687   5.422  1.00  0.00     0.164 HD
HETATM   15  O   UNL     1      43.321 -13.019   3.406  1.00  0.00    -0.272 OA
BRANCH  12  16
HETATM   16  C   UNL     1      44.131 -17.410   7.221  1.00  0.00     0.162 C 
BRANCH  16  17
HETATM   17  C   UNL     1      44.203 -18.811   6.678  1.00  0.00    -0.040 A 
HETATM   18  C   UNL     1      43.679 -19.885   7.413  1.00  0.00     0.009 A 
HETATM   19  C   UNL     1      43.766 -21.189   6.923  1.00  0.00     0.001 A 
HETATM   20  C   UNL     1      44.380 -21.434   5.696  1.00  0.00     0.000 A 
HETATM   21  C   UNL     1      44.908 -20.375   4.958  1.00  0.00     0.001 A 
HETATM   22  C   UNL     1      44.823 -19.070   5.447  1.00  0.00     0.009 A 
ENDBRANCH  16  17
ENDBRANCH  12  16
ENDBRANCH   7   8
ENDBRANCH   6   7
ENDBRANCH   1   6
BRANCH   2  23
HETATM   23  C   UNL     1      41.547 -15.987   1.585  1.00  0.00     0.043 A 
HETATM   24  C   UNL     1      40.786 -17.161   1.664  1.00  0.00     0.032 A 
HETATM   25  C   UNL     1      41.424 -18.404   1.701  1.00  0.00     0.026 A 
HETATM   26  C   UNL     1      42.814 -18.474   1.668  1.00  0.00     0.034 A 
HETATM   27 CL   UNL     1      43.597 -20.002   1.714  1.00  0.00    -0.084 Cl
HETATM   28  C   UNL     1      43.576 -17.308   1.602  1.00  0.00     0.026 A 
HETATM   29  C   UNL     1      42.945 -16.061   1.560  1.00  0.00     0.032 A 
ENDBRANCH   2  23
BRANCH   3  30
HETATM   30  C   UNL     1      41.263 -14.171  -0.944  1.00  0.00     0.315 C 
BRANCH  30  31
HETATM   31  N   UNL     1      40.191 -14.871  -1.776  1.00  0.00    -0.064 N 
HETATM   32  H   UNL     1      39.671 -15.446  -1.091  1.00  0.00     0.280 HD
HETATM   33  C   UNL     1      39.190 -13.897  -2.357  1.00  0.00     0.235 C 
HETATM   34  C   UNL     1      38.078 -14.664  -3.057  1.00  0.00     0.028 C 
HETATM   35  C   UNL     1      38.631 -15.604  -4.121  1.00  0.00     0.003 C 
HETATM   36  C   UNL     1      39.676 -16.544  -3.531  1.00  0.00     0.028 C 
HETATM   37  C   UNL     1      40.783 -15.783  -2.815  1.00  0.00     0.235 C 
ENDBRANCH  30  31
ENDBRANCH   3  30
TORSDOF 8
ENDMDL
MODEL 4
REMARK VINA RESULT:      -8.4      2.963      6.246
REMARK  8 active torsions:
REMARK  status: ('A' for Active; 'I' for Inactive)
REMARK    1  A    between atoms: C_4  and  C_5 
REMARK    2  A    between atoms: C_5  and  N_6 
REMARK       I    between atoms: N_6  and  C_7 
REMARK       I    between atoms: C_7  and  N_8 
REMARK       I    between atoms: N_8  and  C_9 
REMARK    3  A    between atoms: C_9  and  C_10 
REMARK    4  A    between atoms: C_10  and  S_11 
REMARK    5  A    between atoms: S_11  and  C_12 
REMARK    6  A    between atoms: N_13  and  C_14 
REMARK    7  A    between atoms: C_21  and  C_22 
REMARK    8  A    between atoms: C_22  and  N_23 
ROOT
HETATM    1  C   UNL     1      41.484 -12.976   3.496  1.00  0.00     0.196 A 
HETATM    2  N   UNL     1      41.107 -13.463   4.735  1.00  0.00    -0.274 N 
HETATM    3  C   UNL     1      40.036 -12.656   5.097  1.00  0.00     0.161 A 
HETATM    4  N   UNL     1      39.818 -11.754   4.158  1.00  0.00    -0.132 NA
HETATM    5  N   UNL     1      40.720 -11.963   3.153  1.00  0.00    -0.122 NA
ENDROOT
BRANCH   1   6
HETATM    6  S   UNL     1      42.626 -13.750   2.449  1.00  0.00    -0.080 SA
BRANCH   6   7
HETATM    7  C   UNL     1      41.519 -14.562   1.254  1.00  0.00     0.185 C 
BRANCH   7   8
HETATM    8  C   UNL     1      40.631 -15.614   1.912  1.00  0.00     0.235 C 
HETATM    9  N   UNL     1      41.147 -16.878   2.107  1.00  0.00    -0.279 N 
HETATM   10  C   UNL     1      42.376 -17.379   1.738  1.00  0.00     0.323 C 
HETATM   11  H   UNL     1      40.481 -17.530   2.487  1.00  0.00     0.173 HD
HETATM   12  N   UNL     1      42.477 -18.725   1.984  1.00  0.00    -0.339 N 
HETATM   13  O   UNL     1      43.274 -16.722   1.230  1.00  0.00    -0.247 OA
HETATM   14  H   UNL     1      41.937 -19.117   2.742  1.00  0.00     0.164 HD
HETATM   15  O   UNL     1      39.474 -15.399   2.290  1.00  0.00    -0.272 OA
BRANCH  12  16
HETATM   16  C   UNL     1      43.695 -19.432   1.648  1.00  0.00     0.162 C 
BRANCH  16  17
HETATM   17  C   UNL     1      44.098 -20.355   2.766  1.00  0.00    -0.040 A 
HETATM   18  C   UNL     1      44.400 -19.841   4.036  1.00  0.00     0.009 A 
HETATM   19  C   UNL     1      44.797 -20.692   5.068  1.00  0.00     0.001 A 
HETATM   20  C   UNL     1      44.900 -22.063   4.841  1.00  0.00     0.000 A 
HETATM   21  C   UNL     1      44.606 -22.585   3.582  1.00  0.00     0.001 A 
HETATM   22  C   UNL     1      44.209 -21.735   2.548  1.00  0.00     0.009 A 
ENDBRANCH  16  17
ENDBRANCH  12  16
ENDBRANCH   7   8
ENDBRANCH   6   7
ENDBRANCH   1   6
BRANCH   2  23
HETATM   23  C   UNL     1      41.691 -14.503   5.501  1.00  0.00     0.043 A 
HETATM   24  C   UNL     1      42.978 -14.341   6.029  1.00  0.00     0.032 A 
HETATM   25  C   UNL     1      43.551 -15.359   6.796  1.00  0.00     0.026 A 
HETATM   26  C   UNL     1      42.846 -16.537   7.028  1.00  0.00     0.034 A 
HETATM   27 CL   UNL     1      43.551 -17.788   7.970  1.00  0.00    -0.084 Cl
HETATM   28  C   UNL     1      41.569 -16.708   6.493  1.00  0.00     0.026 A 
HETATM   29  C   UNL     1      40.987 -15.693   5.728  1.00  0.00     0.032 A 
ENDBRANCH   2  23
BRANCH   3  30
HETATM   30  C   UNL     1      39.334 -12.659   6.407  1.00  0.00     0.315 C 
BRANCH  30  31
HETATM   31  N   UNL     1      40.153 -11.959   7.489  1.00  0.00    -0.064 N 
HETATM   32  H   UNL     1      40.791 -12.692   7.841  1.00  0.00     0.280 HD
HETATM   33  C   UNL     1      41.034 -10.867   6.923  1.00  0.00     0.235 C 
HETATM   34  C   UNL     1      41.919 -10.303   8.025  1.00  0.00     0.028 C 
HETATM   35  C   UNL     1      41.094  -9.805   9.205  1.00  0.00     0.003 C 
HETATM   36  C   UNL     1      40.174 -10.901   9.730  1.00  0.00     0.028 C 
HETATM   37  C   UNL     1      39.297 -11.481   8.629  1.00  0.00     0.235 C 
ENDBRANCH  30  31
ENDBRANCH   3  30
TORSDOF 8
ENDMDL
MODEL 5
REMARK VINA RESULT:      -8.3      3.631      6.731
REMARK  8 active torsions:
REMARK  status: ('A' for Active; 'I' for Inactive)
REMARK    1  A    between atoms: C_4  and  C_5 
REMARK    2  A    between atoms: C_5  and  N_6 
REMARK       I    between atoms: N_6  and  C_7 
REMARK       I    between atoms: C_7  and  N_8 
REMARK       I    between atoms: N_8  and  C_9 
REMARK    3  A    between atoms: C_9  and  C_10 
REMARK    4  A    between atoms: C_10  and  S_11 
REMARK    5  A    between atoms: S_11  and  C_12 
REMARK    6  A    between atoms: N_13  and  C_14 
REMARK    7  A    between atoms: C_21  and  C_22 
REMARK    8  A    between atoms: C_22  and  N_23 
ROOT
HETATM    1  C   UNL     1      39.911 -14.283   2.326  1.00  0.00     0.196 A 
HETATM    2  N   UNL     1      40.069 -13.706   3.573  1.00  0.00    -0.274 N 
HETATM    3  C   UNL     1      40.175 -14.793   4.431  1.00  0.00     0.161 A 
HETATM    4  N   UNL     1      40.063 -15.915   3.746  1.00  0.00    -0.132 NA
HETATM    5  N   UNL     1      39.907 -15.592   2.427  1.00  0.00    -0.122 NA
ENDROOT
BRANCH   1   6
HETATM    6  S   UNL     1      39.963 -13.408   0.832  1.00  0.00    -0.080 SA
BRANCH   6   7
HETATM    7  C   UNL     1      41.548 -13.977   0.142  1.00  0.00     0.185 C 
BRANCH   7   8
HETATM    8  C   UNL     1      41.418 -15.319  -0.574  1.00  0.00     0.235 C 
HETATM    9  N   UNL     1      41.992 -16.430   0.009  1.00  0.00    -0.279 N 
HETATM   10  C   UNL     1      42.742 -16.515   1.161  1.00  0.00     0.323 C 
HETATM   11  H   UNL     1      41.918 -17.262  -0.554  1.00  0.00     0.173 HD
HETATM   12  N   UNL     1      43.255 -17.774   1.347  1.00  0.00    -0.339 N 
HETATM   13  O   UNL     1      42.954 -15.585   1.926  1.00  0.00    -0.247 OA
HETATM   14  H   UNL     1      42.746 -18.561   0.972  1.00  0.00     0.164 HD
HETATM   15  O   UNL     1      40.821 -15.472  -1.644  1.00  0.00    -0.272 OA
BRANCH  12  16
HETATM   16  C   UNL     1      44.084 -18.052   2.501  1.00  0.00     0.162 C 
BRANCH  16  17
HETATM   17  C   UNL     1      44.217 -19.536   2.713  1.00  0.00    -0.040 A 
HETATM   18  C   UNL     1      43.814 -20.434   1.712  1.00  0.00     0.009 A 
HETATM   19  C   UNL     1      43.914 -21.811   1.915  1.00  0.00     0.001 A 
HETATM   20  C   UNL     1      44.412 -22.305   3.120  1.00  0.00     0.000 A 
HETATM   21  C   UNL     1      44.810 -21.422   4.123  1.00  0.00     0.001 A 
HETATM   22  C   UNL     1      44.711 -20.044   3.922  1.00  0.00     0.009 A 
ENDBRANCH  16  17
ENDBRANCH  12  16
ENDBRANCH   7   8
ENDBRANCH   6   7
ENDBRANCH   1   6
BRANCH   2  23
HETATM   23  C   UNL     1      40.073 -12.333   3.928  1.00  0.00     0.043 A 
HETATM   24  C   UNL     1      38.861 -11.639   4.042  1.00  0.00     0.032 A 
HETATM   25  C   UNL     1      38.860 -10.290   4.405  1.00  0.00     0.026 A 
HETATM   26  C   UNL     1      40.065  -9.633   4.645  1.00  0.00     0.034 A 
HETATM   27 CL   UNL     1      40.064  -7.975   5.090  1.00  0.00    -0.084 Cl
HETATM   28  C   UNL     1      41.275 -10.316   4.520  1.00  0.00     0.026 A 
HETATM   29  C   UNL     1      41.283 -11.667   4.162  1.00  0.00     0.032 A 
ENDBRANCH   2  23
BRANCH   3  30
HETATM   30  C   UNL     1      40.226 -14.741   5.915  1.00  0.00     0.315 C 
BRANCH  30  31
HETATM   31  N   UNL     1      41.538 -15.306   6.456  1.00  0.00    -0.064 N 
HETATM   32  H   UNL     1      41.586 -14.955   7.427  1.00  0.00     0.280 HD
HETATM   33  C   UNL     1      41.516 -16.815   6.551  1.00  0.00     0.235 C 
HETATM   34  C   UNL     1      42.792 -17.304   7.219  1.00  0.00     0.028 C 
HETATM   35  C   UNL     1      44.033 -16.804   6.488  1.00  0.00     0.003 C 
HETATM   36  C   UNL     1      44.015 -15.286   6.356  1.00  0.00     0.028 C 
HETATM   37  C   UNL     1      42.732 -14.790   5.701  1.00  0.00     0.235 C 
ENDBRANCH  30  31
ENDBRANCH   3  30
TORSDOF 8
ENDMDL
MODEL 6
REMARK VINA RESULT:      -8.2      3.231      4.933
REMARK  8 active torsions:
REMARK  status: ('A' for Active; 'I' for Inactive)
REMARK    1  A    between atoms: C_4  and  C_5 
REMARK    2  A    between atoms: C_5  and  N_6 
REMARK       I    between atoms: N_6  and  C_7 
REMARK       I    between atoms: C_7  and  N_8 
REMARK       I    between atoms: N_8  and  C_9 
REMARK    3  A    between atoms: C_9  and  C_10 
REMARK    4  A    between atoms: C_10  and  S_11 
REMARK    5  A    between atoms: S_11  and  C_12 
REMARK    6  A    between atoms: N_13  and  C_14 
REMARK    7  A    between atoms: C_21  and  C_22 
REMARK    8  A    between atoms: C_22  and  N_23 
ROOT
HETATM    1  C   UNL     1      41.212 -12.331   1.981  1.00  0.00     0.196 A 
HETATM    2  N   UNL     1      40.404 -12.275   0.860  1.00  0.00    -0.274 N 
HETATM    3  C   UNL     1      41.276 -12.530  -0.191  1.00  0.00     0.161 A 
HETATM    4  N   UNL     1      42.499 -12.697   0.274  1.00  0.00    -0.132 NA
HETATM    5  N   UNL     1      42.454 -12.581   1.635  1.00  0.00    -0.122 NA
ENDROOT
BRANCH   1   6
HETATM    6  S   UNL     1      40.624 -12.321   3.610  1.00  0.00    -0.080 SA
BRANCH   6   7
HETATM    7  C   UNL     1      39.915 -13.992   3.742  1.00  0.00     0.185 C 
BRANCH   7   8
HETATM    8  C   UNL     1      40.520 -14.787   4.896  1.00  0.00     0.235 C 
HETATM    9  N   UNL     1      41.350 -15.847   4.596  1.00  0.00    -0.279 N 
HETATM   10  C   UNL     1      41.694 -16.358   3.364  1.00  0.00     0.323 C 
HETATM   11  H   UNL     1      41.657 -16.359   5.407  1.00  0.00     0.173 HD
HETATM   12  N   UNL     1      42.439 -17.505   3.473  1.00  0.00    -0.339 N 
HETATM   13  O   UNL     1      41.366 -15.872   2.291  1.00  0.00    -0.247 OA
HETATM   14  H   UNL     1      43.018 -17.626   4.291  1.00  0.00     0.164 HD
HETATM   15  O   UNL     1      40.316 -14.533   6.088  1.00  0.00    -0.272 OA
BRANCH  12  16
HETATM   16  C   UNL     1      42.883 -18.195   2.279  1.00  0.00     0.162 C 
BRANCH  16  17
HETATM   17  C   UNL     1      43.526 -19.508   2.635  1.00  0.00    -0.040 A 
HETATM   18  C   UNL     1      43.450 -20.597   1.753  1.00  0.00     0.009 A 
HETATM   19  C   UNL     1      44.025 -21.823   2.091  1.00  0.00     0.001 A 
HETATM   20  C   UNL     1      44.677 -21.974   3.313  1.00  0.00     0.000 A 
HETATM   21  C   UNL     1      44.755 -20.900   4.199  1.00  0.00     0.001 A 
HETATM   22  C   UNL     1      44.181 -19.673   3.863  1.00  0.00     0.009 A 
ENDBRANCH  16  17
ENDBRANCH  12  16
ENDBRANCH   7   8
ENDBRANCH   6   7
ENDBRANCH   1   6
BRANCH   2  23
HETATM   23  C   UNL     1      39.020 -11.978   0.770  1.00  0.00     0.043 A 
HETATM   24  C   UNL     1      38.590 -10.645   0.806  1.00  0.00     0.032 A 
HETATM   25  C   UNL     1      37.229 -10.348   0.704  1.00  0.00     0.026 A 
HETATM   26  C   UNL     1      36.300 -11.377   0.575  1.00  0.00     0.034 A 
HETATM   27 CL   UNL     1      34.626 -11.011   0.451  1.00  0.00    -0.084 Cl
HETATM   28  C   UNL     1      36.721 -12.706   0.552  1.00  0.00     0.026 A 
HETATM   29  C   UNL     1      38.082 -13.011   0.649  1.00  0.00     0.032 A 
ENDBRANCH   2  23
BRANCH   3  30
HETATM   30  C   UNL     1      40.953 -12.457  -1.640  1.00  0.00     0.315 C 
BRANCH  30  31
HETATM   31  N   UNL     1      40.229 -13.711  -2.122  1.00  0.00    -0.064 N 
HETATM   32  H   UNL     1      39.887 -14.159  -1.255  1.00  0.00     0.280 HD
HETATM   33  C   UNL     1      39.001 -13.384  -2.942  1.00  0.00     0.235 C 
HETATM   34  C   UNL     1      38.253 -14.666  -3.276  1.00  0.00     0.028 C 
HETATM   35  C   UNL     1      39.153 -15.670  -3.987  1.00  0.00     0.003 C 
HETATM   36  C   UNL     1      40.410 -15.949  -3.172  1.00  0.00     0.028 C 
HETATM   37  C   UNL     1      41.155 -14.669  -2.822  1.00  0.00     0.235 C 
ENDBRANCH  30  31
ENDBRANCH   3  30
TORSDOF 8
ENDMDL
MODEL 7
REMARK VINA RESULT:      -8.1      3.853      5.861
REMARK  8 active torsions:
REMARK  status: ('A' for Active; 'I' for Inactive)
REMARK    1  A    between atoms: C_4  and  C_5 
REMARK    2  A    between atoms: C_5  and  N_6 
REMARK       I    between atoms: N_6  and  C_7 
REMARK       I    between atoms: C_7  and  N_8 
REMARK       I    between atoms: N_8  and  C_9 
REMARK    3  A    between atoms: C_9  and  C_10 
REMARK    4  A    between atoms: C_10  and  S_11 
REMARK    5  A    between atoms: S_11  and  C_12 
REMARK    6  A    between atoms: N_13  and  C_14 
REMARK    7  A    between atoms: C_21  and  C_22 
REMARK    8  A    between atoms: C_22  and  N_23 
ROOT
HETATM    1  C   UNL     1      42.355 -13.899   3.282  1.00  0.00     0.196 A 
HETATM    2  N   UNL     1      41.931 -14.902   2.430  1.00  0.00    -0.274 N 
HETATM    3  C   UNL     1      40.892 -14.316   1.718  1.00  0.00     0.161 A 
HETATM    4  N   UNL     1      40.706 -13.078   2.137  1.00  0.00    -0.132 NA
HETATM    5  N   UNL     1      41.630 -12.817   3.109  1.00  0.00    -0.122 NA
ENDROOT
BRANCH   1   6
HETATM    6  S   UNL     1      43.790 -13.981   4.250  1.00  0.00    -0.080 SA
BRANCH   6   7
HETATM    7  C   UNL     1      43.159 -13.434   5.867  1.00  0.00     0.185 C 
BRANCH   7   8
HETATM    8  C   UNL     1      44.156 -13.692   6.993  1.00  0.00     0.235 C 
HETATM    9  N   UNL     1      44.088 -12.901   8.122  1.00  0.00    -0.279 N 
HETATM   10  C   UNL     1      43.258 -11.834   8.384  1.00  0.00     0.323 C 
HETATM   11  H   UNL     1      44.817 -13.091   8.790  1.00  0.00     0.173 HD
HETATM   12  N   UNL     1      43.579 -11.212   9.564  1.00  0.00    -0.339 N 
HETATM   13  O   UNL     1      42.353 -11.457   7.653  1.00  0.00    -0.247 OA
HETATM   14  H   UNL     1      44.004 -11.761  10.297  1.00  0.00     0.164 HD
HETATM   15  O   UNL     1      45.019 -14.575   6.959  1.00  0.00    -0.272 OA
BRANCH  12  16
HETATM   16  C   UNL     1      42.823 -10.056  10.000  1.00  0.00     0.162 C 
BRANCH  16  17
HETATM   17  C   UNL     1      42.608 -10.096  11.489  1.00  0.00    -0.040 A 
HETATM   18  C   UNL     1      43.504  -9.448  12.353  1.00  0.00     0.009 A 
HETATM   19  C   UNL     1      43.320  -9.503  13.735  1.00  0.00     0.001 A 
HETATM   20  C   UNL     1      42.243 -10.209  14.268  1.00  0.00     0.000 A 
HETATM   21  C   UNL     1      41.349 -10.860  13.420  1.00  0.00     0.001 A 
HETATM   22  C   UNL     1      41.531 -10.807  12.037  1.00  0.00     0.009 A 
ENDBRANCH  16  17
ENDBRANCH  12  16
ENDBRANCH   7   8
ENDBRANCH   6   7
ENDBRANCH   1   6
BRANCH   2  23
HETATM   23  C   UNL     1      42.394 -16.238   2.323  1.00  0.00     0.043 A 
HETATM   24  C   UNL     1      42.050 -17.175   3.306  1.00  0.00     0.032 A 
HETATM   25  C   UNL     1      42.492 -18.496   3.196  1.00  0.00     0.026 A 
HETATM   26  C   UNL     1      43.282 -18.877   2.115  1.00  0.00     0.034 A 
HETATM   27 CL   UNL     1      43.827 -20.501   1.982  1.00  0.00    -0.084 Cl
HETATM   28  C   UNL     1      43.638 -17.946   1.141  1.00  0.00     0.026 A 
HETATM   29  C   UNL     1      43.196 -16.623   1.241  1.00  0.00     0.032 A 
ENDBRANCH   2  23
BRANCH   3  30
HETATM   30  C   UNL     1      39.989 -14.999   0.756  1.00  0.00     0.315 C 
BRANCH  30  31
HETATM   31  N   UNL     1      40.236 -14.534  -0.678  1.00  0.00    -0.064 N 
HETATM   32  H   UNL     1      40.953 -13.795  -0.587  1.00  0.00     0.280 HD
HETATM   33  C   UNL     1      40.852 -15.619  -1.533  1.00  0.00     0.235 C 
HETATM   34  C   UNL     1      41.196 -15.054  -2.904  1.00  0.00     0.028 C 
HETATM   35  C   UNL     1      39.977 -14.433  -3.575  1.00  0.00     0.003 C 
HETATM   36  C   UNL     1      39.338 -13.379  -2.679  1.00  0.00     0.028 C 
HETATM   37  C   UNL     1      39.005 -13.933  -1.300  1.00  0.00     0.235 C 
ENDBRANCH  30  31
ENDBRANCH   3  30
TORSDOF 8
ENDMDL
MODEL 8
REMARK VINA RESULT:      -8.0      2.926      4.946
REMARK  8 active torsions:
REMARK  status: ('A' for Active; 'I' for Inactive)
REMARK    1  A    between atoms: C_4  and  C_5 
REMARK    2  A    between atoms: C_5  and  N_6 
REMARK       I    between atoms: N_6  and  C_7 
REMARK       I    between atoms: C_7  and  N_8 
REMARK       I    between atoms: N_8  and  C_9 
REMARK    3  A    between atoms: C_9  and  C_10 
REMARK    4  A    between atoms: C_10  and  S_11 
REMARK    5  A    between atoms: S_11  and  C_12 
REMARK    6  A    between atoms: N_13  and  C_14 
REMARK    7  A    between atoms: C_21  and  C_22 
REMARK    8  A    between atoms: C_22  and  N_23 
ROOT
HETATM    1  C   UNL     1      41.295 -12.313   2.986  1.00  0.00     0.196 A 
HETATM    2  N   UNL     1      41.160 -13.133   1.881  1.00  0.00    -0.274 N 
HETATM    3  C   UNL     1      42.206 -14.038   2.010  1.00  0.00     0.161 A 
HETATM    4  N   UNL     1      42.910 -13.757   3.090  1.00  0.00    -0.132 NA
HETATM    5  N   UNL     1      42.331 -12.682   3.704  1.00  0.00    -0.122 NA
ENDROOT
BRANCH   1   6
HETATM    6  S   UNL     1      40.121 -11.138   3.479  1.00  0.00    -0.080 SA
BRANCH   6   7
HETATM    7  C   UNL     1      38.964 -12.169   4.432  1.00  0.00     0.185 C 
BRANCH   7   8
HETATM    8  C   UNL     1      39.343 -12.250   5.908  1.00  0.00     0.235 C 
HETATM    9  N   UNL     1      39.869 -13.433   6.385  1.00  0.00    -0.279 N 
HETATM   10  C   UNL     1      40.067 -14.624   5.722  1.00  0.00     0.323 C 
HETATM   11  H   UNL     1      40.034 -13.427   7.378  1.00  0.00     0.173 HD
HETATM   12  N   UNL     1      40.488 -15.618   6.568  1.00  0.00    -0.339 N 
HETATM   13  O   UNL     1      39.874 -14.797   4.527  1.00  0.00    -0.247 OA
HETATM   14  H   UNL     1      41.017 -15.360   7.388  1.00  0.00     0.164 HD
HETATM   15  O   UNL     1      39.215 -11.313   6.704  1.00  0.00    -0.272 OA
BRANCH  12  16
HETATM   16  C   UNL     1      40.735 -16.949   6.051  1.00  0.00     0.162 C 
BRANCH  16  17
HETATM   17  C   UNL     1      42.200 -17.284   6.133  1.00  0.00    -0.040 A 
HETATM   18  C   UNL     1      42.679 -18.500   5.622  1.00  0.00     0.009 A 
HETATM   19  C   UNL     1      44.033 -18.824   5.718  1.00  0.00     0.001 A 
HETATM   20  C   UNL     1      44.920 -17.940   6.328  1.00  0.00     0.000 A 
HETATM   21  C   UNL     1      44.455 -16.731   6.844  1.00  0.00     0.001 A 
HETATM   22  C   UNL     1      43.101 -16.405   6.749  1.00  0.00     0.009 A 
ENDBRANCH  16  17
ENDBRANCH  12  16
ENDBRANCH   7   8
ENDBRANCH   6   7
ENDBRANCH   1   6
BRANCH   2  23
HETATM   23  C   UNL     1      40.220 -13.058   0.822  1.00  0.00     0.043 A 
HETATM   24  C   UNL     1      39.040 -13.812   0.884  1.00  0.00     0.032 A 
HETATM   25  C   UNL     1      38.105 -13.730  -0.151  1.00  0.00     0.026 A 
HETATM   26  C   UNL     1      38.350 -12.907  -1.247  1.00  0.00     0.034 A 
HETATM   27 CL   UNL     1      37.201 -12.807  -2.519  1.00  0.00    -0.084 Cl
HETATM   28  C   UNL     1      39.529 -12.165  -1.319  1.00  0.00     0.026 A 
HETATM   29  C   UNL     1      40.467 -12.238  -0.286  1.00  0.00     0.032 A 
ENDBRANCH   2  23
BRANCH   3  30
HETATM   30  C   UNL     1      42.610 -15.065   1.015  1.00  0.00     0.315 C 
BRANCH  30  31
HETATM   31  N   UNL     1      42.759 -16.444   1.653  1.00  0.00    -0.064 N 
HETATM   32  H   UNL     1      42.637 -16.272   2.665  1.00  0.00     0.280 HD
HETATM   33  C   UNL     1      41.646 -17.386   1.248  1.00  0.00     0.235 C 
HETATM   34  C   UNL     1      41.776 -18.691   2.019  1.00  0.00     0.028 C 
HETATM   35  C   UNL     1      43.148 -19.324   1.822  1.00  0.00     0.003 C 
HETATM   36  C   UNL     1      44.258 -18.345   2.185  1.00  0.00     0.028 C 
HETATM   37  C   UNL     1      44.125 -17.030   1.428  1.00  0.00     0.235 C 
ENDBRANCH  30  31
ENDBRANCH   3  30
TORSDOF 8
ENDMDL
MODEL 9
REMARK VINA RESULT:      -7.9      4.793      7.758
REMARK  8 active torsions:
REMARK  status: ('A' for Active; 'I' for Inactive)
REMARK    1  A    between atoms: C_4  and  C_5 
REMARK    2  A    between atoms: C_5  and  N_6 
REMARK       I    between atoms: N_6  and  C_7 
REMARK       I    between atoms: C_7  and  N_8 
REMARK       I    between atoms: N_8  and  C_9 
REMARK    3  A    between atoms: C_9  and  C_10 
REMARK    4  A    between atoms: C_10  and  S_11 
REMARK    5  A    between atoms: S_11  and  C_12 
REMARK    6  A    between atoms: N_13  and  C_14 
REMARK    7  A    between atoms: C_21  and  C_22 
REMARK    8  A    between atoms: C_22  and  N_23 
ROOT
HETATM    1  C   UNL     1      41.542 -13.787   4.874  1.00  0.00     0.196 A 
HETATM    2  N   UNL     1      41.161 -14.764   3.973  1.00  0.00    -0.274 N 
HETATM    3  C   UNL     1      41.312 -15.948   4.684  1.00  0.00     0.161 A 
HETATM    4  N   UNL     1      41.768 -15.687   5.895  1.00  0.00    -0.132 NA
HETATM    5  N   UNL     1      41.902 -14.332   6.013  1.00  0.00    -0.122 NA
ENDROOT
BRANCH   1   6
HETATM    6  S   UNL     1      41.334 -12.086   4.616  1.00  0.00    -0.080 SA
BRANCH   6   7
HETATM    7  C   UNL     1      41.463 -11.450   6.316  1.00  0.00     0.185 C 
BRANCH   7   8
HETATM    8  C   UNL     1      40.102 -11.349   6.999  1.00  0.00     0.235 C 
HETATM    9  N   UNL     1      39.972 -10.497   8.077  1.00  0.00    -0.279 N 
HETATM   10  C   UNL     1      40.933  -9.728   8.694  1.00  0.00     0.323 C 
HETATM   11  H   UNL     1      39.065 -10.534   8.511  1.00  0.00     0.173 HD
HETATM   12  N   UNL     1      40.451  -9.112   9.822  1.00  0.00    -0.339 N 
HETATM   13  O   UNL     1      42.088  -9.612   8.309  1.00  0.00    -0.247 OA
HETATM   14  H   UNL     1      39.468  -8.889   9.865  1.00  0.00     0.164 HD
HETATM   15  O   UNL     1      39.103 -11.981   6.640  1.00  0.00    -0.272 OA
BRANCH  12  16
HETATM   16  C   UNL     1      41.324  -8.270  10.614  1.00  0.00     0.162 C 
BRANCH  16  17
HETATM   17  C   UNL     1      41.720  -8.967  11.887  1.00  0.00    -0.040 A 
HETATM   18  C   UNL     1      43.032  -8.863  12.374  1.00  0.00     0.009 A 
HETATM   19  C   UNL     1      43.409  -9.528  13.542  1.00  0.00     0.001 A 
HETATM   20  C   UNL     1      42.481 -10.307  14.232  1.00  0.00     0.000 A 
HETATM   21  C   UNL     1      41.176 -10.421  13.755  1.00  0.00     0.001 A 
HETATM   22  C   UNL     1      40.797  -9.757  12.587  1.00  0.00     0.009 A 
ENDBRANCH  16  17
ENDBRANCH  12  16
ENDBRANCH   7   8
ENDBRANCH   6   7
ENDBRANCH   1   6
BRANCH   2  23
HETATM   23  C   UNL     1      40.758 -14.625   2.621  1.00  0.00     0.043 A 
HETATM   24  C   UNL     1      41.720 -14.637   1.602  1.00  0.00     0.032 A 
HETATM   25  C   UNL     1      41.325 -14.514   0.267  1.00  0.00     0.026 A 
HETATM   26  C   UNL     1      39.977 -14.370  -0.049  1.00  0.00     0.034 A 
HETATM   27 CL   UNL     1      39.492 -14.217  -1.689  1.00  0.00    -0.084 Cl
HETATM   28  C   UNL     1      39.016 -14.344   0.962  1.00  0.00     0.026 A 
HETATM   29  C   UNL     1      39.403 -14.472   2.300  1.00  0.00     0.032 A 
ENDBRANCH   2  23
BRANCH   3  30
HETATM   30  C   UNL     1      41.166 -17.325   4.144  1.00  0.00     0.315 C 
BRANCH  30  31
HETATM   31  N   UNL     1      42.502 -17.891   3.669  1.00  0.00    -0.064 N 
HETATM   32  H   UNL     1      43.147 -17.083   3.698  1.00  0.00     0.280 HD
HETATM   33  C   UNL     1      43.064 -18.915   4.630  1.00  0.00     0.235 C 
HETATM   34  C   UNL     1      44.451 -19.338   4.172  1.00  0.00     0.028 C 
HETATM   35  C   UNL     1      44.433 -19.861   2.740  1.00  0.00     0.003 C 
HETATM   36  C   UNL     1      43.817 -18.837   1.794  1.00  0.00     0.028 C 
HETATM   37  C   UNL     1      42.434 -18.398   2.255  1.00  0.00     0.235 C 
ENDBRANCH  30  31
ENDBRANCH   3  30
TORSDOF 8
ENDMDL
MODEL 10
REMARK VINA RESULT:      -7.8      3.643      5.823
REMARK  8 active torsions:
REMARK  status: ('A' for Active; 'I' for Inactive)
REMARK    1  A    between atoms: C_4  and  C_5 
REMARK    2  A    between atoms: C_5  and  N_6 
REMARK       I    between atoms: N_6  and  C_7 
REMARK       I    between atoms: C_7  and  N_8 
REMARK       I    between atoms: N_8  and  C_9 
REMARK    3  A    between atoms: C_9  and  C_10 
REMARK    4  A    between atoms: C_10  and  S_11 
REMARK    5  A    between atoms: S_11  and  C_12 
REMARK    6  A    between atoms: N_13  and  C_14 
REMARK    7  A    between atoms: C_21  and  C_22 
REMARK    8  A    between atoms: C_22  and  N_23 
ROOT
HETATM    1  C   UNL     1      39.900 -13.657   2.312  1.00  0.00     0.196 A 
HETATM    2  N   UNL     1      40.658 -14.310   1.357  1.00  0.00    -0.274 N 
HETATM    3  C   UNL     1      40.515 -13.520   0.224  1.00  0.00     0.161 A 
HETATM    4  N   UNL     1      39.718 -12.501   0.486  1.00  0.00    -0.132 NA
HETATM    5  N   UNL     1      39.342 -12.585   1.797  1.00  0.00    -0.122 NA
ENDROOT
BRANCH   1   6
HETATM    6  S   UNL     1      39.894 -14.060   3.997  1.00  0.00    -0.080 SA
BRANCH   6   7
HETATM    7  C   UNL     1      40.867 -12.689   4.694  1.00  0.00     0.185 C 
BRANCH   7   8
HETATM    8  C   UNL     1      42.107 -13.180   5.436  1.00  0.00     0.235 C 
HETATM    9  N   UNL     1      42.434 -12.578   6.634  1.00  0.00    -0.279 N 
HETATM   10  C   UNL     1      41.820 -11.522   7.269  1.00  0.00     0.323 C 
HETATM   11  H   UNL     1      43.297 -12.913   7.029  1.00  0.00     0.173 HD
HETATM   12  N   UNL     1      42.516 -11.116   8.380  1.00  0.00    -0.339 N 
HETATM   13  O   UNL     1      40.790 -10.983   6.890  1.00  0.00    -0.247 OA
HETATM   14  H   UNL     1      43.071 -11.799   8.875  1.00  0.00     0.164 HD
HETATM   15  O   UNL     1      42.834 -14.093   5.032  1.00  0.00    -0.272 OA
BRANCH  12  16
HETATM   16  C   UNL     1      42.030 -10.005   9.171  1.00  0.00     0.162 C 
BRANCH  16  17
HETATM   17  C   UNL     1      42.245 -10.265  10.637  1.00  0.00    -0.040 A 
HETATM   18  C   UNL     1      41.268 -10.936  11.389  1.00  0.00     0.009 A 
HETATM   19  C   UNL     1      41.455 -11.157  12.755  1.00  0.00     0.001 A 
HETATM   20  C   UNL     1      42.615 -10.708  13.383  1.00  0.00     0.000 A 
HETATM   21  C   UNL     1      43.590 -10.037  12.646  1.00  0.00     0.001 A 
HETATM   22  C   UNL     1      43.406  -9.814  11.280  1.00  0.00     0.009 A 
ENDBRANCH  16  17
ENDBRANCH  12  16
ENDBRANCH   7   8
ENDBRANCH   6   7
ENDBRANCH   1   6
BRANCH   2  23
HETATM   23  C   UNL     1      41.378 -15.526   1.467  1.00  0.00     0.043 A 
HETATM   24  C   UNL     1      40.723 -16.746   1.248  1.00  0.00     0.032 A 
HETATM   25  C   UNL     1      41.433 -17.946   1.342  1.00  0.00     0.026 A 
HETATM   26  C   UNL     1      42.788 -17.929   1.660  1.00  0.00     0.034 A 
HETATM   27 CL   UNL     1      43.661 -19.404   1.776  1.00  0.00    -0.084 Cl
HETATM   28  C   UNL     1      43.442 -16.719   1.891  1.00  0.00     0.026 A 
HETATM   29  C   UNL     1      42.740 -15.514   1.795  1.00  0.00     0.032 A 
ENDBRANCH   2  23
BRANCH   3  30
HETATM   30  C   UNL     1      41.019 -13.836  -1.139  1.00  0.00     0.315 C 
BRANCH  30  31
HETATM   31  N   UNL     1      40.037 -14.711  -1.915  1.00  0.00    -0.064 N 
HETATM   32  H   UNL     1      39.542 -15.250  -1.185  1.00  0.00     0.280 HD
HETATM   33  C   UNL     1      38.982 -13.894  -2.627  1.00  0.00     0.235 C 
HETATM   34  C   UNL     1      37.961 -14.824  -3.266  1.00  0.00     0.028 C 
HETATM   35  C   UNL     1      38.627 -15.824  -4.205  1.00  0.00     0.003 C 
HETATM   36  C   UNL     1      39.723 -16.602  -3.486  1.00  0.00     0.028 C 
HETATM   37  C   UNL     1      40.739 -15.676  -2.831  1.00  0.00     0.235 C 
ENDBRANCH  30  31
ENDBRANCH   3  30
TORSDOF 8
ENDMDL
