MODEL 1
REMARK VINA RESULT:      -8.2      0.000      0.000
REMARK  7 active torsions:
REMARK  status: ('A' for Active; 'I' for Inactive)
REMARK       I    between atoms: N_2  and  C_3 
REMARK    1  A    between atoms: N_2  and  C_17 
REMARK       I    between atoms: C_3  and  N_4 
REMARK    2  A    between atoms: N_4  and  C_5 
REMARK    3  A    between atoms: N_6  and  C_7 
REMARK    4  A    between atoms: C_17  and  C_18 
REMARK    5  A    between atoms: C_18  and  C_19 
REMARK    6  A    between atoms: C_19  and  O_20 
REMARK    7  A    between atoms: C_19  and  C_21 
ROOT
HETATM    1  C   UNL     1      45.094 -14.095   6.857  1.00  0.00     0.154 C 
HETATM    2  N   UNL     1      43.828 -14.788   6.670  1.00  0.00    -0.343 N 
HETATM    3  C   UNL     1      43.088 -14.462   5.529  1.00  0.00     0.301 C 
HETATM    4  N   UNL     1      41.854 -15.093   5.456  1.00  0.00    -0.194 NA
HETATM    5  O   UNL     1      43.508 -13.658   4.698  1.00  0.00    -0.254 OA
HETATM    6  H   UNL     1      41.399 -15.041   6.361  1.00  0.00     0.140 HD
ENDROOT
BRANCH   2   7
HETATM    7  C   UNL     1      43.629 -16.016   7.439  1.00  0.00     0.129 C 
BRANCH   7   8
HETATM    8  C   UNL     1      44.393 -17.235   6.903  1.00  0.00     0.056 C 
BRANCH   8   9
HETATM    9  C   UNL     1      43.725 -18.601   7.134  1.00  0.00     0.152 C 
BRANCH   9  10
HETATM   10  O   UNL     1      43.934 -18.974   8.501  1.00  0.00    -0.391 OA
HETATM   11  H   UNL     1      43.643 -19.898   8.594  1.00  0.00     0.210 HD
ENDBRANCH   9  10
BRANCH   9  12
HETATM   12  C   UNL     1      44.107 -19.772   6.249  1.00  0.00    -0.030 A 
HETATM   13  C   UNL     1      44.745 -19.522   5.018  1.00  0.00     0.010 A 
HETATM   14  C   UNL     1      45.152 -20.565   4.184  1.00  0.00     0.001 A 
HETATM   15  C   UNL     1      44.934 -21.883   4.566  1.00  0.00     0.000 A 
HETATM   16  C   UNL     1      44.321 -22.155   5.786  1.00  0.00     0.001 A 
HETATM   17  C   UNL     1      43.924 -21.109   6.626  1.00  0.00     0.010 A 
ENDBRANCH   9  12
ENDBRANCH   8   9
ENDBRANCH   7   8
ENDBRANCH   2   7
BRANCH   4  18
HETATM   18  C   UNL     1      41.029 -14.732   4.399  1.00  0.00     0.109 A 
HETATM   19  N   UNL     1      40.867 -15.444   3.223  1.00  0.00    -0.254 N 
HETATM   20  N   UNL     1      40.049 -14.798   2.354  1.00  0.00    -0.183 NA
HETATM   21  C   UNL     1      39.646 -13.718   3.021  1.00  0.00     0.142 A 
HETATM   22  C   UNL     1      40.185 -13.652   4.314  1.00  0.00     0.065 A 
BRANCH  19  23
HETATM   23  C   UNL     1      41.197 -16.857   3.004  1.00  0.00     0.111 C 
HETATM   24  C   UNL     1      40.994 -17.337   1.547  1.00  0.00     0.027 C 
HETATM   25  C   UNL     1      42.146 -16.978   0.602  1.00  0.00     0.002 C 
HETATM   26  C   UNL     1      43.506 -17.367   1.170  1.00  0.00     0.000 C 
HETATM   27  C   UNL     1      43.709 -16.812   2.574  1.00  0.00     0.002 C 
HETATM   28  C   UNL     1      42.590 -17.257   3.507  1.00  0.00     0.027 C 
ENDBRANCH  19  23
ENDBRANCH   4  18
TORSDOF 7
ENDMDL
MODEL 2
REMARK VINA RESULT:      -8.0      2.743      4.079
REMARK  7 active torsions:
REMARK  status: ('A' for Active; 'I' for Inactive)
REMARK       I    between atoms: N_2  and  C_3 
REMARK    1  A    between atoms: N_2  and  C_17 
REMARK       I    between atoms: C_3  and  N_4 
REMARK    2  A    between atoms: N_4  and  C_5 
REMARK    3  A    between atoms: N_6  and  C_7 
REMARK    4  A    between atoms: C_17  and  C_18 
REMARK    5  A    between atoms: C_18  and  C_19 
REMARK    6  A    between atoms: C_19  and  O_20 
REMARK    7  A    between atoms: C_19  and  C_21 
ROOT
HETATM    1  C   UNL     1      41.081 -15.118   5.818  1.00  0.00     0.154 C 
HETATM    2  N   UNL     1      40.726 -15.747   4.554  1.00  0.00    -0.343 N 
HETATM    3  C   UNL     1      40.226 -14.914   3.549  1.00  0.00     0.301 C 
HETATM    4  N   UNL     1      39.825 -15.588   2.403  1.00  0.00    -0.194 NA
HETATM    5  O   UNL     1      40.131 -13.698   3.709  1.00  0.00    -0.254 OA
HETATM    6  H   UNL     1      39.287 -16.405   2.669  1.00  0.00     0.140 HD
ENDROOT
BRANCH   2   7
HETATM    7  C   UNL     1      41.280 -17.078   4.302  1.00  0.00     0.129 C 
BRANCH   7   8
HETATM    8  C   UNL     1      42.801 -17.107   4.102  1.00  0.00     0.056 C 
BRANCH   8   9
HETATM    9  C   UNL     1      43.294 -17.748   2.793  1.00  0.00     0.152 C 
BRANCH   9  10
HETATM   10  O   UNL     1      42.284 -17.558   1.796  1.00  0.00    -0.391 OA
HETATM   11  H   UNL     1      41.499 -18.055   2.084  1.00  0.00     0.210 HD
ENDBRANCH   9  10
BRANCH   9  12
HETATM   12  C   UNL     1      43.706 -19.208   2.793  1.00  0.00    -0.030 A 
HETATM   13  C   UNL     1      44.414 -19.722   3.897  1.00  0.00     0.010 A 
HETATM   14  C   UNL     1      44.782 -21.067   3.964  1.00  0.00     0.001 A 
HETATM   15  C   UNL     1      44.446 -21.929   2.928  1.00  0.00     0.000 A 
HETATM   16  C   UNL     1      43.731 -21.448   1.834  1.00  0.00     0.001 A 
HETATM   17  C   UNL     1      43.353 -20.103   1.774  1.00  0.00     0.010 A 
ENDBRANCH   9  12
ENDBRANCH   8   9
ENDBRANCH   7   8
ENDBRANCH   2   7
BRANCH   4  18
HETATM   18  C   UNL     1      39.225 -14.827   1.409  1.00  0.00     0.109 A 
HETATM   19  N   UNL     1      39.877 -14.241   0.338  1.00  0.00    -0.254 N 
HETATM   20  N   UNL     1      39.029 -13.501  -0.422  1.00  0.00    -0.183 NA
HETATM   21  C   UNL     1      37.835 -13.689   0.139  1.00  0.00     0.142 A 
HETATM   22  C   UNL     1      37.890 -14.543   1.250  1.00  0.00     0.065 A 
BRANCH  19  23
HETATM   23  C   UNL     1      41.201 -14.600  -0.182  1.00  0.00     0.111 C 
HETATM   24  C   UNL     1      41.206 -15.855  -1.089  1.00  0.00     0.027 C 
HETATM   25  C   UNL     1      40.772 -15.586  -2.534  1.00  0.00     0.002 C 
HETATM   26  C   UNL     1      41.510 -14.404  -3.152  1.00  0.00     0.000 C 
HETATM   27  C   UNL     1      41.417 -13.162  -2.275  1.00  0.00     0.002 C 
HETATM   28  C   UNL     1      41.936 -13.443  -0.870  1.00  0.00     0.027 C 
ENDBRANCH  19  23
ENDBRANCH   4  18
TORSDOF 7
ENDMDL
MODEL 3
REMARK VINA RESULT:      -7.7      1.934      2.611
REMARK  7 active torsions:
REMARK  status: ('A' for Active; 'I' for Inactive)
REMARK       I    between atoms: N_2  and  C_3 
REMARK    1  A    between atoms: N_2  and  C_17 
REMARK       I    between atoms: C_3  and  N_4 
REMARK    2  A    between atoms: N_4  and  C_5 
REMARK    3  A    between atoms: N_6  and  C_7 
REMARK    4  A    between atoms: C_17  and  C_18 
REMARK    5  A    between atoms: C_18  and  C_19 
REMARK    6  A    between atoms: C_19  and  O_20 
REMARK    7  A    between atoms: C_19  and  C_21 
ROOT
HETATM    1  C   UNL     1      44.766 -14.754   6.862  1.00  0.00     0.154 C 
HETATM    2  N   UNL     1      43.367 -15.122   6.698  1.00  0.00    -0.343 N 
HETATM    3  C   UNL     1      42.571 -14.264   5.933  1.00  0.00     0.301 C 
HETATM    4  N   UNL     1      41.231 -14.624   5.889  1.00  0.00    -0.194 NA
HETATM    5  O   UNL     1      43.041 -13.266   5.387  1.00  0.00    -0.254 OA
HETATM    6  H   UNL     1      40.922 -14.870   6.823  1.00  0.00     0.140 HD
ENDROOT
BRANCH   2   7
HETATM    7  C   UNL     1      43.012 -16.511   6.988  1.00  0.00     0.129 C 
BRANCH   7   8
HETATM    8  C   UNL     1      43.718 -17.547   6.103  1.00  0.00     0.056 C 
BRANCH   8   9
HETATM    9  C   UNL     1      43.175 -17.688   4.671  1.00  0.00     0.152 C 
BRANCH   9  10
HETATM   10  O   UNL     1      41.746 -17.619   4.727  1.00  0.00    -0.391 OA
HETATM   11  H   UNL     1      41.443 -18.374   5.262  1.00  0.00     0.210 HD
ENDBRANCH   9  10
BRANCH   9  12
HETATM   12  C   UNL     1      43.569 -18.897   3.844  1.00  0.00    -0.030 A 
HETATM   13  C   UNL     1      44.421 -19.866   4.410  1.00  0.00     0.010 A 
HETATM   14  C   UNL     1      44.783 -21.017   3.706  1.00  0.00     0.001 A 
HETATM   15  C   UNL     1      44.296 -21.225   2.422  1.00  0.00     0.000 A 
HETATM   16  C   UNL     1      43.439 -20.290   1.849  1.00  0.00     0.001 A 
HETATM   17  C   UNL     1      43.068 -19.143   2.559  1.00  0.00     0.010 A 
ENDBRANCH   9  12
ENDBRANCH   8   9
ENDBRANCH   7   8
ENDBRANCH   2   7
BRANCH   4  18
HETATM   18  C   UNL     1      40.372 -13.755   5.230  1.00  0.00     0.109 A 
HETATM   19  N   UNL     1      40.042 -13.812   3.887  1.00  0.00    -0.254 N 
HETATM   20  N   UNL     1      39.234 -12.782   3.525  1.00  0.00    -0.183 NA
HETATM   21  C   UNL     1      39.005 -12.128   4.662  1.00  0.00     0.142 A 
HETATM   22  C   UNL     1      39.647 -12.716   5.762  1.00  0.00     0.065 A 
BRANCH  19  23
HETATM   23  C   UNL     1      40.196 -14.968   2.997  1.00  0.00     0.111 C 
HETATM   24  C   UNL     1      39.068 -15.114   1.947  1.00  0.00     0.027 C 
HETATM   25  C   UNL     1      39.235 -14.215   0.717  1.00  0.00     0.002 C 
HETATM   26  C   UNL     1      40.629 -14.315   0.109  1.00  0.00     0.000 C 
HETATM   27  C   UNL     1      41.716 -14.086   1.151  1.00  0.00     0.002 C 
HETATM   28  C   UNL     1      41.570 -15.054   2.319  1.00  0.00     0.027 C 
ENDBRANCH  19  23
ENDBRANCH   4  18
TORSDOF 7
ENDMDL
MODEL 4
REMARK VINA RESULT:      -7.6      4.439      6.026
REMARK  7 active torsions:
REMARK  status: ('A' for Active; 'I' for Inactive)
REMARK       I    between atoms: N_2  and  C_3 
REMARK    1  A    between atoms: N_2  and  C_17 
REMARK       I    between atoms: C_3  and  N_4 
REMARK    2  A    between atoms: N_4  and  C_5 
REMARK    3  A    between atoms: N_6  and  C_7 
REMARK    4  A    between atoms: C_17  and  C_18 
REMARK    5  A    between atoms: C_18  and  C_19 
REMARK    6  A    between atoms: C_19  and  O_20 
REMARK    7  A    between atoms: C_19  and  C_21 
ROOT
HETATM    1  C   UNL     1      40.533 -15.563   2.545  1.00  0.00     0.154 C 
HETATM    2  N   UNL     1      40.725 -15.728   1.112  1.00  0.00    -0.343 N 
HETATM    3  C   UNL     1      40.216 -14.724   0.283  1.00  0.00     0.301 C 
HETATM    4  N   UNL     1      40.355 -14.986  -1.073  1.00  0.00    -0.194 NA
HETATM    5  O   UNL     1      39.669 -13.724   0.745  1.00  0.00    -0.254 OA
HETATM    6  H   UNL     1      40.089 -15.947  -1.255  1.00  0.00     0.140 HD
ENDROOT
BRANCH   2   7
HETATM    7  C   UNL     1      41.749 -16.684   0.690  1.00  0.00     0.129 C 
BRANCH   7   8
HETATM    8  C   UNL     1      41.897 -17.905   1.608  1.00  0.00     0.056 C 
BRANCH   8   9
HETATM    9  C   UNL     1      43.281 -18.096   2.253  1.00  0.00     0.152 C 
BRANCH   9  10
HETATM   10  O   UNL     1      44.261 -17.521   1.383  1.00  0.00    -0.391 OA
HETATM   11  H   UNL     1      44.492 -16.648   1.747  1.00  0.00     0.210 HD
ENDBRANCH   9  10
BRANCH   9  12
HETATM   12  C   UNL     1      43.733 -19.493   2.635  1.00  0.00    -0.030 A 
HETATM   13  C   UNL     1      43.541 -20.550   1.724  1.00  0.00     0.010 A 
HETATM   14  C   UNL     1      43.974 -21.846   2.010  1.00  0.00     0.001 A 
HETATM   15  C   UNL     1      44.614 -22.112   3.214  1.00  0.00     0.000 A 
HETATM   16  C   UNL     1      44.830 -21.080   4.123  1.00  0.00     0.001 A 
HETATM   17  C   UNL     1      44.406 -19.780   3.830  1.00  0.00     0.010 A 
ENDBRANCH   9  12
ENDBRANCH   8   9
ENDBRANCH   7   8
ENDBRANCH   2   7
BRANCH   4  18
HETATM   18  C   UNL     1      39.777 -14.074  -1.947  1.00  0.00     0.109 A 
HETATM   19  N   UNL     1      40.438 -13.038  -2.584  1.00  0.00    -0.254 N 
HETATM   20  N   UNL     1      39.587 -12.278  -3.319  1.00  0.00    -0.183 NA
HETATM   21  C   UNL     1      38.409 -12.887  -3.196  1.00  0.00     0.142 A 
HETATM   22  C   UNL     1      38.479 -14.036  -2.395  1.00  0.00     0.065 A 
BRANCH  19  23
HETATM   23  C   UNL     1      41.886 -12.917  -2.784  1.00  0.00     0.111 C 
HETATM   24  C   UNL     1      42.289 -11.976  -3.945  1.00  0.00     0.027 C 
HETATM   25  C   UNL     1      42.270 -10.487  -3.581  1.00  0.00     0.002 C 
HETATM   26  C   UNL     1      43.028 -10.196  -2.290  1.00  0.00     0.000 C 
HETATM   27  C   UNL     1      42.552 -11.081  -1.146  1.00  0.00     0.002 C 
HETATM   28  C   UNL     1      42.664 -12.557  -1.512  1.00  0.00     0.027 C 
ENDBRANCH  19  23
ENDBRANCH   4  18
TORSDOF 7
ENDMDL
MODEL 5
REMARK VINA RESULT:      -7.6      2.431      5.583
REMARK  7 active torsions:
REMARK  status: ('A' for Active; 'I' for Inactive)
REMARK       I    between atoms: N_2  and  C_3 
REMARK    1  A    between atoms: N_2  and  C_17 
REMARK       I    between atoms: C_3  and  N_4 
REMARK    2  A    between atoms: N_4  and  C_5 
REMARK    3  A    between atoms: N_6  and  C_7 
REMARK    4  A    between atoms: C_17  and  C_18 
REMARK    5  A    between atoms: C_18  and  C_19 
REMARK    6  A    between atoms: C_19  and  O_20 
REMARK    7  A    between atoms: C_19  and  C_21 
ROOT
HETATM    1  C   UNL     1      44.749 -14.794   6.750  1.00  0.00     0.154 C 
HETATM    2  N   UNL     1      43.752 -15.832   6.536  1.00  0.00    -0.343 N 
HETATM    3  C   UNL     1      44.165 -17.156   6.718  1.00  0.00     0.301 C 
HETATM    4  N   UNL     1      43.193 -18.099   6.413  1.00  0.00    -0.194 NA
HETATM    5  O   UNL     1      45.307 -17.429   7.086  1.00  0.00    -0.254 OA
HETATM    6  H   UNL     1      42.746 -17.845   5.538  1.00  0.00     0.140 HD
ENDROOT
BRANCH   2   7
HETATM    7  C   UNL     1      42.351 -15.413   6.546  1.00  0.00     0.129 C 
BRANCH   7   8
HETATM    8  C   UNL     1      41.862 -14.792   5.230  1.00  0.00     0.056 C 
BRANCH   8   9
HETATM    9  C   UNL     1      40.876 -15.643   4.412  1.00  0.00     0.152 C 
BRANCH   9  10
HETATM   10  O   UNL     1      40.622 -16.851   5.136  1.00  0.00    -0.391 OA
HETATM   11  H   UNL     1      39.671 -16.872   5.338  1.00  0.00     0.210 HD
ENDBRANCH   9  10
BRANCH   9  12
HETATM   12  C   UNL     1      41.218 -16.000   2.978  1.00  0.00    -0.030 A 
HETATM   13  C   UNL     1      40.357 -16.852   2.259  1.00  0.00     0.010 A 
HETATM   14  C   UNL     1      40.605 -17.181   0.924  1.00  0.00     0.001 A 
HETATM   15  C   UNL     1      41.720 -16.660   0.279  1.00  0.00     0.000 A 
HETATM   16  C   UNL     1      42.576 -15.802   0.964  1.00  0.00     0.001 A 
HETATM   17  C   UNL     1      42.319 -15.464   2.297  1.00  0.00     0.010 A 
ENDBRANCH   9  12
ENDBRANCH   8   9
ENDBRANCH   7   8
ENDBRANCH   2   7
BRANCH   4  18
HETATM   18  C   UNL     1      43.575 -19.432   6.476  1.00  0.00     0.109 A 
HETATM   19  N   UNL     1      44.132 -20.160   5.439  1.00  0.00    -0.254 N 
HETATM   20  N   UNL     1      44.331 -21.457   5.787  1.00  0.00    -0.183 NA
HETATM   21  C   UNL     1      43.965 -21.515   7.066  1.00  0.00     0.142 A 
HETATM   22  C   UNL     1      43.533 -20.275   7.560  1.00  0.00     0.065 A 
BRANCH  19  23
HETATM   23  C   UNL     1      44.777 -19.618   4.237  1.00  0.00     0.111 C 
HETATM   24  C   UNL     1      45.369 -20.695   3.296  1.00  0.00     0.027 C 
HETATM   25  C   UNL     1      44.338 -21.359   2.376  1.00  0.00     0.002 C 
HETATM   26  C   UNL     1      43.472 -20.341   1.643  1.00  0.00     0.000 C 
HETATM   27  C   UNL     1      42.838 -19.345   2.605  1.00  0.00     0.002 C 
HETATM   28  C   UNL     1      43.898 -18.642   3.445  1.00  0.00     0.027 C 
ENDBRANCH  19  23
ENDBRANCH   4  18
TORSDOF 7
ENDMDL
MODEL 6
REMARK VINA RESULT:      -7.4      3.123      6.872
REMARK  7 active torsions:
REMARK  status: ('A' for Active; 'I' for Inactive)
REMARK       I    between atoms: N_2  and  C_3 
REMARK    1  A    between atoms: N_2  and  C_17 
REMARK       I    between atoms: C_3  and  N_4 
REMARK    2  A    between atoms: N_4  and  C_5 
REMARK    3  A    between atoms: N_6  and  C_7 
REMARK    4  A    between atoms: C_17  and  C_18 
REMARK    5  A    between atoms: C_18  and  C_19 
REMARK    6  A    between atoms: C_19  and  O_20 
REMARK    7  A    between atoms: C_19  and  C_21 
ROOT
HETATM    1  C   UNL     1      41.257 -15.074   5.753  1.00  0.00     0.154 C 
HETATM    2  N   UNL     1      42.524 -15.707   6.088  1.00  0.00    -0.343 N 
HETATM    3  C   UNL     1      42.561 -17.104   6.064  1.00  0.00     0.301 C 
HETATM    4  N   UNL     1      43.771 -17.645   6.477  1.00  0.00    -0.194 NA
HETATM    5  O   UNL     1      41.580 -17.769   5.733  1.00  0.00    -0.254 OA
HETATM    6  H   UNL     1      44.081 -17.165   7.315  1.00  0.00     0.140 HD
ENDROOT
BRANCH   2   7
HETATM    7  C   UNL     1      43.718 -14.864   6.026  1.00  0.00     0.129 C 
BRANCH   7   8
HETATM    8  C   UNL     1      44.253 -14.417   7.394  1.00  0.00     0.056 C 
BRANCH   8   9
HETATM    9  C   UNL     1      44.903 -13.024   7.436  1.00  0.00     0.152 C 
BRANCH   9  10
HETATM   10  O   UNL     1      46.304 -13.177   7.183  1.00  0.00    -0.391 OA
HETATM   11  H   UNL     1      46.746 -13.251   8.047  1.00  0.00     0.210 HD
ENDBRANCH   9  10
BRANCH   9  12
HETATM   12  C   UNL     1      44.727 -12.161   8.672  1.00  0.00    -0.030 A 
HETATM   13  C   UNL     1      43.526 -11.445   8.843  1.00  0.00     0.010 A 
HETATM   14  C   UNL     1      43.297 -10.669   9.981  1.00  0.00     0.001 A 
HETATM   15  C   UNL     1      44.264 -10.595  10.975  1.00  0.00     0.000 A 
HETATM   16  C   UNL     1      45.452 -11.307  10.836  1.00  0.00     0.001 A 
HETATM   17  C   UNL     1      45.675 -12.095   9.701  1.00  0.00     0.010 A 
ENDBRANCH   9  12
ENDBRANCH   8   9
ENDBRANCH   7   8
ENDBRANCH   2   7
BRANCH   4  18
HETATM   18  C   UNL     1      43.837 -19.029   6.573  1.00  0.00     0.109 A 
HETATM   19  N   UNL     1      44.157 -19.894   5.542  1.00  0.00    -0.254 N 
HETATM   20  N   UNL     1      44.068 -21.192   5.930  1.00  0.00    -0.183 NA
HETATM   21  C   UNL     1      43.761 -21.128   7.224  1.00  0.00     0.142 A 
HETATM   22  C   UNL     1      43.654 -19.810   7.689  1.00  0.00     0.065 A 
BRANCH  19  23
HETATM   23  C   UNL     1      44.850 -19.549   4.295  1.00  0.00     0.111 C 
HETATM   24  C   UNL     1      45.371 -20.772   3.501  1.00  0.00     0.027 C 
HETATM   25  C   UNL     1      44.302 -21.469   2.651  1.00  0.00     0.002 C 
HETATM   26  C   UNL     1      43.519 -20.489   1.785  1.00  0.00     0.000 C 
HETATM   27  C   UNL     1      42.950 -19.340   2.609  1.00  0.00     0.002 C 
HETATM   28  C   UNL     1      44.051 -18.617   3.375  1.00  0.00     0.027 C 
ENDBRANCH  19  23
ENDBRANCH   4  18
TORSDOF 7
ENDMDL
MODEL 7
REMARK VINA RESULT:      -7.3      2.175      5.586
REMARK  7 active torsions:
REMARK  status: ('A' for Active; 'I' for Inactive)
REMARK       I    between atoms: N_2  and  C_3 
REMARK    1  A    between atoms: N_2  and  C_17 
REMARK       I    between atoms: C_3  and  N_4 
REMARK    2  A    between atoms: N_4  and  C_5 
REMARK    3  A    between atoms: N_6  and  C_7 
REMARK    4  A    between atoms: C_17  and  C_18 
REMARK    5  A    between atoms: C_18  and  C_19 
REMARK    6  A    between atoms: C_19  and  O_20 
REMARK    7  A    between atoms: C_19  and  C_21 
ROOT
HETATM    1  C   UNL     1      39.445 -12.685   3.348  1.00  0.00     0.154 C 
HETATM    2  N   UNL     1      40.310 -13.835   3.564  1.00  0.00    -0.343 N 
HETATM    3  C   UNL     1      41.254 -13.735   4.590  1.00  0.00     0.301 C 
HETATM    4  N   UNL     1      42.104 -14.829   4.686  1.00  0.00    -0.194 NA
HETATM    5  O   UNL     1      41.323 -12.738   5.306  1.00  0.00    -0.254 OA
HETATM    6  H   UNL     1      42.420 -15.087   3.757  1.00  0.00     0.140 HD
ENDROOT
BRANCH   2   7
HETATM    7  C   UNL     1      39.872 -15.107   2.989  1.00  0.00     0.129 C 
BRANCH   7   8
HETATM    8  C   UNL     1      39.709 -15.093   1.462  1.00  0.00     0.056 C 
BRANCH   8   9
HETATM    9  C   UNL     1      40.984 -15.377   0.650  1.00  0.00     0.152 C 
BRANCH   9  10
HETATM   10  O   UNL     1      40.598 -15.669  -0.698  1.00  0.00    -0.391 OA
HETATM   11  H   UNL     1      39.662 -15.420  -0.789  1.00  0.00     0.210 HD
ENDBRANCH   9  10
BRANCH   9  12
HETATM   12  C   UNL     1      41.940 -16.456   1.124  1.00  0.00    -0.030 A 
HETATM   13  C   UNL     1      41.467 -17.774   1.276  1.00  0.00     0.010 A 
HETATM   14  C   UNL     1      42.314 -18.811   1.672  1.00  0.00     0.001 A 
HETATM   15  C   UNL     1      43.656 -18.551   1.920  1.00  0.00     0.000 A 
HETATM   16  C   UNL     1      44.151 -17.260   1.760  1.00  0.00     0.001 A 
HETATM   17  C   UNL     1      43.303 -16.224   1.352  1.00  0.00     0.010 A 
ENDBRANCH   9  12
ENDBRANCH   8   9
ENDBRANCH   7   8
ENDBRANCH   2   7
BRANCH   4  18
HETATM   18  C   UNL     1      43.129 -14.744   5.619  1.00  0.00     0.109 A 
HETATM   19  N   UNL     1      43.240 -15.511   6.766  1.00  0.00    -0.254 N 
HETATM   20  N   UNL     1      44.314 -15.144   7.511  1.00  0.00    -0.183 NA
HETATM   21  C   UNL     1      44.910 -14.198   6.788  1.00  0.00     0.142 A 
HETATM   22  C   UNL     1      44.244 -13.943   5.580  1.00  0.00     0.065 A 
BRANCH  19  23
HETATM   23  C   UNL     1      42.561 -16.783   7.036  1.00  0.00     0.111 C 
HETATM   24  C   UNL     1      42.279 -17.632   5.773  1.00  0.00     0.027 C 
HETATM   25  C   UNL     1      43.483 -18.442   5.280  1.00  0.00     0.002 C 
HETATM   26  C   UNL     1      44.142 -19.242   6.398  1.00  0.00     0.000 C 
HETATM   27  C   UNL     1      44.482 -18.364   7.595  1.00  0.00     0.002 C 
HETATM   28  C   UNL     1      43.245 -17.638   8.111  1.00  0.00     0.027 C 
ENDBRANCH  19  23
ENDBRANCH   4  18
TORSDOF 7
ENDMDL
MODEL 8
REMARK VINA RESULT:      -7.3      2.499      4.522
REMARK  7 active torsions:
REMARK  status: ('A' for Active; 'I' for Inactive)
REMARK       I    between atoms: N_2  and  C_3 
REMARK    1  A    between atoms: N_2  and  C_17 
REMARK       I    between atoms: C_3  and  N_4 
REMARK    2  A    between atoms: N_4  and  C_5 
REMARK    3  A    between atoms: N_6  and  C_7 
REMARK    4  A    between atoms: C_17  and  C_18 
REMARK    5  A    between atoms: C_18  and  C_19 
REMARK    6  A    between atoms: C_19  and  O_20 
REMARK    7  A    between atoms: C_19  and  C_21 
ROOT
HETATM    1  C   UNL     1      42.901 -14.412   5.176  1.00  0.00     0.154 C 
HETATM    2  N   UNL     1      42.235 -15.228   4.170  1.00  0.00    -0.343 N 
HETATM    3  C   UNL     1      42.003 -14.635   2.926  1.00  0.00     0.301 C 
HETATM    4  N   UNL     1      41.288 -15.434   2.043  1.00  0.00    -0.194 NA
HETATM    5  O   UNL     1      42.382 -13.492   2.676  1.00  0.00    -0.254 OA
HETATM    6  H   UNL     1      40.507 -15.856   2.534  1.00  0.00     0.140 HD
ENDROOT
BRANCH   2   7
HETATM    7  C   UNL     1      42.229 -16.673   4.392  1.00  0.00     0.129 C 
BRANCH   7   8
HETATM    8  C   UNL     1      43.557 -17.373   4.068  1.00  0.00     0.056 C 
BRANCH   8   9
HETATM    9  C   UNL     1      43.577 -18.209   2.777  1.00  0.00     0.152 C 
BRANCH   9  10
HETATM   10  O   UNL     1      42.299 -18.084   2.145  1.00  0.00    -0.391 OA
HETATM   11  H   UNL     1      41.874 -18.958   2.179  1.00  0.00     0.210 HD
ENDBRANCH   9  10
BRANCH   9  12
HETATM   12  C   UNL     1      43.938 -19.681   2.853  1.00  0.00    -0.030 A 
HETATM   13  C   UNL     1      44.548 -20.178   4.021  1.00  0.00     0.010 A 
HETATM   14  C   UNL     1      44.864 -21.531   4.158  1.00  0.00     0.001 A 
HETATM   15  C   UNL     1      44.572 -22.418   3.129  1.00  0.00     0.000 A 
HETATM   16  C   UNL     1      43.953 -21.952   1.972  1.00  0.00     0.001 A 
HETATM   17  C   UNL     1      43.627 -20.598   1.841  1.00  0.00     0.010 A 
ENDBRANCH   9  12
ENDBRANCH   8   9
ENDBRANCH   7   8
ENDBRANCH   2   7
BRANCH   4  18
HETATM   18  C   UNL     1      40.937 -14.863   0.828  1.00  0.00     0.109 A 
HETATM   19  N   UNL     1      39.674 -14.413   0.484  1.00  0.00    -0.254 N 
HETATM   20  N   UNL     1      39.631 -13.971  -0.799  1.00  0.00    -0.183 NA
HETATM   21  C   UNL     1      40.887 -14.079  -1.227  1.00  0.00     0.142 A 
HETATM   22  C   UNL     1      41.751 -14.581  -0.243  1.00  0.00     0.065 A 
BRANCH  19  23
HETATM   23  C   UNL     1      38.580 -14.088   1.406  1.00  0.00     0.111 C 
HETATM   24  C   UNL     1      38.898 -12.930   2.384  1.00  0.00     0.027 C 
HETATM   25  C   UNL     1      38.728 -11.533   1.777  1.00  0.00     0.002 C 
HETATM   26  C   UNL     1      37.386 -11.365   1.074  1.00  0.00     0.000 C 
HETATM   27  C   UNL     1      37.139 -12.474   0.060  1.00  0.00     0.002 C 
HETATM   28  C   UNL     1      37.232 -13.847   0.715  1.00  0.00     0.027 C 
ENDBRANCH  19  23
ENDBRANCH   4  18
TORSDOF 7
ENDMDL
MODEL 9
REMARK VINA RESULT:      -7.2      2.702      6.855
REMARK  7 active torsions:
REMARK  status: ('A' for Active; 'I' for Inactive)
REMARK       I    between atoms: N_2  and  C_3 
REMARK    1  A    between atoms: N_2  and  C_17 
REMARK       I    between atoms: C_3  and  N_4 
REMARK    2  A    between atoms: N_4  and  C_5 
REMARK    3  A    between atoms: N_6  and  C_7 
REMARK    4  A    between atoms: C_17  and  C_18 
REMARK    5  A    between atoms: C_18  and  C_19 
REMARK    6  A    between atoms: C_19  and  O_20 
REMARK    7  A    between atoms: C_19  and  C_21 
ROOT
HETATM    1  C   UNL     1      41.940 -15.337   0.268  1.00  0.00     0.154 C 
HETATM    2  N   UNL     1      41.591 -16.435   1.156  1.00  0.00    -0.343 N 
HETATM    3  C   UNL     1      42.638 -17.244   1.607  1.00  0.00     0.301 C 
HETATM    4  N   UNL     1      42.228 -18.323   2.378  1.00  0.00    -0.194 NA
HETATM    5  O   UNL     1      43.807 -17.012   1.303  1.00  0.00    -0.254 OA
HETATM    6  H   UNL     1      41.429 -18.764   1.935  1.00  0.00     0.140 HD
ENDROOT
BRANCH   2   7
HETATM    7  C   UNL     1      40.284 -16.365   1.809  1.00  0.00     0.129 C 
BRANCH   7   8
HETATM    8  C   UNL     1      39.458 -15.122   1.449  1.00  0.00     0.056 C 
BRANCH   8   9
HETATM    9  C   UNL     1      39.087 -14.200   2.623  1.00  0.00     0.152 C 
BRANCH   9  10
HETATM   10  O   UNL     1      38.578 -12.975   2.084  1.00  0.00    -0.391 OA
HETATM   11  H   UNL     1      38.978 -12.248   2.593  1.00  0.00     0.210 HD
ENDBRANCH   9  10
BRANCH   9  12
HETATM   12  C   UNL     1      40.138 -13.869   3.667  1.00  0.00    -0.030 A 
HETATM   13  C   UNL     1      41.269 -13.120   3.288  1.00  0.00     0.010 A 
HETATM   14  C   UNL     1      42.245 -12.756   4.218  1.00  0.00     0.001 A 
HETATM   15  C   UNL     1      42.109 -13.131   5.548  1.00  0.00     0.000 A 
HETATM   16  C   UNL     1      40.991 -13.858   5.949  1.00  0.00     0.001 A 
HETATM   17  C   UNL     1      40.007 -14.211   5.019  1.00  0.00     0.010 A 
ENDBRANCH   9  12
ENDBRANCH   8   9
ENDBRANCH   7   8
ENDBRANCH   2   7
BRANCH   4  18
HETATM   18  C   UNL     1      43.212 -19.221   2.770  1.00  0.00     0.109 A 
HETATM   19  N   UNL     1      43.721 -19.350   4.050  1.00  0.00    -0.254 N 
HETATM   20  N   UNL     1      44.723 -20.265   4.102  1.00  0.00    -0.183 NA
HETATM   21  C   UNL     1      44.784 -20.756   2.865  1.00  0.00     0.142 A 
HETATM   22  C   UNL     1      43.836 -20.179   2.009  1.00  0.00     0.065 A 
BRANCH  19  23
HETATM   23  C   UNL     1      43.097 -18.879   5.292  1.00  0.00     0.111 C 
HETATM   24  C   UNL     1      44.004 -18.993   6.541  1.00  0.00     0.027 C 
HETATM   25  C   UNL     1      45.020 -17.854   6.684  1.00  0.00     0.002 C 
HETATM   26  C   UNL     1      44.375 -16.480   6.542  1.00  0.00     0.000 C 
HETATM   27  C   UNL     1      43.555 -16.372   5.263  1.00  0.00     0.002 C 
HETATM   28  C   UNL     1      42.500 -17.469   5.193  1.00  0.00     0.027 C 
ENDBRANCH  19  23
ENDBRANCH   4  18
TORSDOF 7
ENDMDL
MODEL 10
REMARK VINA RESULT:      -7.1      4.385      6.121
REMARK  7 active torsions:
REMARK  status: ('A' for Active; 'I' for Inactive)
REMARK       I    between atoms: N_2  and  C_3 
REMARK    1  A    between atoms: N_2  and  C_17 
REMARK       I    between atoms: C_3  and  N_4 
REMARK    2  A    between atoms: N_4  and  C_5 
REMARK    3  A    between atoms: N_6  and  C_7 
REMARK    4  A    between atoms: C_17  and  C_18 
REMARK    5  A    between atoms: C_18  and  C_19 
REMARK    6  A    between atoms: C_19  and  O_20 
REMARK    7  A    between atoms: C_19  and  C_21 
ROOT
HETATM    1  C   UNL     1      41.372 -15.133   2.424  1.00  0.00     0.154 C 
HETATM    2  N   UNL     1      41.506 -15.461   1.012  1.00  0.00    -0.343 N 
HETATM    3  C   UNL     1      41.571 -14.391   0.115  1.00  0.00     0.301 C 
HETATM    4  N   UNL     1      41.610 -14.772  -1.219  1.00  0.00    -0.194 NA
HETATM    5  O   UNL     1      41.559 -13.224   0.504  1.00  0.00    -0.254 OA
HETATM    6  H   UNL     1      40.920 -15.498  -1.378  1.00  0.00     0.140 HD
ENDROOT
BRANCH   2   7
HETATM    7  C   UNL     1      41.957 -16.815   0.690  1.00  0.00     0.129 C 
BRANCH   7   8
HETATM    8  C   UNL     1      43.272 -17.226   1.367  1.00  0.00     0.056 C 
BRANCH   8   9
HETATM    9  C   UNL     1      43.133 -17.981   2.700  1.00  0.00     0.152 C 
BRANCH   9  10
HETATM   10  O   UNL     1      43.802 -17.223   3.713  1.00  0.00    -0.391 OA
HETATM   11  H   UNL     1      44.098 -16.392   3.303  1.00  0.00     0.210 HD
ENDBRANCH   9  10
BRANCH   9  12
HETATM   12  C   UNL     1      43.598 -19.423   2.787  1.00  0.00    -0.030 A 
HETATM   13  C   UNL     1      43.322 -20.298   1.719  1.00  0.00     0.010 A 
HETATM   14  C   UNL     1      43.761 -21.624   1.732  1.00  0.00     0.001 A 
HETATM   15  C   UNL     1      44.491 -22.101   2.814  1.00  0.00     0.000 A 
HETATM   16  C   UNL     1      44.791 -21.249   3.873  1.00  0.00     0.001 A 
HETATM   17  C   UNL     1      44.360 -19.918   3.853  1.00  0.00     0.010 A 
ENDBRANCH   9  12
ENDBRANCH   8   9
ENDBRANCH   7   8
ENDBRANCH   2   7
BRANCH   4  18
HETATM   18  C   UNL     1      41.571 -13.753  -2.162  1.00  0.00     0.109 A 
HETATM   19  N   UNL     1      40.424 -13.179  -2.681  1.00  0.00    -0.254 N 
HETATM   20  N   UNL     1      40.712 -12.257  -3.635  1.00  0.00    -0.183 NA
HETATM   21  C   UNL     1      42.043 -12.208  -3.655  1.00  0.00     0.142 A 
HETATM   22  C   UNL     1      42.628 -13.080  -2.726  1.00  0.00     0.065 A 
BRANCH  19  23
HETATM   23  C   UNL     1      39.079 -13.232  -2.097  1.00  0.00     0.111 C 
HETATM   24  C   UNL     1      38.186 -12.018  -2.452  1.00  0.00     0.027 C 
HETATM   25  C   UNL     1      37.530 -12.105  -3.835  1.00  0.00     0.002 C 
HETATM   26  C   UNL     1      36.834 -13.442  -4.064  1.00  0.00     0.000 C 
HETATM   27  C   UNL     1      37.763 -14.616  -3.786  1.00  0.00     0.002 C 
HETATM   28  C   UNL     1      38.331 -14.543  -2.373  1.00  0.00     0.027 C 
ENDBRANCH  19  23
ENDBRANCH   4  18
TORSDOF 7
ENDMDL
