MODEL 1
REMARK VINA RESULT:      -8.8      0.000      0.000
REMARK  7 active torsions:
REMARK  status: ('A' for Active; 'I' for Inactive)
REMARK    1  A    between atoms: C_8  and  C_9 
REMARK    2  A    between atoms: C_9  and  N_10 
REMARK    3  A    between atoms: C_9  and  C_14 
REMARK       I    between atoms: C_14  and  N_15 
REMARK    4  A    between atoms: N_15  and  C_16 
REMARK    5  A    between atoms: C_16  and  C_17 
REMARK    6  A    between atoms: C_17  and  C_18 
REMARK    7  A    between atoms: C_17  and  C_24 
ROOT
HETATM    1  C   UNL     1      40.365 -15.997   1.232  1.00  0.00     0.253 C 
HETATM    2  N   UNL     1      41.485 -16.725   0.912  1.00  0.00    -0.358 N 
HETATM    3  O   UNL     1      39.528 -16.333   2.072  1.00  0.00    -0.271 OA
HETATM    4  H   UNL     1      42.145 -16.396   0.219  1.00  0.00     0.162 HD
ENDROOT
BRANCH   2   5
HETATM    5  C   UNL     1      41.779 -18.024   1.524  1.00  0.00     0.141 C 
BRANCH   5   6
HETATM    6  C   UNL     1      43.048 -18.030   2.450  1.00  0.00     0.026 C 
HETATM    7  C   UNL     1      44.162 -17.283   1.664  1.00  0.00     0.027 C 
BRANCH   6   8
HETATM    8  C   UNL     1      42.647 -17.281   3.756  1.00  0.00    -0.044 A 
HETATM    9  C   UNL     1      41.548 -17.706   4.534  1.00  0.00     0.008 A 
HETATM   10  C   UNL     1      41.190 -17.046   5.713  1.00  0.00     0.001 A 
HETATM   11  C   UNL     1      41.906 -15.930   6.131  1.00  0.00     0.000 A 
HETATM   12  C   UNL     1      42.974 -15.470   5.366  1.00  0.00     0.001 A 
HETATM   13  C   UNL     1      43.338 -16.136   4.190  1.00  0.00     0.008 A 
ENDBRANCH   6   8
BRANCH   6  14
HETATM   14  C   UNL     1      43.642 -19.442   2.721  1.00  0.00    -0.044 A 
HETATM   15  C   UNL     1      44.341 -19.771   3.896  1.00  0.00     0.008 A 
HETATM   16  C   UNL     1      44.845 -21.060   4.101  1.00  0.00     0.001 A 
HETATM   17  C   UNL     1      44.641 -22.055   3.150  1.00  0.00     0.000 A 
HETATM   18  C   UNL     1      43.919 -21.768   1.997  1.00  0.00     0.001 A 
HETATM   19  C   UNL     1      43.417 -20.482   1.791  1.00  0.00     0.008 A 
ENDBRANCH   6  14
ENDBRANCH   5   6
ENDBRANCH   2   5
BRANCH   1  20
HETATM   20  C   UNL     1      40.115 -14.718   0.406  1.00  0.00     0.311 C 
BRANCH  20  21
HETATM   21  C   UNL     1      40.999 -13.599   0.849  1.00  0.00     0.031 A 
HETATM   22  C   UNL     1      41.177 -13.048   2.114  1.00  0.00     0.035 A 
HETATM   23  C   UNL     1      40.610 -13.353   3.453  1.00  0.00     0.070 C 
HETATM   24  N   UNL     1      42.107 -12.051   1.965  1.00  0.00    -0.282 N 
HETATM   25  H   UNL     1      42.500 -11.437   2.675  1.00  0.00     0.189 HD
HETATM   26  N   UNL     1      42.527 -11.908   0.707  1.00  0.00    -0.179 NA
HETATM   27  C   UNL     1      41.881 -12.846   0.016  1.00  0.00     0.061 A 
HETATM   28  C   UNL     1      42.150 -12.983  -1.439  1.00  0.00     0.073 C 
ENDBRANCH  20  21
BRANCH  20  29
HETATM   29  N   UNL     1      38.666 -14.362   0.538  1.00  0.00    -0.062 N 
HETATM   30  H   UNL     1      38.108 -14.824  -0.187  1.00  0.00     0.275 HD
HETATM   31  H   UNL     1      38.342 -14.757   1.434  1.00  0.00     0.275 HD
HETATM   32  H   UNL     1      38.511 -13.351   0.528  1.00  0.00     0.275 HD
ENDBRANCH  20  29
ENDBRANCH   1  20
TORSDOF 7
ENDMDL
MODEL 2
REMARK VINA RESULT:      -8.5      1.527      2.920
REMARK  7 active torsions:
REMARK  status: ('A' for Active; 'I' for Inactive)
REMARK    1  A    between atoms: C_8  and  C_9 
REMARK    2  A    between atoms: C_9  and  N_10 
REMARK    3  A    between atoms: C_9  and  C_14 
REMARK       I    between atoms: C_14  and  N_15 
REMARK    4  A    between atoms: N_15  and  C_16 
REMARK    5  A    between atoms: C_16  and  C_17 
REMARK    6  A    between atoms: C_17  and  C_18 
REMARK    7  A    between atoms: C_17  and  C_24 
ROOT
HETATM    1  C   UNL     1      40.748 -15.512   0.995  1.00  0.00     0.253 C 
HETATM    2  N   UNL     1      41.740 -16.433   0.766  1.00  0.00    -0.358 N 
HETATM    3  O   UNL     1      39.831 -15.657   1.807  1.00  0.00    -0.271 OA
HETATM    4  H   UNL     1      42.474 -16.257   0.092  1.00  0.00     0.162 HD
ENDROOT
BRANCH   2   5
HETATM    5  C   UNL     1      41.784 -17.728   1.452  1.00  0.00     0.141 C 
BRANCH   5   6
HETATM    6  C   UNL     1      42.996 -17.896   2.438  1.00  0.00     0.026 C 
HETATM    7  C   UNL     1      44.193 -17.148   1.785  1.00  0.00     0.027 C 
BRANCH   6   8
HETATM    8  C   UNL     1      42.563 -17.248   3.787  1.00  0.00    -0.044 A 
HETATM    9  C   UNL     1      41.419 -17.698   4.480  1.00  0.00     0.008 A 
HETATM   10  C   UNL     1      41.032 -17.129   5.697  1.00  0.00     0.001 A 
HETATM   11  C   UNL     1      41.765 -16.079   6.239  1.00  0.00     0.000 A 
HETATM   12  C   UNL     1      42.879 -15.594   5.561  1.00  0.00     0.001 A 
HETATM   13  C   UNL     1      43.271 -16.169   4.347  1.00  0.00     0.008 A 
ENDBRANCH   6   8
BRANCH   6  14
HETATM   14  C   UNL     1      43.495 -19.359   2.604  1.00  0.00    -0.044 A 
HETATM   15  C   UNL     1      43.229 -20.374   1.667  1.00  0.00     0.008 A 
HETATM   16  C   UNL     1      43.711 -21.674   1.852  1.00  0.00     0.001 A 
HETATM   17  C   UNL     1      44.490 -21.984   2.963  1.00  0.00     0.000 A 
HETATM   18  C   UNL     1      44.801 -20.991   3.884  1.00  0.00     0.001 A 
HETATM   19  C   UNL     1      44.319 -19.694   3.701  1.00  0.00     0.008 A 
ENDBRANCH   6  14
ENDBRANCH   5   6
ENDBRANCH   2   5
BRANCH   1  20
HETATM   20  C   UNL     1      40.752 -14.257   0.098  1.00  0.00     0.311 C 
BRANCH  20  21
HETATM   21  C   UNL     1      39.753 -14.370  -1.006  1.00  0.00     0.031 A 
HETATM   22  C   UNL     1      39.871 -14.961  -2.260  1.00  0.00     0.035 A 
HETATM   23  C   UNL     1      40.965 -15.691  -2.950  1.00  0.00     0.070 C 
HETATM   24  N   UNL     1      38.656 -14.790  -2.875  1.00  0.00    -0.282 N 
HETATM   25  H   UNL     1      38.361 -15.102  -3.797  1.00  0.00     0.189 HD
HETATM   26  N   UNL     1      37.776 -14.125  -2.124  1.00  0.00    -0.179 NA
HETATM   27  C   UNL     1      38.414 -13.876  -0.981  1.00  0.00     0.061 A 
HETATM   28  C   UNL     1      37.692 -13.164   0.106  1.00  0.00     0.073 C 
ENDBRANCH  20  21
BRANCH  20  29
HETATM   29  N   UNL     1      42.141 -14.075  -0.432  1.00  0.00    -0.062 N 
HETATM   30  H   UNL     1      42.125 -13.870  -1.436  1.00  0.00     0.275 HD
HETATM   31  H   UNL     1      42.524 -13.231   0.020  1.00  0.00     0.275 HD
HETATM   32  H   UNL     1      42.742 -14.879  -0.233  1.00  0.00     0.275 HD
ENDBRANCH  20  29
ENDBRANCH   1  20
TORSDOF 7
ENDMDL
MODEL 3
REMARK VINA RESULT:      -8.3      0.446      2.092
REMARK  7 active torsions:
REMARK  status: ('A' for Active; 'I' for Inactive)
REMARK    1  A    between atoms: C_8  and  C_9 
REMARK    2  A    between atoms: C_9  and  N_10 
REMARK    3  A    between atoms: C_9  and  C_14 
REMARK       I    between atoms: C_14  and  N_15 
REMARK    4  A    between atoms: N_15  and  C_16 
REMARK    5  A    between atoms: C_16  and  C_17 
REMARK    6  A    between atoms: C_17  and  C_18 
REMARK    7  A    between atoms: C_17  and  C_24 
ROOT
HETATM    1  C   UNL     1      40.288 -16.051   1.394  1.00  0.00     0.253 C 
HETATM    2  N   UNL     1      41.478 -16.640   1.044  1.00  0.00    -0.358 N 
HETATM    3  O   UNL     1      39.433 -16.572   2.112  1.00  0.00    -0.271 OA
HETATM    4  H   UNL     1      42.148 -16.161   0.456  1.00  0.00     0.162 HD
ENDROOT
BRANCH   2   5
HETATM    5  C   UNL     1      41.837 -17.997   1.467  1.00  0.00     0.141 C 
BRANCH   5   6
HETATM    6  C   UNL     1      43.073 -18.065   2.435  1.00  0.00     0.026 C 
HETATM    7  C   UNL     1      44.239 -17.343   1.701  1.00  0.00     0.027 C 
BRANCH   6   8
HETATM    8  C   UNL     1      42.654 -17.327   3.742  1.00  0.00    -0.044 A 
HETATM    9  C   UNL     1      43.322 -16.158   4.166  1.00  0.00     0.008 A 
HETATM   10  C   UNL     1      42.943 -15.484   5.331  1.00  0.00     0.001 A 
HETATM   11  C   UNL     1      41.904 -15.976   6.113  1.00  0.00     0.000 A 
HETATM   12  C   UNL     1      41.250 -17.144   5.735  1.00  0.00     0.001 A 
HETATM   13  C   UNL     1      41.623 -17.814   4.565  1.00  0.00     0.008 A 
ENDBRANCH   6   8
BRANCH   6  14
HETATM   14  C   UNL     1      43.608 -19.502   2.698  1.00  0.00    -0.044 A 
HETATM   15  C   UNL     1      43.450 -20.561   1.786  1.00  0.00     0.008 A 
HETATM   16  C   UNL     1      43.961 -21.834   2.060  1.00  0.00     0.001 A 
HETATM   17  C   UNL     1      44.662 -22.072   3.239  1.00  0.00     0.000 A 
HETATM   18  C   UNL     1      44.866 -21.033   4.140  1.00  0.00     0.001 A 
HETATM   19  C   UNL     1      44.356 -19.763   3.867  1.00  0.00     0.008 A 
ENDBRANCH   6  14
ENDBRANCH   5   6
ENDBRANCH   2   5
BRANCH   1  20
HETATM   20  C   UNL     1      39.985 -14.678   0.759  1.00  0.00     0.311 C 
BRANCH  20  21
HETATM   21  C   UNL     1      40.766 -13.587   1.415  1.00  0.00     0.031 A 
HETATM   22  C   UNL     1      41.678 -12.688   0.870  1.00  0.00     0.035 A 
HETATM   23  C   UNL     1      42.189 -12.455  -0.505  1.00  0.00     0.070 C 
HETATM   24  N   UNL     1      42.095 -11.896   1.909  1.00  0.00    -0.282 N 
HETATM   25  H   UNL     1      42.751 -11.118   1.893  1.00  0.00     0.189 HD
HETATM   26  N   UNL     1      41.538 -12.224   3.077  1.00  0.00    -0.179 NA
HETATM   27  C   UNL     1      40.717 -13.235   2.798  1.00  0.00     0.061 A 
HETATM   28  C   UNL     1      39.902 -13.824   3.893  1.00  0.00     0.073 C 
ENDBRANCH  20  21
BRANCH  20  29
HETATM   29  N   UNL     1      38.510 -14.438   0.862  1.00  0.00    -0.062 N 
HETATM   30  H   UNL     1      38.133 -14.845   1.724  1.00  0.00     0.275 HD
HETATM   31  H   UNL     1      38.379 -13.419   0.953  1.00  0.00     0.275 HD
HETATM   32  H   UNL     1      38.002 -14.782   0.044  1.00  0.00     0.275 HD
ENDBRANCH  20  29
ENDBRANCH   1  20
TORSDOF 7
ENDMDL
MODEL 4
REMARK VINA RESULT:      -8.3      1.565      2.633
REMARK  7 active torsions:
REMARK  status: ('A' for Active; 'I' for Inactive)
REMARK    1  A    between atoms: C_8  and  C_9 
REMARK    2  A    between atoms: C_9  and  N_10 
REMARK    3  A    between atoms: C_9  and  C_14 
REMARK       I    between atoms: C_14  and  N_15 
REMARK    4  A    between atoms: N_15  and  C_16 
REMARK    5  A    between atoms: C_16  and  C_17 
REMARK    6  A    between atoms: C_17  and  C_18 
REMARK    7  A    between atoms: C_17  and  C_24 
ROOT
HETATM    1  C   UNL     1      40.823 -15.505   0.909  1.00  0.00     0.253 C 
HETATM    2  N   UNL     1      41.776 -16.465   0.671  1.00  0.00    -0.358 N 
HETATM    3  O   UNL     1      39.943 -15.590   1.768  1.00  0.00    -0.271 OA
HETATM    4  H   UNL     1      42.482 -16.338  -0.044  1.00  0.00     0.162 HD
ENDROOT
BRANCH   2   5
HETATM    5  C   UNL     1      41.815 -17.733   1.405  1.00  0.00     0.141 C 
BRANCH   5   6
HETATM    6  C   UNL     1      43.019 -17.863   2.407  1.00  0.00     0.026 C 
HETATM    7  C   UNL     1      44.203 -17.087   1.764  1.00  0.00     0.027 C 
BRANCH   6   8
HETATM    8  C   UNL     1      42.552 -17.221   3.747  1.00  0.00    -0.044 A 
HETATM    9  C   UNL     1      43.262 -16.149   4.329  1.00  0.00     0.008 A 
HETATM   10  C   UNL     1      42.842 -15.559   5.525  1.00  0.00     0.001 A 
HETATM   11  C   UNL     1      41.716 -16.043   6.181  1.00  0.00     0.000 A 
HETATM   12  C   UNL     1      41.016 -17.120   5.646  1.00  0.00     0.001 A 
HETATM   13  C   UNL     1      41.431 -17.704   4.445  1.00  0.00     0.008 A 
ENDBRANCH   6   8
BRANCH   6  14
HETATM   14  C   UNL     1      43.554 -19.312   2.586  1.00  0.00    -0.044 A 
HETATM   15  C   UNL     1      44.340 -19.713   3.681  1.00  0.00     0.008 A 
HETATM   16  C   UNL     1      44.787 -21.033   3.806  1.00  0.00     0.001 A 
HETATM   17  C   UNL     1      44.440 -21.987   2.854  1.00  0.00     0.000 A 
HETATM   18  C   UNL     1      43.631 -21.627   1.782  1.00  0.00     0.001 A 
HETATM   19  C   UNL     1      43.186 -20.311   1.656  1.00  0.00     0.008 A 
ENDBRANCH   6  14
ENDBRANCH   5   6
ENDBRANCH   2   5
BRANCH   1  20
HETATM   20  C   UNL     1      40.821 -14.286  -0.036  1.00  0.00     0.311 C 
BRANCH  20  21
HETATM   21  C   UNL     1      39.732 -14.384  -1.053  1.00  0.00     0.031 A 
HETATM   22  C   UNL     1      38.404 -13.975  -0.982  1.00  0.00     0.035 A 
HETATM   23  C   UNL     1      37.595 -13.298   0.064  1.00  0.00     0.070 C 
HETATM   24  N   UNL     1      37.844 -14.294  -2.193  1.00  0.00    -0.282 N 
HETATM   25  H   UNL     1      36.893 -14.134  -2.517  1.00  0.00     0.189 HD
HETATM   26  N   UNL     1      38.700 -14.887  -3.028  1.00  0.00    -0.179 NA
HETATM   27  C   UNL     1      39.854 -14.937  -2.364  1.00  0.00     0.061 A 
HETATM   28  C   UNL     1      41.046 -15.520  -3.034  1.00  0.00     0.073 C 
ENDBRANCH  20  21
BRANCH  20  29
HETATM   29  N   UNL     1      42.171 -14.202  -0.681  1.00  0.00    -0.062 N 
HETATM   30  H   UNL     1      42.093 -14.266  -1.701  1.00  0.00     0.275 HD
HETATM   31  H   UNL     1      42.535 -13.257  -0.487  1.00  0.00     0.275 HD
HETATM   32  H   UNL     1      42.820 -14.905  -0.319  1.00  0.00     0.275 HD
ENDBRANCH  20  29
ENDBRANCH   1  20
TORSDOF 7
ENDMDL
MODEL 5
REMARK VINA RESULT:      -7.9      1.830      4.376
REMARK  7 active torsions:
REMARK  status: ('A' for Active; 'I' for Inactive)
REMARK    1  A    between atoms: C_8  and  C_9 
REMARK    2  A    between atoms: C_9  and  N_10 
REMARK    3  A    between atoms: C_9  and  C_14 
REMARK       I    between atoms: C_14  and  N_15 
REMARK    4  A    between atoms: N_15  and  C_16 
REMARK    5  A    between atoms: C_16  and  C_17 
REMARK    6  A    between atoms: C_17  and  C_18 
REMARK    7  A    between atoms: C_17  and  C_24 
ROOT
HETATM    1  C   UNL     1      41.810 -14.942   0.722  1.00  0.00     0.253 C 
HETATM    2  N   UNL     1      42.224 -16.231   0.491  1.00  0.00    -0.358 N 
HETATM    3  O   UNL     1      42.182 -14.246   1.669  1.00  0.00    -0.271 OA
HETATM    4  H   UNL     1      41.891 -16.754  -0.309  1.00  0.00     0.162 HD
ENDROOT
BRANCH   2   5
HETATM    5  C   UNL     1      43.138 -16.937   1.394  1.00  0.00     0.141 C 
BRANCH   5   6
HETATM    6  C   UNL     1      42.422 -17.821   2.477  1.00  0.00     0.026 C 
HETATM    7  C   UNL     1      40.975 -18.057   1.957  1.00  0.00     0.027 C 
BRANCH   6   8
HETATM    8  C   UNL     1      43.234 -19.147   2.575  1.00  0.00    -0.044 A 
HETATM    9  C   UNL     1      42.972 -20.230   1.709  1.00  0.00     0.008 A 
HETATM   10  C   UNL     1      43.706 -21.418   1.784  1.00  0.00     0.001 A 
HETATM   11  C   UNL     1      44.702 -21.561   2.742  1.00  0.00     0.000 A 
HETATM   12  C   UNL     1      44.960 -20.521   3.630  1.00  0.00     0.001 A 
HETATM   13  C   UNL     1      44.232 -19.329   3.550  1.00  0.00     0.008 A 
ENDBRANCH   6   8
BRANCH   6  14
HETATM   14  C   UNL     1      42.232 -17.125   3.855  1.00  0.00    -0.044 A 
HETATM   15  C   UNL     1      41.248 -17.510   4.783  1.00  0.00     0.008 A 
HETATM   16  C   UNL     1      41.125 -16.862   6.018  1.00  0.00     0.001 A 
HETATM   17  C   UNL     1      41.997 -15.834   6.362  1.00  0.00     0.000 A 
HETATM   18  C   UNL     1      43.004 -15.460   5.480  1.00  0.00     0.001 A 
HETATM   19  C   UNL     1      43.126 -16.105   4.248  1.00  0.00     0.008 A 
ENDBRANCH   6  14
ENDBRANCH   5   6
ENDBRANCH   2   5
BRANCH   1  20
HETATM   20  C   UNL     1      40.739 -14.380  -0.234  1.00  0.00     0.311 C 
BRANCH  20  21
HETATM   21  C   UNL     1      41.325 -14.011  -1.557  1.00  0.00     0.031 A 
HETATM   22  C   UNL     1      42.163 -12.954  -1.900  1.00  0.00     0.035 A 
HETATM   23  C   UNL     1      42.788 -11.851  -1.127  1.00  0.00     0.070 C 
HETATM   24  N   UNL     1      42.407 -13.085  -3.243  1.00  0.00    -0.282 N 
HETATM   25  H   UNL     1      42.988 -12.504  -3.844  1.00  0.00     0.189 HD
HETATM   26  N   UNL     1      41.783 -14.129  -3.792  1.00  0.00    -0.179 NA
HETATM   27  C   UNL     1      41.135 -14.714  -2.786  1.00  0.00     0.061 A 
HETATM   28  C   UNL     1      40.352 -15.948  -3.054  1.00  0.00     0.073 C 
ENDBRANCH  20  21
BRANCH  20  29
HETATM   29  N   UNL     1      40.099 -13.201   0.433  1.00  0.00    -0.062 N 
HETATM   30  H   UNL     1      40.806 -12.522   0.731  1.00  0.00     0.275 HD
HETATM   31  H   UNL     1      39.535 -12.721  -0.285  1.00  0.00     0.275 HD
HETATM   32  H   UNL     1      39.503 -13.474   1.218  1.00  0.00     0.275 HD
ENDBRANCH  20  29
ENDBRANCH   1  20
TORSDOF 7
ENDMDL
MODEL 6
REMARK VINA RESULT:      -7.8      1.601      4.056
REMARK  7 active torsions:
REMARK  status: ('A' for Active; 'I' for Inactive)
REMARK    1  A    between atoms: C_8  and  C_9 
REMARK    2  A    between atoms: C_9  and  N_10 
REMARK    3  A    between atoms: C_9  and  C_14 
REMARK       I    between atoms: C_14  and  N_15 
REMARK    4  A    between atoms: N_15  and  C_16 
REMARK    5  A    between atoms: C_16  and  C_17 
REMARK    6  A    between atoms: C_17  and  C_18 
REMARK    7  A    between atoms: C_17  and  C_24 
ROOT
HETATM    1  C   UNL     1      42.232 -15.149   0.677  1.00  0.00     0.253 C 
HETATM    2  N   UNL     1      42.735 -16.413   0.486  1.00  0.00    -0.358 N 
HETATM    3  O   UNL     1      42.398 -14.475   1.695  1.00  0.00    -0.271 OA
HETATM    4  H   UNL     1      42.574 -16.917  -0.376  1.00  0.00     0.162 HD
ENDROOT
BRANCH   2   5
HETATM    5  C   UNL     1      43.503 -17.116   1.518  1.00  0.00     0.141 C 
BRANCH   5   6
HETATM    6  C   UNL     1      42.630 -17.978   2.499  1.00  0.00     0.026 C 
HETATM    7  C   UNL     1      41.232 -18.113   1.830  1.00  0.00     0.027 C 
BRANCH   6   8
HETATM    8  C   UNL     1      43.349 -19.353   2.640  1.00  0.00    -0.044 A 
HETATM    9  C   UNL     1      43.112 -20.399   1.722  1.00  0.00     0.008 A 
HETATM   10  C   UNL     1      43.763 -21.631   1.836  1.00  0.00     0.001 A 
HETATM   11  C   UNL     1      44.647 -21.856   2.884  1.00  0.00     0.000 A 
HETATM   12  C   UNL     1      44.875 -20.854   3.822  1.00  0.00     0.001 A 
HETATM   13  C   UNL     1      44.230 -19.618   3.704  1.00  0.00     0.008 A 
ENDBRANCH   6   8
BRANCH   6  14
HETATM   14  C   UNL     1      42.342 -17.303   3.870  1.00  0.00    -0.044 A 
HETATM   15  C   UNL     1      41.251 -17.650   4.685  1.00  0.00     0.008 A 
HETATM   16  C   UNL     1      41.041 -17.024   5.919  1.00  0.00     0.001 A 
HETATM   17  C   UNL     1      41.930 -16.055   6.376  1.00  0.00     0.000 A 
HETATM   18  C   UNL     1      43.038 -15.720   5.608  1.00  0.00     0.001 A 
HETATM   19  C   UNL     1      43.248 -16.344   4.376  1.00  0.00     0.008 A 
ENDBRANCH   6  14
ENDBRANCH   5   6
ENDBRANCH   2   5
BRANCH   1  20
HETATM   20  C   UNL     1      41.324 -14.593  -0.440  1.00  0.00     0.311 C 
BRANCH  20  21
HETATM   21  C   UNL     1      40.263 -13.699   0.111  1.00  0.00     0.031 A 
HETATM   22  C   UNL     1      39.261 -13.968   1.039  1.00  0.00     0.035 A 
HETATM   23  C   UNL     1      38.886 -15.174   1.820  1.00  0.00     0.070 C 
HETATM   24  N   UNL     1      38.566 -12.796   1.195  1.00  0.00    -0.282 N 
HETATM   25  H   UNL     1      37.772 -12.604   1.803  1.00  0.00     0.189 HD
HETATM   26  N   UNL     1      39.029 -11.804   0.433  1.00  0.00    -0.179 NA
HETATM   27  C   UNL     1      40.068 -12.324  -0.219  1.00  0.00     0.061 A 
HETATM   28  C   UNL     1      40.844 -11.457  -1.145  1.00  0.00     0.073 C 
ENDBRANCH  20  21
BRANCH  20  29
HETATM   29  N   UNL     1      40.737 -15.757  -1.178  1.00  0.00    -0.062 N 
HETATM   30  H   UNL     1      41.394 -16.116  -1.878  1.00  0.00     0.275 HD
HETATM   31  H   UNL     1      40.619 -16.517  -0.490  1.00  0.00     0.275 HD
HETATM   32  H   UNL     1      39.835 -15.532  -1.605  1.00  0.00     0.275 HD
ENDBRANCH  20  29
ENDBRANCH   1  20
TORSDOF 7
ENDMDL
MODEL 7
REMARK VINA RESULT:      -7.6      1.689      2.115
REMARK  7 active torsions:
REMARK  status: ('A' for Active; 'I' for Inactive)
REMARK    1  A    between atoms: C_8  and  C_9 
REMARK    2  A    between atoms: C_9  and  N_10 
REMARK    3  A    between atoms: C_9  and  C_14 
REMARK       I    between atoms: C_14  and  N_15 
REMARK    4  A    between atoms: N_15  and  C_16 
REMARK    5  A    between atoms: C_16  and  C_17 
REMARK    6  A    between atoms: C_17  and  C_18 
REMARK    7  A    between atoms: C_17  and  C_24 
ROOT
HETATM    1  C   UNL     1      40.253 -15.264   3.862  1.00  0.00     0.253 C 
HETATM    2  N   UNL     1      40.704 -16.275   3.050  1.00  0.00    -0.358 N 
HETATM    3  O   UNL     1      40.265 -15.297   5.094  1.00  0.00    -0.271 OA
HETATM    4  H   UNL     1      40.679 -16.190   2.042  1.00  0.00     0.162 HD
ENDROOT
BRANCH   2   5
HETATM    5  C   UNL     1      41.218 -17.541   3.583  1.00  0.00     0.141 C 
BRANCH   5   6
HETATM    6  C   UNL     1      42.780 -17.589   3.740  1.00  0.00     0.026 C 
HETATM    7  C   UNL     1      43.351 -16.578   2.705  1.00  0.00     0.027 C 
BRANCH   6   8
HETATM    8  C   UNL     1      43.092 -17.168   5.207  1.00  0.00    -0.044 A 
HETATM    9  C   UNL     1      42.523 -17.855   6.301  1.00  0.00     0.008 A 
HETATM   10  C   UNL     1      42.808 -17.490   7.620  1.00  0.00     0.001 A 
HETATM   11  C   UNL     1      43.650 -16.414   7.877  1.00  0.00     0.000 A 
HETATM   12  C   UNL     1      44.200 -15.700   6.818  1.00  0.00     0.001 A 
HETATM   13  C   UNL     1      43.921 -16.070   5.498  1.00  0.00     0.008 A 
ENDBRANCH   6   8
BRANCH   6  14
HETATM   14  C   UNL     1      43.425 -18.950   3.351  1.00  0.00    -0.044 A 
HETATM   15  C   UNL     1      44.360 -19.619   4.162  1.00  0.00     0.008 A 
HETATM   16  C   UNL     1      44.902 -20.850   3.776  1.00  0.00     0.001 A 
HETATM   17  C   UNL     1      44.506 -21.451   2.585  1.00  0.00     0.000 A 
HETATM   18  C   UNL     1      43.555 -20.831   1.784  1.00  0.00     0.001 A 
HETATM   19  C   UNL     1      43.014 -19.602   2.167  1.00  0.00     0.008 A 
ENDBRANCH   6  14
ENDBRANCH   5   6
ENDBRANCH   2   5
BRANCH   1  20
HETATM   20  C   UNL     1      39.611 -14.050   3.159  1.00  0.00     0.311 C 
BRANCH  20  21
HETATM   21  C   UNL     1      40.410 -13.618   1.974  1.00  0.00     0.031 A 
HETATM   22  C   UNL     1      41.742 -13.225   1.889  1.00  0.00     0.035 A 
HETATM   23  C   UNL     1      42.840 -13.108   2.882  1.00  0.00     0.070 C 
HETATM   24  N   UNL     1      41.969 -12.939   0.567  1.00  0.00    -0.282 N 
HETATM   25  H   UNL     1      42.832 -12.634   0.121  1.00  0.00     0.189 HD
HETATM   26  N   UNL     1      40.889 -13.102  -0.199  1.00  0.00    -0.179 NA
HETATM   27  C   UNL     1      39.937 -13.529   0.629  1.00  0.00     0.061 A 
HETATM   28  C   UNL     1      38.592 -13.843   0.080  1.00  0.00     0.073 C 
ENDBRANCH  20  21
BRANCH  20  29
HETATM   29  N   UNL     1      39.482 -12.949   4.168  1.00  0.00    -0.062 N 
HETATM   30  H   UNL     1      39.665 -12.037   3.738  1.00  0.00     0.275 HD
HETATM   31  H   UNL     1      38.493 -12.928   4.459  1.00  0.00     0.275 HD
HETATM   32  H   UNL     1      40.082 -13.097   4.983  1.00  0.00     0.275 HD
ENDBRANCH  20  29
ENDBRANCH   1  20
TORSDOF 7
ENDMDL
MODEL 8
REMARK VINA RESULT:      -7.5      2.813      4.502
REMARK  7 active torsions:
REMARK  status: ('A' for Active; 'I' for Inactive)
REMARK    1  A    between atoms: C_8  and  C_9 
REMARK    2  A    between atoms: C_9  and  N_10 
REMARK    3  A    between atoms: C_9  and  C_14 
REMARK       I    between atoms: C_14  and  N_15 
REMARK    4  A    between atoms: N_15  and  C_16 
REMARK    5  A    between atoms: C_16  and  C_17 
REMARK    6  A    between atoms: C_17  and  C_18 
REMARK    7  A    between atoms: C_17  and  C_24 
ROOT
HETATM    1  C   UNL     1      43.193 -14.192   5.473  1.00  0.00     0.253 C 
HETATM    2  N   UNL     1      43.193 -15.065   4.412  1.00  0.00    -0.358 N 
HETATM    3  O   UNL     1      43.594 -14.467   6.606  1.00  0.00    -0.271 OA
HETATM    4  H   UNL     1      42.859 -14.781   3.500  1.00  0.00     0.162 HD
ENDROOT
BRANCH   2   5
HETATM    5  C   UNL     1      43.642 -16.454   4.538  1.00  0.00     0.141 C 
BRANCH   5   6
HETATM    6  C   UNL     1      42.691 -17.505   3.860  1.00  0.00     0.026 C 
HETATM    7  C   UNL     1      41.674 -17.937   4.954  1.00  0.00     0.027 C 
BRANCH   6   8
HETATM    8  C   UNL     1      41.999 -16.774   2.670  1.00  0.00    -0.044 A 
HETATM    9  C   UNL     1      40.597 -16.617   2.625  1.00  0.00     0.008 A 
HETATM   10  C   UNL     1      39.971 -15.952   1.566  1.00  0.00     0.001 A 
HETATM   11  C   UNL     1      40.729 -15.449   0.515  1.00  0.00     0.000 A 
HETATM   12  C   UNL     1      42.111 -15.617   0.519  1.00  0.00     0.001 A 
HETATM   13  C   UNL     1      42.738 -16.276   1.582  1.00  0.00     0.008 A 
ENDBRANCH   6   8
BRANCH   6  14
HETATM   14  C   UNL     1      43.390 -18.827   3.433  1.00  0.00    -0.044 A 
HETATM   15  C   UNL     1      44.366 -19.469   4.215  1.00  0.00     0.008 A 
HETATM   16  C   UNL     1      44.957 -20.666   3.796  1.00  0.00     0.001 A 
HETATM   17  C   UNL     1      44.570 -21.260   2.598  1.00  0.00     0.000 A 
HETATM   18  C   UNL     1      43.580 -20.666   1.824  1.00  0.00     0.001 A 
HETATM   19  C   UNL     1      42.990 -19.472   2.241  1.00  0.00     0.008 A 
ENDBRANCH   6  14
ENDBRANCH   5   6
ENDBRANCH   2   5
BRANCH   1  20
HETATM   20  C   UNL     1      42.561 -12.807   5.226  1.00  0.00     0.311 C 
BRANCH  20  21
HETATM   21  C   UNL     1      41.294 -12.638   5.999  1.00  0.00     0.031 A 
HETATM   22  C   UNL     1      40.177 -13.465   6.076  1.00  0.00     0.035 A 
HETATM   23  C   UNL     1      39.831 -14.777   5.473  1.00  0.00     0.070 C 
HETATM   24  N   UNL     1      39.304 -12.842   6.932  1.00  0.00    -0.282 N 
HETATM   25  H   UNL     1      38.387 -13.155   7.243  1.00  0.00     0.189 HD
HETATM   26  N   UNL     1      39.763 -11.679   7.397  1.00  0.00    -0.179 NA
HETATM   27  C   UNL     1      40.974 -11.543   6.858  1.00  0.00     0.061 A 
HETATM   28  C   UNL     1      41.786 -10.347   7.204  1.00  0.00     0.073 C 
ENDBRANCH  20  21
BRANCH  20  29
HETATM   29  N   UNL     1      42.331 -12.662   3.753  1.00  0.00    -0.062 N 
HETATM   30  H   UNL     1      42.706 -13.469   3.244  1.00  0.00     0.275 HD
HETATM   31  H   UNL     1      41.310 -12.689   3.606  1.00  0.00     0.275 HD
HETATM   32  H   UNL     1      42.712 -11.788   3.383  1.00  0.00     0.275 HD
ENDBRANCH  20  29
ENDBRANCH   1  20
TORSDOF 7
ENDMDL
MODEL 9
REMARK VINA RESULT:      -7.5      1.063      3.869
REMARK  7 active torsions:
REMARK  status: ('A' for Active; 'I' for Inactive)
REMARK    1  A    between atoms: C_8  and  C_9 
REMARK    2  A    between atoms: C_9  and  N_10 
REMARK    3  A    between atoms: C_9  and  C_14 
REMARK       I    between atoms: C_14  and  N_15 
REMARK    4  A    between atoms: N_15  and  C_16 
REMARK    5  A    between atoms: C_16  and  C_17 
REMARK    6  A    between atoms: C_17  and  C_18 
REMARK    7  A    between atoms: C_17  and  C_24 
ROOT
HETATM    1  C   UNL     1      39.765 -15.502   1.462  1.00  0.00     0.253 C 
HETATM    2  N   UNL     1      40.788 -16.401   1.640  1.00  0.00    -0.358 N 
HETATM    3  O   UNL     1      38.704 -15.515   2.091  1.00  0.00    -0.271 OA
HETATM    4  H   UNL     1      41.642 -16.337   1.101  1.00  0.00     0.162 HD
ENDROOT
BRANCH   2   5
HETATM    5  C   UNL     1      40.700 -17.514   2.589  1.00  0.00     0.141 C 
BRANCH   5   6
HETATM    6  C   UNL     1      41.756 -17.458   3.751  1.00  0.00     0.026 C 
HETATM    7  C   UNL     1      40.975 -17.764   5.061  1.00  0.00     0.027 C 
BRANCH   6   8
HETATM    8  C   UNL     1      42.823 -18.549   3.434  1.00  0.00    -0.044 A 
HETATM    9  C   UNL     1      42.843 -19.210   2.187  1.00  0.00     0.008 A 
HETATM   10  C   UNL     1      43.805 -20.180   1.892  1.00  0.00     0.001 A 
HETATM   11  C   UNL     1      44.754 -20.532   2.844  1.00  0.00     0.000 A 
HETATM   12  C   UNL     1      44.737 -19.919   4.093  1.00  0.00     0.001 A 
HETATM   13  C   UNL     1      43.781 -18.942   4.386  1.00  0.00     0.008 A 
ENDBRANCH   6   8
BRANCH   6  14
HETATM   14  C   UNL     1      42.380 -16.054   3.989  1.00  0.00    -0.044 A 
HETATM   15  C   UNL     1      42.117 -15.277   5.131  1.00  0.00     0.008 A 
HETATM   16  C   UNL     1      42.714 -14.024   5.308  1.00  0.00     0.001 A 
HETATM   17  C   UNL     1      43.604 -13.529   4.359  1.00  0.00     0.000 A 
HETATM   18  C   UNL     1      43.912 -14.293   3.239  1.00  0.00     0.001 A 
HETATM   19  C   UNL     1      43.316 -15.542   3.062  1.00  0.00     0.008 A 
ENDBRANCH   6  14
ENDBRANCH   5   6
ENDBRANCH   2   5
BRANCH   1  20
HETATM   20  C   UNL     1      39.943 -14.470   0.330  1.00  0.00     0.311 C 
BRANCH  20  21
HETATM   21  C   UNL     1      40.820 -13.338   0.754  1.00  0.00     0.031 A 
HETATM   22  C   UNL     1      40.828 -12.609   1.939  1.00  0.00     0.035 A 
HETATM   23  C   UNL     1      40.028 -12.677   3.189  1.00  0.00     0.070 C 
HETATM   24  N   UNL     1      41.839 -11.691   1.812  1.00  0.00    -0.282 N 
HETATM   25  H   UNL     1      42.154 -10.994   2.483  1.00  0.00     0.189 HD
HETATM   26  N   UNL     1      42.470 -11.762   0.638  1.00  0.00    -0.179 NA
HETATM   27  C   UNL     1      41.880 -12.764  -0.012  1.00  0.00     0.061 A 
HETATM   28  C   UNL     1      42.373 -13.135  -1.365  1.00  0.00     0.073 C 
ENDBRANCH  20  21
BRANCH  20  29
HETATM   29  N   UNL     1      38.582 -13.991  -0.074  1.00  0.00    -0.062 N 
HETATM   30  H   UNL     1      38.629 -13.046  -0.467  1.00  0.00     0.275 HD
HETATM   31  H   UNL     1      38.269 -14.599  -0.845  1.00  0.00     0.275 HD
HETATM   32  H   UNL     1      37.910 -14.032   0.697  1.00  0.00     0.275 HD
ENDBRANCH  20  29
ENDBRANCH   1  20
TORSDOF 7
ENDMDL
MODEL 10
REMARK VINA RESULT:      -7.4      1.503      2.539
REMARK  7 active torsions:
REMARK  status: ('A' for Active; 'I' for Inactive)
REMARK    1  A    between atoms: C_8  and  C_9 
REMARK    2  A    between atoms: C_9  and  N_10 
REMARK    3  A    between atoms: C_9  and  C_14 
REMARK       I    between atoms: C_14  and  N_15 
REMARK    4  A    between atoms: N_15  and  C_16 
REMARK    5  A    between atoms: C_16  and  C_17 
REMARK    6  A    between atoms: C_17  and  C_18 
REMARK    7  A    between atoms: C_17  and  C_24 
ROOT
HETATM    1  C   UNL     1      39.837 -15.246   1.599  1.00  0.00     0.253 C 
HETATM    2  N   UNL     1      40.518 -16.372   1.205  1.00  0.00    -0.358 N 
HETATM    3  O   UNL     1      39.624 -14.931   2.772  1.00  0.00    -0.271 OA
HETATM    4  H   UNL     1      40.670 -16.576   0.226  1.00  0.00     0.162 HD
ENDROOT
BRANCH   2   5
HETATM    5  C   UNL     1      41.036 -17.353   2.163  1.00  0.00     0.141 C 
BRANCH   5   6
HETATM    6  C   UNL     1      42.574 -17.221   2.455  1.00  0.00     0.026 C 
HETATM    7  C   UNL     1      43.232 -16.774   1.119  1.00  0.00     0.027 C 
BRANCH   6   8
HETATM    8  C   UNL     1      42.723 -16.145   3.572  1.00  0.00    -0.044 A 
HETATM    9  C   UNL     1      43.508 -14.989   3.373  1.00  0.00     0.008 A 
HETATM   10  C   UNL     1      43.636 -14.014   4.367  1.00  0.00     0.001 A 
HETATM   11  C   UNL     1      43.003 -14.183   5.593  1.00  0.00     0.000 A 
HETATM   12  C   UNL     1      42.249 -15.328   5.827  1.00  0.00     0.001 A 
HETATM   13  C   UNL     1      42.113 -16.300   4.830  1.00  0.00     0.008 A 
ENDBRANCH   6   8
BRANCH   6  14
HETATM   14  C   UNL     1      43.280 -18.561   2.808  1.00  0.00    -0.044 A 
HETATM   15  C   UNL     1      43.312 -19.667   1.941  1.00  0.00     0.008 A 
HETATM   16  C   UNL     1      43.973 -20.847   2.297  1.00  0.00     0.001 A 
HETATM   17  C   UNL     1      44.636 -20.942   3.517  1.00  0.00     0.000 A 
HETATM   18  C   UNL     1      44.654 -19.850   4.376  1.00  0.00     0.001 A 
HETATM   19  C   UNL     1      43.994 -18.672   4.022  1.00  0.00     0.008 A 
ENDBRANCH   6  14
ENDBRANCH   5   6
ENDBRANCH   2   5
BRANCH   1  20
HETATM   20  C   UNL     1      39.228 -14.380   0.477  1.00  0.00     0.311 C 
BRANCH  20  21
HETATM   21  C   UNL     1      40.273 -13.915  -0.483  1.00  0.00     0.031 A 
HETATM   22  C   UNL     1      40.367 -14.097  -1.859  1.00  0.00     0.035 A 
HETATM   23  C   UNL     1      39.502 -14.768  -2.864  1.00  0.00     0.070 C 
HETATM   24  N   UNL     1      41.518 -13.461  -2.248  1.00  0.00    -0.282 N 
HETATM   25  H   UNL     1      41.909 -13.368  -3.183  1.00  0.00     0.189 HD
HETATM   26  N   UNL     1      42.177 -12.900  -1.233  1.00  0.00    -0.179 NA
HETATM   27  C   UNL     1      41.433 -13.148  -0.157  1.00  0.00     0.061 A 
HETATM   28  C   UNL     1      41.875 -12.622   1.162  1.00  0.00     0.073 C 
ENDBRANCH  20  21
BRANCH  20  29
HETATM   29  N   UNL     1      38.519 -13.227   1.120  1.00  0.00    -0.062 N 
HETATM   30  H   UNL     1      37.737 -12.909   0.538  1.00  0.00     0.275 HD
HETATM   31  H   UNL     1      38.094 -13.585   1.988  1.00  0.00     0.275 HD
HETATM   32  H   UNL     1      39.152 -12.452   1.336  1.00  0.00     0.275 HD
ENDBRANCH  20  29
ENDBRANCH   1  20
TORSDOF 7
ENDMDL
