MODEL 1
REMARK VINA RESULT:     -10.0      0.000      0.000
REMARK  7 active torsions:
REMARK  status: ('A' for Active; 'I' for Inactive)
REMARK    1  A    between atoms: C_4  and  N_5 
REMARK    2  A    between atoms: C_6  and  S_7 
REMARK    3  A    between atoms: S_7  and  C_8 
REMARK    4  A    between atoms: C_8  and  C_9 
REMARK       I    between atoms: C_9  and  N_10 
REMARK    5  A    between atoms: C_12  and  C_13 
REMARK    6  A    between atoms: C_13  and  N_14 
REMARK       I    between atoms: N_14  and  C_15 
REMARK       I    between atoms: C_15  and  N_16 
REMARK    7  A    between atoms: N_16  and  C_17 
ROOT
HETATM    1  C   UNL     1      40.774 -13.712   5.370  1.00  0.00     0.229 C 
HETATM    2  N   UNL     1      40.914 -13.582   3.974  1.00  0.00    -0.351 N 
HETATM    3  C   UNL     1      41.218 -14.834   3.272  1.00  0.00     0.132 C 
HETATM    4  C   UNL     1      40.994 -14.731   1.758  1.00  0.00     0.021 C 
HETATM    5  C   UNL     1      41.872 -13.597   1.216  1.00  0.00     0.009 C 
HETATM    6  C   UNL     1      41.444 -12.293   1.874  1.00  0.00     0.020 C 
HETATM    7  C   UNL     1      41.484 -12.369   3.396  1.00  0.00     0.126 C 
HETATM    8  O   UNL     1      40.940 -14.815   5.909  1.00  0.00    -0.273 OA
ENDROOT
BRANCH   1   9
HETATM    9  C   UNL     1      40.162 -12.580   6.191  1.00  0.00     0.185 C 
BRANCH   9  10
HETATM   10  S   UNL     1      41.221 -11.344   6.960  1.00  0.00    -0.082 SA
BRANCH  10  11
HETATM   11  C   UNL     1      40.249 -10.690   8.229  1.00  0.00     0.173 A 
HETATM   12  N   UNL     1      40.694 -10.244   9.482  1.00  0.00    -0.300 N 
HETATM   13  C   UNL     1      39.544  -9.729  10.072  1.00  0.00     0.118 A 
HETATM   14  C   UNL     1      38.513  -9.913   9.186  1.00  0.00     0.137 A 
HETATM   15  N   UNL     1      38.960 -10.510   8.054  1.00  0.00    -0.235 NA
BRANCH  12  16
HETATM   16  C   UNL     1      41.985 -10.300  10.134  1.00  0.00     0.042 A 
HETATM   17  C   UNL     1      43.140 -10.783   9.504  1.00  0.00     0.037 A 
HETATM   18  C   UNL     1      44.373 -10.866  10.175  1.00  0.00    -0.059 A 
HETATM   19  C   UNL     1      45.599 -11.350   9.453  1.00  0.00     0.048 C 
HETATM   20  C   UNL     1      44.463 -10.440  11.499  1.00  0.00     0.013 A 
HETATM   21  C   UNL     1      43.334  -9.960  12.162  1.00  0.00    -0.059 A 
HETATM   22  C   UNL     1      42.110  -9.881  11.475  1.00  0.00     0.037 A 
HETATM   23  C   UNL     1      43.450  -9.490  13.584  1.00  0.00     0.048 C 
ENDBRANCH  12  16
ENDBRANCH  10  11
ENDBRANCH   9  10
ENDBRANCH   1   9
BRANCH   4  24
HETATM   24  C   UNL     1      41.268 -16.073   1.069  1.00  0.00     0.130 C 
BRANCH  24  25
HETATM   25  N   UNL     1      42.694 -16.301   0.882  1.00  0.00    -0.342 N 
HETATM   26  C   UNL     1      43.497 -17.299   1.342  1.00  0.00     0.320 C 
HETATM   27  N   UNL     1      42.866 -18.344   1.955  1.00  0.00    -0.309 N 
HETATM   28  O   UNL     1      44.703 -17.174   1.160  1.00  0.00    -0.247 OA
HETATM   29  H   UNL     1      41.860 -18.312   1.969  1.00  0.00     0.170 HD
HETATM   30  H   UNL     1      43.255 -15.555   0.485  1.00  0.00     0.164 HD
BRANCH  27  31
HETATM   31  C   UNL     1      43.460 -19.501   2.504  1.00  0.00     0.039 A 
HETATM   32  C   UNL     1      44.044 -19.554   3.772  1.00  0.00     0.071 A 
HETATM   33  C   UNL     1      44.612 -20.743   4.223  1.00  0.00     0.118 A 
HETATM   34  F   UNL     1      45.170 -20.785   5.441  1.00  0.00    -0.206 F 
HETATM   35  C   UNL     1      44.613 -21.887   3.437  1.00  0.00     0.042 A 
HETATM   36  C   UNL     1      44.032 -21.847   2.174  1.00  0.00     0.005 A 
HETATM   37  C   UNL     1      43.456 -20.659   1.712  1.00  0.00     0.030 A 
ENDBRANCH  27  31
ENDBRANCH  24  25
ENDBRANCH   4  24
TORSDOF 7
ENDMDL
MODEL 2
REMARK VINA RESULT:      -9.9      1.337      1.654
REMARK  7 active torsions:
REMARK  status: ('A' for Active; 'I' for Inactive)
REMARK    1  A    between atoms: C_4  and  N_5 
REMARK    2  A    between atoms: C_6  and  S_7 
REMARK    3  A    between atoms: S_7  and  C_8 
REMARK    4  A    between atoms: C_8  and  C_9 
REMARK       I    between atoms: C_9  and  N_10 
REMARK    5  A    between atoms: C_12  and  C_13 
REMARK    6  A    between atoms: C_13  and  N_14 
REMARK       I    between atoms: N_14  and  C_15 
REMARK       I    between atoms: C_15  and  N_16 
REMARK    7  A    between atoms: N_16  and  C_17 
ROOT
HETATM    1  C   UNL     1      40.075 -12.666   6.104  1.00  0.00     0.229 C 
HETATM    2  N   UNL     1      41.204 -13.206   5.457  1.00  0.00    -0.351 N 
HETATM    3  C   UNL     1      40.905 -14.278   4.500  1.00  0.00     0.132 C 
HETATM    4  C   UNL     1      42.080 -14.576   3.561  1.00  0.00     0.021 C 
HETATM    5  C   UNL     1      43.296 -14.957   4.414  1.00  0.00     0.009 C 
HETATM    6  C   UNL     1      43.655 -13.776   5.304  1.00  0.00     0.020 C 
HETATM    7  C   UNL     1      42.480 -13.313   6.158  1.00  0.00     0.126 C 
HETATM    8  O   UNL     1      38.948 -13.123   5.868  1.00  0.00    -0.273 OA
ENDROOT
BRANCH   1   9
HETATM    9  C   UNL     1      40.188 -11.357   6.882  1.00  0.00     0.185 C 
BRANCH   9  10
HETATM   10  S   UNL     1      39.522 -11.235   8.550  1.00  0.00    -0.082 SA
BRANCH  10  11
HETATM   11  C   UNL     1      39.636  -9.552   8.924  1.00  0.00     0.173 A 
HETATM   12  N   UNL     1      40.685  -8.913   9.601  1.00  0.00    -0.300 N 
HETATM   13  C   UNL     1      40.334  -7.567   9.546  1.00  0.00     0.118 A 
HETATM   14  C   UNL     1      39.133  -7.484   8.891  1.00  0.00     0.137 A 
HETATM   15  N   UNL     1      38.711  -8.716   8.513  1.00  0.00    -0.235 NA
BRANCH  12  16
HETATM   16  C   UNL     1      41.860  -9.419  10.277  1.00  0.00     0.042 A 
HETATM   17  C   UNL     1      42.833 -10.199   9.638  1.00  0.00     0.037 A 
HETATM   18  C   UNL     1      43.945 -10.713  10.330  1.00  0.00    -0.059 A 
HETATM   19  C   UNL     1      44.989 -11.511   9.601  1.00  0.00     0.048 C 
HETATM   20  C   UNL     1      44.100 -10.430  11.686  1.00  0.00     0.013 A 
HETATM   21  C   UNL     1      43.148  -9.663  12.358  1.00  0.00    -0.059 A 
HETATM   22  C   UNL     1      42.045  -9.154  11.650  1.00  0.00     0.037 A 
HETATM   23  C   UNL     1      43.337  -9.352  13.815  1.00  0.00     0.048 C 
ENDBRANCH  12  16
ENDBRANCH  10  11
ENDBRANCH   9  10
ENDBRANCH   1   9
BRANCH   4  24
HETATM   24  C   UNL     1      41.709 -15.660   2.542  1.00  0.00     0.130 C 
BRANCH  24  25
HETATM   25  N   UNL     1      42.864 -16.088   1.766  1.00  0.00    -0.342 N 
HETATM   26  C   UNL     1      43.579 -17.245   1.811  1.00  0.00     0.320 C 
HETATM   27  N   UNL     1      43.065 -18.239   2.595  1.00  0.00    -0.309 N 
HETATM   28  O   UNL     1      44.607 -17.293   1.145  1.00  0.00    -0.247 OA
HETATM   29  H   UNL     1      42.177 -18.051   3.030  1.00  0.00     0.170 HD
HETATM   30  H   UNL     1      43.346 -15.401   1.198  1.00  0.00     0.164 HD
BRANCH  27  31
HETATM   31  C   UNL     1      43.598 -19.530   2.803  1.00  0.00     0.039 A 
HETATM   32  C   UNL     1      44.242 -19.930   3.976  1.00  0.00     0.071 A 
HETATM   33  C   UNL     1      44.743 -21.225   4.084  1.00  0.00     0.118 A 
HETATM   34  F   UNL     1      45.359 -21.601   5.213  1.00  0.00    -0.206 F 
HETATM   35  C   UNL     1      44.617 -22.137   3.044  1.00  0.00     0.042 A 
HETATM   36  C   UNL     1      43.975 -21.750   1.872  1.00  0.00     0.005 A 
HETATM   37  C   UNL     1      43.467 -20.453   1.755  1.00  0.00     0.030 A 
ENDBRANCH  27  31
ENDBRANCH  24  25
ENDBRANCH   4  24
TORSDOF 7
ENDMDL
MODEL 3
REMARK VINA RESULT:      -9.9      1.644      2.524
REMARK  7 active torsions:
REMARK  status: ('A' for Active; 'I' for Inactive)
REMARK    1  A    between atoms: C_4  and  N_5 
REMARK    2  A    between atoms: C_6  and  S_7 
REMARK    3  A    between atoms: S_7  and  C_8 
REMARK    4  A    between atoms: C_8  and  C_9 
REMARK       I    between atoms: C_9  and  N_10 
REMARK    5  A    between atoms: C_12  and  C_13 
REMARK    6  A    between atoms: C_13  and  N_14 
REMARK       I    between atoms: N_14  and  C_15 
REMARK       I    between atoms: C_15  and  N_16 
REMARK    7  A    between atoms: N_16  and  C_17 
ROOT
HETATM    1  C   UNL     1      40.770 -12.048   6.394  1.00  0.00     0.229 C 
HETATM    2  N   UNL     1      40.784 -13.033   5.387  1.00  0.00    -0.351 N 
HETATM    3  C   UNL     1      42.124 -13.480   4.989  1.00  0.00     0.132 C 
HETATM    4  C   UNL     1      42.097 -14.786   4.186  1.00  0.00     0.021 C 
HETATM    5  C   UNL     1      41.223 -14.573   2.945  1.00  0.00     0.009 C 
HETATM    6  C   UNL     1      39.810 -14.234   3.396  1.00  0.00     0.020 C 
HETATM    7  C   UNL     1      39.771 -13.034   4.336  1.00  0.00     0.126 C 
HETATM    8  O   UNL     1      41.837 -11.608   6.844  1.00  0.00    -0.273 OA
ENDROOT
BRANCH   1   9
HETATM    9  C   UNL     1      39.472 -11.712   7.122  1.00  0.00     0.185 C 
BRANCH   9  10
HETATM   10  S   UNL     1      39.491 -11.342   8.884  1.00  0.00    -0.082 SA
BRANCH  10  11
HETATM   11  C   UNL     1      39.782  -9.641   8.952  1.00  0.00     0.173 A 
HETATM   12  N   UNL     1      40.860  -8.999   9.578  1.00  0.00    -0.300 N 
HETATM   13  C   UNL     1      40.674  -7.659   9.252  1.00  0.00     0.118 A 
HETATM   14  C   UNL     1      39.529  -7.575   8.503  1.00  0.00     0.137 A 
HETATM   15  N   UNL     1      38.985  -8.804   8.327  1.00  0.00    -0.235 NA
BRANCH  12  16
HETATM   16  C   UNL     1      41.929  -9.487  10.422  1.00  0.00     0.042 A 
HETATM   17  C   UNL     1      42.022  -9.188  11.788  1.00  0.00     0.037 A 
HETATM   18  C   UNL     1      43.096  -9.640  12.576  1.00  0.00    -0.059 A 
HETATM   19  C   UNL     1      43.139  -9.334  14.047  1.00  0.00     0.048 C 
HETATM   20  C   UNL     1      44.090 -10.425  11.996  1.00  0.00     0.013 A 
HETATM   21  C   UNL     1      44.036 -10.738  10.638  1.00  0.00    -0.059 A 
HETATM   22  C   UNL     1      42.954 -10.280   9.865  1.00  0.00     0.037 A 
HETATM   23  C   UNL     1      45.106 -11.598  10.029  1.00  0.00     0.048 C 
ENDBRANCH  12  16
ENDBRANCH  10  11
ENDBRANCH   9  10
ENDBRANCH   1   9
BRANCH   4  24
HETATM   24  C   UNL     1      43.517 -15.248   3.838  1.00  0.00     0.130 C 
BRANCH  24  25
HETATM   25  N   UNL     1      43.564 -15.917   2.546  1.00  0.00    -0.342 N 
HETATM   26  C   UNL     1      43.804 -17.220   2.234  1.00  0.00     0.320 C 
HETATM   27  N   UNL     1      43.869 -18.088   3.287  1.00  0.00    -0.309 N 
HETATM   28  O   UNL     1      43.933 -17.496   1.046  1.00  0.00    -0.247 OA
HETATM   29  H   UNL     1      43.683 -17.701   4.197  1.00  0.00     0.170 HD
HETATM   30  H   UNL     1      43.578 -15.348   1.707  1.00  0.00     0.164 HD
BRANCH  27  31
HETATM   31  C   UNL     1      44.092 -19.482   3.237  1.00  0.00     0.039 A 
HETATM   32  C   UNL     1      43.841 -20.273   2.114  1.00  0.00     0.071 A 
HETATM   33  C   UNL     1      44.086 -21.643   2.165  1.00  0.00     0.118 A 
HETATM   34  F   UNL     1      43.843 -22.397   1.083  1.00  0.00    -0.206 F 
HETATM   35  C   UNL     1      44.578 -22.248   3.314  1.00  0.00     0.042 A 
HETATM   36  C   UNL     1      44.834 -21.468   4.438  1.00  0.00     0.005 A 
HETATM   37  C   UNL     1      44.593 -20.091   4.397  1.00  0.00     0.030 A 
ENDBRANCH  27  31
ENDBRANCH  24  25
ENDBRANCH   4  24
TORSDOF 7
ENDMDL
MODEL 4
REMARK VINA RESULT:      -9.9      3.531      9.623
REMARK  7 active torsions:
REMARK  status: ('A' for Active; 'I' for Inactive)
REMARK    1  A    between atoms: C_4  and  N_5 
REMARK    2  A    between atoms: C_6  and  S_7 
REMARK    3  A    between atoms: S_7  and  C_8 
REMARK    4  A    between atoms: C_8  and  C_9 
REMARK       I    between atoms: C_9  and  N_10 
REMARK    5  A    between atoms: C_12  and  C_13 
REMARK    6  A    between atoms: C_13  and  N_14 
REMARK       I    between atoms: N_14  and  C_15 
REMARK       I    between atoms: C_15  and  N_16 
REMARK    7  A    between atoms: N_16  and  C_17 
ROOT
HETATM    1  C   UNL     1      40.802 -12.370   4.305  1.00  0.00     0.229 C 
HETATM    2  N   UNL     1      41.958 -13.152   4.494  1.00  0.00    -0.351 N 
HETATM    3  C   UNL     1      42.451 -13.189   5.876  1.00  0.00     0.132 C 
HETATM    4  C   UNL     1      43.459 -14.321   6.113  1.00  0.00     0.021 C 
HETATM    5  C   UNL     1      44.630 -14.136   5.142  1.00  0.00     0.009 C 
HETATM    6  C   UNL     1      44.101 -14.229   3.718  1.00  0.00     0.020 C 
HETATM    7  C   UNL     1      42.975 -13.237   3.450  1.00  0.00     0.126 C 
HETATM    8  O   UNL     1      40.305 -11.758   5.261  1.00  0.00    -0.273 OA
ENDROOT
BRANCH   1   9
HETATM    9  C   UNL     1      40.002 -12.480   3.009  1.00  0.00     0.185 C 
BRANCH   9  10
HETATM   10  S   UNL     1      39.209 -14.033   2.563  1.00  0.00    -0.082 SA
BRANCH  10  11
HETATM   11  C   UNL     1      40.212 -14.670   1.308  1.00  0.00     0.173 A 
HETATM   12  N   UNL     1      41.084 -15.763   1.406  1.00  0.00    -0.300 N 
HETATM   13  C   UNL     1      41.560 -15.916   0.107  1.00  0.00     0.118 A 
HETATM   14  C   UNL     1      40.990 -14.930  -0.656  1.00  0.00     0.137 A 
HETATM   15  N   UNL     1      40.162 -14.165   0.097  1.00  0.00    -0.235 NA
BRANCH  12  16
HETATM   16  C   UNL     1      41.508 -16.575   2.526  1.00  0.00     0.042 A 
HETATM   17  C   UNL     1      41.013 -16.403   3.826  1.00  0.00     0.037 A 
HETATM   18  C   UNL     1      41.475 -17.178   4.905  1.00  0.00    -0.059 A 
HETATM   19  C   UNL     1      40.890 -16.992   6.277  1.00  0.00     0.048 C 
HETATM   20  C   UNL     1      42.439 -18.160   4.683  1.00  0.00     0.013 A 
HETATM   21  C   UNL     1      42.960 -18.355   3.404  1.00  0.00    -0.059 A 
HETATM   22  C   UNL     1      42.486 -17.574   2.336  1.00  0.00     0.037 A 
HETATM   23  C   UNL     1      43.986 -19.428   3.176  1.00  0.00     0.048 C 
ENDBRANCH  12  16
ENDBRANCH  10  11
ENDBRANCH   9  10
ENDBRANCH   1   9
BRANCH   4  24
HETATM   24  C   UNL     1      43.905 -14.361   7.579  1.00  0.00     0.130 C 
BRANCH  24  25
HETATM   25  N   UNL     1      44.876 -13.317   7.874  1.00  0.00    -0.342 N 
HETATM   26  C   UNL     1      44.766 -12.199   8.644  1.00  0.00     0.320 C 
HETATM   27  N   UNL     1      43.624 -12.091   9.387  1.00  0.00    -0.309 N 
HETATM   28  O   UNL     1      45.696 -11.401   8.607  1.00  0.00    -0.247 OA
HETATM   29  H   UNL     1      42.987 -12.869   9.342  1.00  0.00     0.170 HD
HETATM   30  H   UNL     1      45.732 -13.283   7.331  1.00  0.00     0.164 HD
BRANCH  27  31
HETATM   31  C   UNL     1      43.271 -11.048  10.270  1.00  0.00     0.039 A 
HETATM   32  C   UNL     1      43.858 -10.852  11.522  1.00  0.00     0.071 A 
HETATM   33  C   UNL     1      43.436  -9.796  12.326  1.00  0.00     0.118 A 
HETATM   34  F   UNL     1      44.004  -9.614  13.526  1.00  0.00    -0.206 F 
HETATM   35  C   UNL     1      42.437  -8.925  11.910  1.00  0.00     0.042 A 
HETATM   36  C   UNL     1      41.848  -9.110  10.664  1.00  0.00     0.005 A 
HETATM   37  C   UNL     1      42.265 -10.165   9.848  1.00  0.00     0.030 A 
ENDBRANCH  27  31
ENDBRANCH  24  25
ENDBRANCH   4  24
TORSDOF 7
ENDMDL
MODEL 5
REMARK VINA RESULT:      -9.7      3.613     10.532
REMARK  7 active torsions:
REMARK  status: ('A' for Active; 'I' for Inactive)
REMARK    1  A    between atoms: C_4  and  N_5 
REMARK    2  A    between atoms: C_6  and  S_7 
REMARK    3  A    between atoms: S_7  and  C_8 
REMARK    4  A    between atoms: C_8  and  C_9 
REMARK       I    between atoms: C_9  and  N_10 
REMARK    5  A    between atoms: C_12  and  C_13 
REMARK    6  A    between atoms: C_13  and  N_14 
REMARK       I    between atoms: N_14  and  C_15 
REMARK       I    between atoms: C_15  and  N_16 
REMARK    7  A    between atoms: N_16  and  C_17 
ROOT
HETATM    1  C   UNL     1      42.159 -14.127   5.839  1.00  0.00     0.229 C 
HETATM    2  N   UNL     1      41.295 -13.017   5.751  1.00  0.00    -0.351 N 
HETATM    3  C   UNL     1      41.791 -11.804   6.410  1.00  0.00     0.132 C 
HETATM    4  C   UNL     1      41.026 -10.545   5.984  1.00  0.00     0.021 C 
HETATM    5  C   UNL     1      39.541 -10.750   6.306  1.00  0.00     0.009 C 
HETATM    6  C   UNL     1      39.029 -11.940   5.508  1.00  0.00     0.020 C 
HETATM    7  C   UNL     1      39.847 -13.202   5.756  1.00  0.00     0.126 C 
HETATM    8  O   UNL     1      43.223 -14.035   6.466  1.00  0.00    -0.273 OA
ENDROOT
BRANCH   1   9
HETATM    9  C   UNL     1      41.932 -15.350   4.954  1.00  0.00     0.185 C 
BRANCH   9  10
HETATM   10  S   UNL     1      41.256 -16.864   5.657  1.00  0.00    -0.082 SA
BRANCH  10  11
HETATM   11  C   UNL     1      42.612 -17.613   6.421  1.00  0.00     0.173 A 
HETATM   12  N   UNL     1      43.625 -18.353   5.794  1.00  0.00    -0.300 N 
HETATM   13  C   UNL     1      44.510 -18.636   6.830  1.00  0.00     0.118 A 
HETATM   14  C   UNL     1      43.985 -18.095   7.975  1.00  0.00     0.137 A 
HETATM   15  N   UNL     1      42.813 -17.468   7.711  1.00  0.00    -0.235 NA
BRANCH  12  16
HETATM   16  C   UNL     1      43.793 -18.817   4.434  1.00  0.00     0.042 A 
HETATM   17  C   UNL     1      43.668 -17.978   3.318  1.00  0.00     0.037 A 
HETATM   18  C   UNL     1      43.794 -18.465   2.005  1.00  0.00    -0.059 A 
HETATM   19  C   UNL     1      43.694 -17.526   0.835  1.00  0.00     0.048 C 
HETATM   20  C   UNL     1      44.070 -19.815   1.796  1.00  0.00     0.013 A 
HETATM   21  C   UNL     1      44.195 -20.682   2.882  1.00  0.00    -0.059 A 
HETATM   22  C   UNL     1      44.069 -20.179   4.188  1.00  0.00     0.037 A 
HETATM   23  C   UNL     1      44.508 -22.131   2.643  1.00  0.00     0.048 C 
ENDBRANCH  12  16
ENDBRANCH  10  11
ENDBRANCH   9  10
ENDBRANCH   1   9
BRANCH   4  24
HETATM   24  C   UNL     1      41.610  -9.295   6.651  1.00  0.00     0.130 C 
BRANCH  24  25
HETATM   25  N   UNL     1      40.722  -8.768   7.677  1.00  0.00    -0.342 N 
HETATM   26  C   UNL     1      40.709  -8.969   9.023  1.00  0.00     0.320 C 
HETATM   27  N   UNL     1      41.774  -9.651   9.539  1.00  0.00    -0.309 N 
HETATM   28  O   UNL     1      39.754  -8.519   9.647  1.00  0.00    -0.247 OA
HETATM   29  H   UNL     1      42.502  -9.901   8.890  1.00  0.00     0.170 HD
HETATM   30  H   UNL     1      39.873  -8.295   7.387  1.00  0.00     0.164 HD
BRANCH  27  31
HETATM   31  C   UNL     1      42.009  -9.979  10.892  1.00  0.00     0.039 A 
HETATM   32  C   UNL     1      42.998  -9.387  11.680  1.00  0.00     0.071 A 
HETATM   33  C   UNL     1      43.157  -9.783  13.006  1.00  0.00     0.118 A 
HETATM   34  F   UNL     1      44.108  -9.210  13.756  1.00  0.00    -0.206 F 
HETATM   35  C   UNL     1      42.350 -10.764  13.568  1.00  0.00     0.042 A 
HETATM   36  C   UNL     1      41.360 -11.359  12.794  1.00  0.00     0.005 A 
HETATM   37  C   UNL     1      41.190 -10.966  11.462  1.00  0.00     0.030 A 
ENDBRANCH  27  31
ENDBRANCH  24  25
ENDBRANCH   4  24
TORSDOF 7
ENDMDL
MODEL 6
REMARK VINA RESULT:      -9.7      4.595      7.472
REMARK  7 active torsions:
REMARK  status: ('A' for Active; 'I' for Inactive)
REMARK    1  A    between atoms: C_4  and  N_5 
REMARK    2  A    between atoms: C_6  and  S_7 
REMARK    3  A    between atoms: S_7  and  C_8 
REMARK    4  A    between atoms: C_8  and  C_9 
REMARK       I    between atoms: C_9  and  N_10 
REMARK    5  A    between atoms: C_12  and  C_13 
REMARK    6  A    between atoms: C_13  and  N_14 
REMARK       I    between atoms: N_14  and  C_15 
REMARK       I    between atoms: C_15  and  N_16 
REMARK    7  A    between atoms: N_16  and  C_17 
ROOT
HETATM    1  C   UNL     1      39.961 -12.913   3.984  1.00  0.00     0.229 C 
HETATM    2  N   UNL     1      41.209 -13.559   4.082  1.00  0.00    -0.351 N 
HETATM    3  C   UNL     1      41.459 -14.213   5.372  1.00  0.00     0.132 C 
HETATM    4  C   UNL     1      42.630 -15.201   5.316  1.00  0.00     0.021 C 
HETATM    5  C   UNL     1      43.882 -14.442   4.860  1.00  0.00     0.009 C 
HETATM    6  C   UNL     1      43.632 -13.885   3.466  1.00  0.00     0.020 C 
HETATM    7  C   UNL     1      42.381 -13.015   3.403  1.00  0.00     0.126 C 
HETATM    8  O   UNL     1      39.192 -12.901   4.955  1.00  0.00    -0.273 OA
ENDROOT
BRANCH   1   9
HETATM    9  C   UNL     1      39.434 -12.462   2.624  1.00  0.00     0.185 C 
BRANCH   9  10
HETATM   10  S   UNL     1      38.391 -13.557   1.649  1.00  0.00    -0.082 SA
BRANCH  10  11
HETATM   11  C   UNL     1      39.298 -13.819   0.202  1.00  0.00     0.173 A 
HETATM   12  N   UNL     1      40.302 -14.778   0.003  1.00  0.00    -0.300 N 
HETATM   13  C   UNL     1      40.626 -14.635  -1.343  1.00  0.00     0.118 A 
HETATM   14  C   UNL     1      39.850 -13.623  -1.845  1.00  0.00     0.137 A 
HETATM   15  N   UNL     1      39.036 -13.125  -0.882  1.00  0.00    -0.235 NA
BRANCH  12  16
HETATM   16  C   UNL     1      40.958 -15.703   0.902  1.00  0.00     0.042 A 
HETATM   17  C   UNL     1      40.359 -16.186   2.073  1.00  0.00     0.037 A 
HETATM   18  C   UNL     1      41.037 -17.051   2.952  1.00  0.00    -0.059 A 
HETATM   19  C   UNL     1      40.346 -17.581   4.176  1.00  0.00     0.048 C 
HETATM   20  C   UNL     1      42.334 -17.459   2.648  1.00  0.00     0.013 A 
HETATM   21  C   UNL     1      42.966 -16.993   1.495  1.00  0.00    -0.059 A 
HETATM   22  C   UNL     1      42.273 -16.132   0.627  1.00  0.00     0.037 A 
HETATM   23  C   UNL     1      44.359 -17.454   1.173  1.00  0.00     0.048 C 
ENDBRANCH  12  16
ENDBRANCH  10  11
ENDBRANCH   9  10
ENDBRANCH   1   9
BRANCH   4  24
HETATM   24  C   UNL     1      42.822 -15.902   6.666  1.00  0.00     0.130 C 
BRANCH  24  25
HETATM   25  N   UNL     1      44.168 -16.440   6.806  1.00  0.00    -0.342 N 
HETATM   26  C   UNL     1      44.684 -17.641   6.428  1.00  0.00     0.320 C 
HETATM   27  N   UNL     1      43.872 -18.429   5.662  1.00  0.00    -0.309 N 
HETATM   28  O   UNL     1      45.823 -17.903   6.800  1.00  0.00    -0.247 OA
HETATM   29  H   UNL     1      42.984 -18.034   5.400  1.00  0.00     0.170 HD
HETATM   30  H   UNL     1      44.825 -15.951   7.404  1.00  0.00     0.164 HD
BRANCH  27  31
HETATM   31  C   UNL     1      44.167 -19.705   5.132  1.00  0.00     0.039 A 
HETATM   32  C   UNL     1      44.387 -19.956   3.776  1.00  0.00     0.071 A 
HETATM   33  C   UNL     1      44.664 -21.251   3.348  1.00  0.00     0.118 A 
HETATM   34  F   UNL     1      44.874 -21.484   2.045  1.00  0.00    -0.206 F 
HETATM   35  C   UNL     1      44.728 -22.310   4.244  1.00  0.00     0.042 A 
HETATM   36  C   UNL     1      44.513 -22.071   5.597  1.00  0.00     0.005 A 
HETATM   37  C   UNL     1      44.236 -20.774   6.038  1.00  0.00     0.030 A 
ENDBRANCH  27  31
ENDBRANCH  24  25
ENDBRANCH   4  24
TORSDOF 7
ENDMDL
MODEL 7
REMARK VINA RESULT:      -9.7      3.344     10.888
REMARK  7 active torsions:
REMARK  status: ('A' for Active; 'I' for Inactive)
REMARK    1  A    between atoms: C_4  and  N_5 
REMARK    2  A    between atoms: C_6  and  S_7 
REMARK    3  A    between atoms: S_7  and  C_8 
REMARK    4  A    between atoms: C_8  and  C_9 
REMARK       I    between atoms: C_9  and  N_10 
REMARK    5  A    between atoms: C_12  and  C_13 
REMARK    6  A    between atoms: C_13  and  N_14 
REMARK       I    between atoms: N_14  and  C_15 
REMARK       I    between atoms: C_15  and  N_16 
REMARK    7  A    between atoms: N_16  and  C_17 
ROOT
HETATM    1  C   UNL     1      41.226 -13.393   4.517  1.00  0.00     0.229 C 
HETATM    2  N   UNL     1      40.938 -12.266   5.312  1.00  0.00    -0.351 N 
HETATM    3  C   UNL     1      40.033 -12.527   6.438  1.00  0.00     0.132 C 
HETATM    4  C   UNL     1      40.040 -11.398   7.475  1.00  0.00     0.021 C 
HETATM    5  C   UNL     1      39.644 -10.094   6.773  1.00  0.00     0.009 C 
HETATM    6  C   UNL     1      40.673  -9.789   5.695  1.00  0.00     0.020 C 
HETATM    7  C   UNL     1      40.843 -10.939   4.710  1.00  0.00     0.126 C 
HETATM    8  O   UNL     1      40.701 -14.485   4.778  1.00  0.00    -0.273 OA
ENDROOT
BRANCH   1   9
HETATM    9  C   UNL     1      42.374 -13.353   3.513  1.00  0.00     0.185 C 
BRANCH   9  10
HETATM   10  S   UNL     1      43.348 -14.832   3.190  1.00  0.00    -0.082 SA
BRANCH  10  11
HETATM   11  C   UNL     1      42.439 -15.677   1.988  1.00  0.00     0.173 A 
HETATM   12  N   UNL     1      42.376 -17.066   1.807  1.00  0.00    -0.300 N 
HETATM   13  C   UNL     1      41.440 -17.219   0.788  1.00  0.00     0.118 A 
HETATM   14  C   UNL     1      41.034 -15.964   0.414  1.00  0.00     0.137 A 
HETATM   15  N   UNL     1      41.659 -15.020   1.160  1.00  0.00    -0.235 NA
BRANCH  12  16
HETATM   16  C   UNL     1      43.091 -18.163   2.422  1.00  0.00     0.042 A 
HETATM   17  C   UNL     1      43.311 -19.389   1.779  1.00  0.00     0.037 A 
HETATM   18  C   UNL     1      43.973 -20.454   2.416  1.00  0.00    -0.059 A 
HETATM   19  C   UNL     1      44.226 -21.739   1.679  1.00  0.00     0.048 C 
HETATM   20  C   UNL     1      44.443 -20.289   3.717  1.00  0.00     0.013 A 
HETATM   21  C   UNL     1      44.237 -19.086   4.393  1.00  0.00    -0.059 A 
HETATM   22  C   UNL     1      43.576 -18.031   3.740  1.00  0.00     0.037 A 
HETATM   23  C   UNL     1      44.763 -18.918   5.789  1.00  0.00     0.048 C 
ENDBRANCH  12  16
ENDBRANCH  10  11
ENDBRANCH   9  10
ENDBRANCH   1   9
BRANCH   4  24
HETATM   24  C   UNL     1      39.127 -11.734   8.660  1.00  0.00     0.130 C 
BRANCH  24  25
HETATM   25  N   UNL     1      38.799 -10.549   9.439  1.00  0.00    -0.342 N 
HETATM   26  C   UNL     1      39.380 -10.040  10.560  1.00  0.00     0.320 C 
HETATM   27  N   UNL     1      40.548 -10.630  10.953  1.00  0.00    -0.309 N 
HETATM   28  O   UNL     1      38.811  -9.101  11.107  1.00  0.00    -0.247 OA
HETATM   29  H   UNL     1      40.906 -11.354  10.353  1.00  0.00     0.170 HD
HETATM   30  H   UNL     1      37.920 -10.077   9.256  1.00  0.00     0.164 HD
BRANCH  27  31
HETATM   31  C   UNL     1      41.351 -10.287  12.063  1.00  0.00     0.039 A 
HETATM   32  C   UNL     1      40.931 -10.384  13.391  1.00  0.00     0.071 A 
HETATM   33  C   UNL     1      41.794 -10.014  14.419  1.00  0.00     0.118 A 
HETATM   34  F   UNL     1      41.384 -10.111  15.691  1.00  0.00    -0.206 F 
HETATM   35  C   UNL     1      43.074  -9.545  14.154  1.00  0.00     0.042 A 
HETATM   36  C   UNL     1      43.504  -9.447  12.834  1.00  0.00     0.005 A 
HETATM   37  C   UNL     1      42.645  -9.818  11.795  1.00  0.00     0.030 A 
ENDBRANCH  27  31
ENDBRANCH  24  25
ENDBRANCH   4  24
TORSDOF 7
ENDMDL
MODEL 8
REMARK VINA RESULT:      -9.7      1.730      2.306
REMARK  7 active torsions:
REMARK  status: ('A' for Active; 'I' for Inactive)
REMARK    1  A    between atoms: C_4  and  N_5 
REMARK    2  A    between atoms: C_6  and  S_7 
REMARK    3  A    between atoms: S_7  and  C_8 
REMARK    4  A    between atoms: C_8  and  C_9 
REMARK       I    between atoms: C_9  and  N_10 
REMARK    5  A    between atoms: C_12  and  C_13 
REMARK    6  A    between atoms: C_13  and  N_14 
REMARK       I    between atoms: N_14  and  C_15 
REMARK       I    between atoms: C_15  and  N_16 
REMARK    7  A    between atoms: N_16  and  C_17 
ROOT
HETATM    1  C   UNL     1      40.762 -10.668   4.405  1.00  0.00     0.229 C 
HETATM    2  N   UNL     1      40.912 -12.027   4.744  1.00  0.00    -0.351 N 
HETATM    3  C   UNL     1      41.634 -12.828   3.748  1.00  0.00     0.132 C 
HETATM    4  C   UNL     1      42.099 -14.180   4.302  1.00  0.00     0.021 C 
HETATM    5  C   UNL     1      40.870 -14.946   4.804  1.00  0.00     0.009 C 
HETATM    6  C   UNL     1      40.220 -14.145   5.922  1.00  0.00     0.020 C 
HETATM    7  C   UNL     1      39.872 -12.724   5.493  1.00  0.00     0.126 C 
HETATM    8  O   UNL     1      41.195 -10.248   3.323  1.00  0.00    -0.273 OA
ENDROOT
BRANCH   1   9
HETATM    9  C   UNL     1      40.316  -9.658   5.459  1.00  0.00     0.185 C 
BRANCH   9  10
HETATM   10  S   UNL     1      41.320  -9.378   6.927  1.00  0.00    -0.082 SA
BRANCH  10  11
HETATM   11  C   UNL     1      40.263  -9.768   8.237  1.00  0.00     0.173 A 
HETATM   12  N   UNL     1      40.631 -10.001   9.570  1.00  0.00    -0.300 N 
HETATM   13  C   UNL     1      39.411 -10.166  10.220  1.00  0.00     0.118 A 
HETATM   14  C   UNL     1      38.426 -10.053   9.273  1.00  0.00     0.137 A 
HETATM   15  N   UNL     1      38.963  -9.810   8.053  1.00  0.00    -0.235 NA
BRANCH  12  16
HETATM   16  C   UNL     1      41.918 -10.121  10.219  1.00  0.00     0.042 A 
HETATM   17  C   UNL     1      43.046 -10.664   9.588  1.00  0.00     0.037 A 
HETATM   18  C   UNL     1      44.275 -10.808  10.257  1.00  0.00    -0.059 A 
HETATM   19  C   UNL     1      45.473 -11.356   9.533  1.00  0.00     0.048 C 
HETATM   20  C   UNL     1      44.390 -10.384  11.580  1.00  0.00     0.013 A 
HETATM   21  C   UNL     1      43.288  -9.846  12.244  1.00  0.00    -0.059 A 
HETATM   22  C   UNL     1      42.068  -9.706  11.559  1.00  0.00     0.037 A 
HETATM   23  C   UNL     1      43.431  -9.379  13.664  1.00  0.00     0.048 C 
ENDBRANCH  12  16
ENDBRANCH  10  11
ENDBRANCH   9  10
ENDBRANCH   1   9
BRANCH   4  24
HETATM   24  C   UNL     1      42.896 -14.961   3.250  1.00  0.00     0.130 C 
BRANCH  24  25
HETATM   25  N   UNL     1      42.076 -15.969   2.594  1.00  0.00    -0.342 N 
HETATM   26  C   UNL     1      42.282 -17.304   2.428  1.00  0.00     0.320 C 
HETATM   27  N   UNL     1      43.346 -17.836   3.099  1.00  0.00    -0.309 N 
HETATM   28  O   UNL     1      41.497 -17.905   1.702  1.00  0.00    -0.247 OA
HETATM   29  H   UNL     1      43.854 -17.209   3.700  1.00  0.00     0.170 HD
HETATM   30  H   UNL     1      41.295 -15.663   2.024  1.00  0.00     0.164 HD
BRANCH  27  31
HETATM   31  C   UNL     1      43.768 -19.184   3.108  1.00  0.00     0.039 A 
HETATM   32  C   UNL     1      43.633 -20.052   2.023  1.00  0.00     0.071 A 
HETATM   33  C   UNL     1      44.074 -21.369   2.130  1.00  0.00     0.118 A 
HETATM   34  F   UNL     1      43.941 -22.196   1.084  1.00  0.00    -0.206 F 
HETATM   35  C   UNL     1      44.649 -21.845   3.302  1.00  0.00     0.042 A 
HETATM   36  C   UNL     1      44.791 -20.988   4.388  1.00  0.00     0.005 A 
HETATM   37  C   UNL     1      44.354 -19.663   4.290  1.00  0.00     0.030 A 
ENDBRANCH  27  31
ENDBRANCH  24  25
ENDBRANCH   4  24
TORSDOF 7
ENDMDL
MODEL 9
REMARK VINA RESULT:      -9.6      5.100      6.463
REMARK  7 active torsions:
REMARK  status: ('A' for Active; 'I' for Inactive)
REMARK    1  A    between atoms: C_4  and  N_5 
REMARK    2  A    between atoms: C_6  and  S_7 
REMARK    3  A    between atoms: S_7  and  C_8 
REMARK    4  A    between atoms: C_8  and  C_9 
REMARK       I    between atoms: C_9  and  N_10 
REMARK    5  A    between atoms: C_12  and  C_13 
REMARK    6  A    between atoms: C_13  and  N_14 
REMARK       I    between atoms: N_14  and  C_15 
REMARK       I    between atoms: C_15  and  N_16 
REMARK    7  A    between atoms: N_16  and  C_17 
ROOT
HETATM    1  C   UNL     1      42.009 -11.728  -0.691  1.00  0.00     0.229 C 
HETATM    2  N   UNL     1      41.426 -12.927  -1.148  1.00  0.00    -0.351 N 
HETATM    3  C   UNL     1      41.842 -14.127  -0.413  1.00  0.00     0.132 C 
HETATM    4  C   UNL     1      40.928 -15.329  -0.680  1.00  0.00     0.021 C 
HETATM    5  C   UNL     1      40.925 -15.609  -2.187  1.00  0.00     0.009 C 
HETATM    6  C   UNL     1      40.370 -14.389  -2.909  1.00  0.00     0.020 C 
HETATM    7  C   UNL     1      41.132 -13.114  -2.565  1.00  0.00     0.126 C 
HETATM    8  O   UNL     1      42.826 -11.753   0.240  1.00  0.00    -0.273 OA
ENDROOT
BRANCH   1   9
HETATM    9  C   UNL     1      41.450 -10.381  -1.141  1.00  0.00     0.185 C 
BRANCH   9  10
HETATM   10  S   UNL     1      39.878  -9.790  -0.493  1.00  0.00    -0.082 SA
BRANCH  10  11
HETATM   11  C   UNL     1      40.192  -9.518   1.184  1.00  0.00     0.173 A 
HETATM   12  N   UNL     1      40.210 -10.483   2.201  1.00  0.00    -0.300 N 
HETATM   13  C   UNL     1      40.608  -9.764   3.324  1.00  0.00     0.118 A 
HETATM   14  C   UNL     1      40.773  -8.459   2.937  1.00  0.00     0.137 A 
HETATM   15  N   UNL     1      40.511  -8.318   1.615  1.00  0.00    -0.235 NA
BRANCH  12  16
HETATM   16  C   UNL     1      39.869 -11.889   2.217  1.00  0.00     0.042 A 
HETATM   17  C   UNL     1      38.770 -12.417   1.525  1.00  0.00     0.037 A 
HETATM   18  C   UNL     1      38.435 -13.781   1.593  1.00  0.00    -0.059 A 
HETATM   19  C   UNL     1      37.274 -14.318   0.804  1.00  0.00     0.048 C 
HETATM   20  C   UNL     1      39.224 -14.644   2.352  1.00  0.00     0.013 A 
HETATM   21  C   UNL     1      40.321 -14.154   3.060  1.00  0.00    -0.059 A 
HETATM   22  C   UNL     1      40.643 -12.789   2.979  1.00  0.00     0.037 A 
HETATM   23  C   UNL     1      41.171 -15.099   3.860  1.00  0.00     0.048 C 
ENDBRANCH  12  16
ENDBRANCH  10  11
ENDBRANCH   9  10
ENDBRANCH   1   9
BRANCH   4  24
HETATM   24  C   UNL     1      41.361 -16.544   0.147  1.00  0.00     0.130 C 
BRANCH  24  25
HETATM   25  N   UNL     1      42.792 -16.529   0.417  1.00  0.00    -0.342 N 
HETATM   26  C   UNL     1      43.562 -17.378   1.151  1.00  0.00     0.320 C 
HETATM   27  N   UNL     1      42.947 -18.514   1.596  1.00  0.00    -0.309 N 
HETATM   28  O   UNL     1      44.729 -17.053   1.341  1.00  0.00    -0.247 OA
HETATM   29  H   UNL     1      41.995 -18.652   1.300  1.00  0.00     0.170 HD
HETATM   30  H   UNL     1      43.322 -15.700   0.172  1.00  0.00     0.164 HD
BRANCH  27  31
HETATM   31  C   UNL     1      43.519 -19.556   2.360  1.00  0.00     0.039 A 
HETATM   32  C   UNL     1      43.982 -19.401   3.668  1.00  0.00     0.071 A 
HETATM   33  C   UNL     1      44.538 -20.488   4.338  1.00  0.00     0.118 A 
HETATM   34  F   UNL     1      44.981 -20.333   5.593  1.00  0.00    -0.206 F 
HETATM   35  C   UNL     1      44.645 -21.733   3.732  1.00  0.00     0.042 A 
HETATM   36  C   UNL     1      44.183 -21.899   2.430  1.00  0.00     0.005 A 
HETATM   37  C   UNL     1      43.622 -20.814   1.749  1.00  0.00     0.030 A 
ENDBRANCH  27  31
ENDBRANCH  24  25
ENDBRANCH   4  24
TORSDOF 7
ENDMDL
MODEL 10
REMARK VINA RESULT:      -9.5      4.442      7.749
REMARK  7 active torsions:
REMARK  status: ('A' for Active; 'I' for Inactive)
REMARK    1  A    between atoms: C_4  and  N_5 
REMARK    2  A    between atoms: C_6  and  S_7 
REMARK    3  A    between atoms: S_7  and  C_8 
REMARK    4  A    between atoms: C_8  and  C_9 
REMARK       I    between atoms: C_9  and  N_10 
REMARK    5  A    between atoms: C_12  and  C_13 
REMARK    6  A    between atoms: C_13  and  N_14 
REMARK       I    between atoms: N_14  and  C_15 
REMARK       I    between atoms: C_15  and  N_16 
REMARK    7  A    between atoms: N_16  and  C_17 
ROOT
HETATM    1  C   UNL     1      38.807 -13.458   1.804  1.00  0.00     0.229 C 
HETATM    2  N   UNL     1      39.384 -13.188   3.061  1.00  0.00    -0.351 N 
HETATM    3  C   UNL     1      39.574 -14.369   3.911  1.00  0.00     0.132 C 
HETATM    4  C   UNL     1      40.524 -14.104   5.085  1.00  0.00     0.021 C 
HETATM    5  C   UNL     1      39.957 -12.945   5.913  1.00  0.00     0.009 C 
HETATM    6  C   UNL     1      39.891 -11.705   5.034  1.00  0.00     0.020 C 
HETATM    7  C   UNL     1      39.093 -11.939   3.757  1.00  0.00     0.126 C 
HETATM    8  O   UNL     1      38.477 -14.615   1.509  1.00  0.00    -0.273 OA
ENDROOT
BRANCH   1   9
HETATM    9  C   UNL     1      38.831 -12.399   0.704  1.00  0.00     0.185 C 
BRANCH   9  10
HETATM   10  S   UNL     1      40.362 -12.035  -0.169  1.00  0.00    -0.082 SA
BRANCH  10  11
HETATM   11  C   UNL     1      40.548 -13.362  -1.260  1.00  0.00     0.173 A 
HETATM   12  N   UNL     1      41.062 -14.630  -0.957  1.00  0.00    -0.300 N 
HETATM   13  C   UNL     1      40.897 -15.340  -2.144  1.00  0.00     0.118 A 
HETATM   14  C   UNL     1      40.343 -14.482  -3.059  1.00  0.00     0.137 A 
HETATM   15  N   UNL     1      40.133 -13.264  -2.503  1.00  0.00    -0.235 NA
BRANCH  12  16
HETATM   16  C   UNL     1      41.683 -15.172   0.231  1.00  0.00     0.042 A 
HETATM   17  C   UNL     1      42.303 -14.373   1.202  1.00  0.00     0.037 A 
HETATM   18  C   UNL     1      42.938 -14.929   2.327  1.00  0.00    -0.059 A 
HETATM   19  C   UNL     1      43.555 -14.037   3.367  1.00  0.00     0.048 C 
HETATM   20  C   UNL     1      42.940 -16.311   2.501  1.00  0.00     0.013 A 
HETATM   21  C   UNL     1      42.340 -17.140   1.553  1.00  0.00    -0.059 A 
HETATM   22  C   UNL     1      41.707 -16.568   0.435  1.00  0.00     0.037 A 
HETATM   23  C   UNL     1      42.336 -18.627   1.761  1.00  0.00     0.048 C 
ENDBRANCH  12  16
ENDBRANCH  10  11
ENDBRANCH   9  10
ENDBRANCH   1   9
BRANCH   4  24
HETATM   24  C   UNL     1      40.740 -15.375   5.915  1.00  0.00     0.130 C 
BRANCH  24  25
HETATM   25  N   UNL     1      42.099 -15.456   6.430  1.00  0.00    -0.342 N 
HETATM   26  C   UNL     1      42.970 -16.502   6.464  1.00  0.00     0.320 C 
HETATM   27  N   UNL     1      42.590 -17.623   5.783  1.00  0.00    -0.309 N 
HETATM   28  O   UNL     1      44.011 -16.342   7.093  1.00  0.00    -0.247 OA
HETATM   29  H   UNL     1      41.726 -17.563   5.271  1.00  0.00     0.170 HD
HETATM   30  H   UNL     1      42.448 -14.692   6.998  1.00  0.00     0.164 HD
BRANCH  27  31
HETATM   31  C   UNL     1      43.310 -18.831   5.650  1.00  0.00     0.039 A 
HETATM   32  C   UNL     1      44.042 -19.184   4.514  1.00  0.00     0.071 A 
HETATM   33  C   UNL     1      44.714 -20.403   4.475  1.00  0.00     0.118 A 
HETATM   34  F   UNL     1      45.415 -20.734   3.382  1.00  0.00    -0.206 F 
HETATM   35  C   UNL     1      44.672 -21.285   5.547  1.00  0.00     0.042 A 
HETATM   36  C   UNL     1      43.948 -20.943   6.684  1.00  0.00     0.005 A 
HETATM   37  C   UNL     1      43.271 -19.720   6.734  1.00  0.00     0.030 A 
ENDBRANCH  27  31
ENDBRANCH  24  25
ENDBRANCH   4  24
TORSDOF 7
ENDMDL
