MODEL 1
REMARK VINA RESULT:      -7.7      0.000      0.000
REMARK  11 active torsions:
REMARK  status: ('A' for Active; 'I' for Inactive)
REMARK    1  A    between atoms: C_2  and  C_3 
REMARK    2  A    between atoms: C_3  and  C_4 
REMARK    3  A    between atoms: C_4  and  O_5 
REMARK    4  A    between atoms: O_5  and  C_6 
REMARK    5  A    between atoms: C_9  and  C_10 
REMARK       I    between atoms: C_10  and  N_11 
REMARK    6  A    between atoms: N_11  and  C_12 
REMARK    7  A    between atoms: C_12  and  C_13 
REMARK       I    between atoms: C_13  and  N_14 
REMARK    8  A    between atoms: N_14  and  N_15 
REMARK    9  A    between atoms: C_16  and  C_17 
REMARK   10  A    between atoms: C_18  and  O_19 
REMARK   11  A    between atoms: C_21  and  O_22 
ROOT
HETATM    1  C   UNL     1      46.034 -12.916   8.107  1.00  0.00     0.227 C 
ENDROOT
BRANCH   1   2
HETATM    2  N   UNL     1      45.299 -13.306   6.908  1.00  0.00    -0.348 N 
HETATM    3  C   UNL     1      44.413 -14.359   6.915  1.00  0.00     0.252 C 
HETATM    4  O   UNL     1      44.301 -15.105   7.884  1.00  0.00    -0.268 OA
HETATM    5  H   UNL     1      45.284 -12.642   6.146  1.00  0.00     0.163 HD
BRANCH   3   6
HETATM    6  C   UNL     1      43.615 -14.599   5.683  1.00  0.00     0.032 A 
HETATM    7  C   UNL     1      43.758 -13.812   4.534  1.00  0.00     0.020 A 
HETATM    8  C   UNL     1      43.044 -14.131   3.372  1.00  0.00     0.038 A 
HETATM    9  C   UNL     1      42.202 -15.244   3.350  1.00  0.00     0.068 A 
HETATM   10  C   UNL     1      42.030 -16.003   4.508  1.00  0.00     0.038 A 
HETATM   11  C   UNL     1      42.742 -15.692   5.668  1.00  0.00     0.020 A 
BRANCH   9  12
HETATM   12  O   UNL     1      41.498 -15.676   2.261  1.00  0.00    -0.351 OA
BRANCH  12  13
HETATM   13  C   UNL     1      41.657 -17.055   1.923  1.00  0.00     0.175 C 
BRANCH  13  14
HETATM   14  C   UNL     1      42.723 -17.180   0.836  1.00  0.00     0.026 C 
BRANCH  14  15
HETATM   15  C   UNL     1      44.090 -17.583   1.390  1.00  0.00    -0.002 C 
HETATM   16  C   UNL     1      43.949 -18.625   2.490  1.00  0.00     0.005 C 
ENDBRANCH  14  15
ENDBRANCH  13  14
ENDBRANCH  12  13
ENDBRANCH   9  12
ENDBRANCH   3   6
ENDBRANCH   1   2
BRANCH   1  17
HETATM   17  C   UNL     1      45.315 -11.894   8.997  1.00  0.00     0.255 C 
HETATM   18  N   UNL     1      44.197 -12.406   9.637  1.00  0.00    -0.246 N 
HETATM   19  H   UNL     1      43.920 -13.374   9.453  1.00  0.00     0.192 HD
HETATM   20  O   UNL     1      45.664 -10.714   9.031  1.00  0.00    -0.270 OA
BRANCH  18  21
HETATM   21  N   UNL     1      43.419 -11.604  10.413  1.00  0.00    -0.184 NA
HETATM   22  C   UNL     1      43.712 -11.609  11.675  1.00  0.00     0.153 C 
BRANCH  22  23
HETATM   23  C   UNL     1      42.936 -10.798  12.633  1.00  0.00     0.016 A 
HETATM   24  C   UNL     1      41.600 -11.086  12.942  1.00  0.00     0.080 A 
HETATM   25  C   UNL     1      40.903 -10.304  13.862  1.00  0.00     0.074 A 
HETATM   26  C   UNL     1      41.548  -9.229  14.465  1.00  0.00     0.068 A 
HETATM   27  C   UNL     1      42.873  -8.927  14.165  1.00  0.00     0.037 A 
HETATM   28  C   UNL     1      43.573  -9.714  13.247  1.00  0.00     0.018 A 
BRANCH  24  29
HETATM   29  O   UNL     1      40.907 -12.127  12.384  1.00  0.00    -0.360 OA
HETATM   30  H   UNL     1      41.143 -12.952  12.869  1.00  0.00     0.217 HD
ENDBRANCH  24  29
BRANCH  26  31
HETATM   31  O   UNL     1      40.907  -8.435  15.371  1.00  0.00    -0.361 OA
HETATM   32  H   UNL     1      41.527  -8.231  16.092  1.00  0.00     0.217 HD
ENDBRANCH  26  31
ENDBRANCH  22  23
ENDBRANCH  18  21
ENDBRANCH   1  17
TORSDOF 11
ENDMDL
MODEL 2
REMARK VINA RESULT:      -7.6      2.716      3.364
REMARK  11 active torsions:
REMARK  status: ('A' for Active; 'I' for Inactive)
REMARK    1  A    between atoms: C_2  and  C_3 
REMARK    2  A    between atoms: C_3  and  C_4 
REMARK    3  A    between atoms: C_4  and  O_5 
REMARK    4  A    between atoms: O_5  and  C_6 
REMARK    5  A    between atoms: C_9  and  C_10 
REMARK       I    between atoms: C_10  and  N_11 
REMARK    6  A    between atoms: N_11  and  C_12 
REMARK    7  A    between atoms: C_12  and  C_13 
REMARK       I    between atoms: C_13  and  N_14 
REMARK    8  A    between atoms: N_14  and  N_15 
REMARK    9  A    between atoms: C_16  and  C_17 
REMARK   10  A    between atoms: C_18  and  O_19 
REMARK   11  A    between atoms: C_21  and  O_22 
ROOT
HETATM    1  C   UNL     1      41.632 -12.003   5.977  1.00  0.00     0.227 C 
ENDROOT
BRANCH   1   2
HETATM    2  N   UNL     1      42.053 -13.397   6.083  1.00  0.00    -0.348 N 
HETATM    3  C   UNL     1      41.201 -14.433   5.775  1.00  0.00     0.252 C 
HETATM    4  O   UNL     1      40.012 -14.244   5.532  1.00  0.00    -0.268 OA
HETATM    5  H   UNL     1      43.046 -13.569   6.162  1.00  0.00     0.163 HD
BRANCH   3   6
HETATM    6  C   UNL     1      41.758 -15.812   5.788  1.00  0.00     0.032 A 
HETATM    7  C   UNL     1      41.285 -16.820   4.940  1.00  0.00     0.020 A 
HETATM    8  C   UNL     1      41.900 -18.078   4.933  1.00  0.00     0.038 A 
HETATM    9  C   UNL     1      42.998 -18.326   5.758  1.00  0.00     0.068 A 
HETATM   10  C   UNL     1      43.443 -17.334   6.632  1.00  0.00     0.038 A 
HETATM   11  C   UNL     1      42.836 -16.077   6.641  1.00  0.00     0.020 A 
BRANCH   9  12
HETATM   12  O   UNL     1      43.704 -19.496   5.797  1.00  0.00    -0.351 OA
BRANCH  12  13
HETATM   13  C   UNL     1      44.802 -19.590   4.888  1.00  0.00     0.175 C 
BRANCH  13  14
HETATM   14  C   UNL     1      44.618 -20.830   4.013  1.00  0.00     0.026 C 
BRANCH  14  15
HETATM   15  C   UNL     1      44.326 -20.485   2.553  1.00  0.00    -0.002 C 
HETATM   16  C   UNL     1      43.925 -21.726   1.767  1.00  0.00     0.005 C 
ENDBRANCH  14  15
ENDBRANCH  13  14
ENDBRANCH  12  13
ENDBRANCH   9  12
ENDBRANCH   3   6
ENDBRANCH   1   2
BRANCH   1  17
HETATM   17  C   UNL     1      41.180 -11.367   7.297  1.00  0.00     0.255 C 
HETATM   18  N   UNL     1      42.185 -11.287   8.248  1.00  0.00    -0.246 N 
HETATM   19  H   UNL     1      43.108 -11.672   8.028  1.00  0.00     0.192 HD
HETATM   20  O   UNL     1      40.002 -11.067   7.494  1.00  0.00    -0.270 OA
BRANCH  18  21
HETATM   21  N   UNL     1      41.922 -10.803   9.491  1.00  0.00    -0.184 NA
HETATM   22  C   UNL     1      42.804 -11.099  10.394  1.00  0.00     0.153 C 
BRANCH  22  23
HETATM   23  C   UNL     1      42.634 -10.653  11.790  1.00  0.00     0.016 A 
HETATM   24  C   UNL     1      41.555 -11.072  12.580  1.00  0.00     0.080 A 
HETATM   25  C   UNL     1      41.435 -10.639  13.900  1.00  0.00     0.074 A 
HETATM   26  C   UNL     1      42.396  -9.779  14.421  1.00  0.00     0.068 A 
HETATM   27  C   UNL     1      43.470  -9.349  13.648  1.00  0.00     0.037 A 
HETATM   28  C   UNL     1      43.593  -9.787  12.327  1.00  0.00     0.018 A 
BRANCH  24  29
HETATM   29  O   UNL     1      40.575 -11.915  12.128  1.00  0.00    -0.360 OA
HETATM   30  H   UNL     1      40.704 -12.795  12.553  1.00  0.00     0.217 HD
ENDBRANCH  24  29
BRANCH  26  31
HETATM   31  O   UNL     1      42.321  -9.327  15.707  1.00  0.00    -0.361 OA
HETATM   32  H   UNL     1      43.036  -9.741  16.220  1.00  0.00     0.217 HD
ENDBRANCH  26  31
ENDBRANCH  22  23
ENDBRANCH  18  21
ENDBRANCH   1  17
TORSDOF 11
ENDMDL
MODEL 3
REMARK VINA RESULT:      -7.6      2.333      2.932
REMARK  11 active torsions:
REMARK  status: ('A' for Active; 'I' for Inactive)
REMARK    1  A    between atoms: C_2  and  C_3 
REMARK    2  A    between atoms: C_3  and  C_4 
REMARK    3  A    between atoms: C_4  and  O_5 
REMARK    4  A    between atoms: O_5  and  C_6 
REMARK    5  A    between atoms: C_9  and  C_10 
REMARK       I    between atoms: C_10  and  N_11 
REMARK    6  A    between atoms: N_11  and  C_12 
REMARK    7  A    between atoms: C_12  and  C_13 
REMARK       I    between atoms: C_13  and  N_14 
REMARK    8  A    between atoms: N_14  and  N_15 
REMARK    9  A    between atoms: C_16  and  C_17 
REMARK   10  A    between atoms: C_18  and  O_19 
REMARK   11  A    between atoms: C_21  and  O_22 
ROOT
HETATM    1  C   UNL     1      44.828 -12.914   7.904  1.00  0.00     0.227 C 
ENDROOT
BRANCH   1   2
HETATM    2  N   UNL     1      44.590 -14.314   7.563  1.00  0.00    -0.348 N 
HETATM    3  C   UNL     1      43.743 -14.673   6.540  1.00  0.00     0.252 C 
HETATM    4  O   UNL     1      43.043 -13.849   5.959  1.00  0.00    -0.268 OA
HETATM    5  H   UNL     1      45.238 -14.992   7.941  1.00  0.00     0.163 HD
BRANCH   3   6
HETATM    6  C   UNL     1      43.665 -16.115   6.183  1.00  0.00     0.032 A 
HETATM    7  C   UNL     1      42.612 -16.644   5.428  1.00  0.00     0.020 A 
HETATM    8  C   UNL     1      42.629 -17.992   5.048  1.00  0.00     0.038 A 
HETATM    9  C   UNL     1      43.704 -18.807   5.404  1.00  0.00     0.068 A 
HETATM   10  C   UNL     1      44.733 -18.289   6.190  1.00  0.00     0.038 A 
HETATM   11  C   UNL     1      44.723 -16.946   6.570  1.00  0.00     0.020 A 
BRANCH   9  12
HETATM   12  O   UNL     1      43.848 -20.119   5.046  1.00  0.00    -0.351 OA
BRANCH  12  13
HETATM   13  C   UNL     1      44.931 -20.406   4.160  1.00  0.00     0.175 C 
BRANCH  13  14
HETATM   14  C   UNL     1      44.610 -19.833   2.780  1.00  0.00     0.026 C 
BRANCH  14  15
HETATM   15  C   UNL     1      43.572 -20.662   2.022  1.00  0.00    -0.002 C 
HETATM   16  C   UNL     1      44.154 -21.996   1.579  1.00  0.00     0.005 C 
ENDBRANCH  14  15
ENDBRANCH  13  14
ENDBRANCH  12  13
ENDBRANCH   9  12
ENDBRANCH   3   6
ENDBRANCH   1   2
BRANCH   1  17
HETATM   17  C   UNL     1      44.361 -12.508   9.308  1.00  0.00     0.255 C 
HETATM   18  N   UNL     1      43.335 -11.577   9.304  1.00  0.00    -0.246 N 
HETATM   19  H   UNL     1      42.999 -11.213   8.408  1.00  0.00     0.192 HD
HETATM   20  O   UNL     1      44.939 -12.911  10.318  1.00  0.00    -0.270 OA
BRANCH  18  21
HETATM   21  N   UNL     1      42.856 -11.073  10.473  1.00  0.00    -0.184 NA
HETATM   22  C   UNL     1      43.324  -9.911  10.803  1.00  0.00     0.153 C 
BRANCH  22  23
HETATM   23  C   UNL     1      42.902  -9.255  12.056  1.00  0.00     0.016 A 
HETATM   24  C   UNL     1      42.037  -8.153  12.065  1.00  0.00     0.080 A 
HETATM   25  C   UNL     1      41.651  -7.568  13.270  1.00  0.00     0.074 A 
HETATM   26  C   UNL     1      42.141  -8.087  14.464  1.00  0.00     0.068 A 
HETATM   27  C   UNL     1      43.005  -9.177  14.472  1.00  0.00     0.037 A 
HETATM   28  C   UNL     1      43.388  -9.767  13.265  1.00  0.00     0.018 A 
BRANCH  24  29
HETATM   29  O   UNL     1      41.521  -7.593  10.927  1.00  0.00    -0.360 OA
HETATM   30  H   UNL     1      40.570  -7.846  10.861  1.00  0.00     0.217 HD
ENDBRANCH  24  29
BRANCH  26  31
HETATM   31  O   UNL     1      41.792  -7.547  15.668  1.00  0.00    -0.361 OA
HETATM   32  H   UNL     1      41.277  -6.738  15.504  1.00  0.00     0.217 HD
ENDBRANCH  26  31
ENDBRANCH  22  23
ENDBRANCH  18  21
ENDBRANCH   1  17
TORSDOF 11
ENDMDL
MODEL 4
REMARK VINA RESULT:      -7.4      3.835     11.297
REMARK  11 active torsions:
REMARK  status: ('A' for Active; 'I' for Inactive)
REMARK    1  A    between atoms: C_2  and  C_3 
REMARK    2  A    between atoms: C_3  and  C_4 
REMARK    3  A    between atoms: C_4  and  O_5 
REMARK    4  A    between atoms: O_5  and  C_6 
REMARK    5  A    between atoms: C_9  and  C_10 
REMARK       I    between atoms: C_10  and  N_11 
REMARK    6  A    between atoms: N_11  and  C_12 
REMARK    7  A    between atoms: C_12  and  C_13 
REMARK       I    between atoms: C_13  and  N_14 
REMARK    8  A    between atoms: N_14  and  N_15 
REMARK    9  A    between atoms: C_16  and  C_17 
REMARK   10  A    between atoms: C_18  and  O_19 
REMARK   11  A    between atoms: C_21  and  O_22 
ROOT
HETATM    1  C   UNL     1      40.223 -14.303   5.177  1.00  0.00     0.227 C 
ENDROOT
BRANCH   1   2
HETATM    2  N   UNL     1      40.514 -13.364   6.256  1.00  0.00    -0.348 N 
HETATM    3  C   UNL     1      39.729 -12.256   6.480  1.00  0.00     0.252 C 
HETATM    4  O   UNL     1      38.835 -11.928   5.705  1.00  0.00    -0.268 OA
HETATM    5  H   UNL     1      41.161 -13.675   6.969  1.00  0.00     0.163 HD
BRANCH   3   6
HETATM    6  C   UNL     1      40.027 -11.431   7.681  1.00  0.00     0.032 A 
HETATM    7  C   UNL     1      39.158 -11.361   8.776  1.00  0.00     0.020 A 
HETATM    8  C   UNL     1      39.524 -10.636   9.917  1.00  0.00     0.038 A 
HETATM    9  C   UNL     1      40.763  -9.996   9.973  1.00  0.00     0.068 A 
HETATM   10  C   UNL     1      41.611 -10.033   8.867  1.00  0.00     0.038 A 
HETATM   11  C   UNL     1      41.252 -10.757   7.728  1.00  0.00     0.020 A 
BRANCH   9  12
HETATM   12  O   UNL     1      41.242  -9.305  11.051  1.00  0.00    -0.351 OA
BRANCH  12  13
HETATM   13  C   UNL     1      41.714 -10.101  12.140  1.00  0.00     0.175 C 
BRANCH  13  14
HETATM   14  C   UNL     1      43.190  -9.786  12.383  1.00  0.00     0.026 C 
BRANCH  14  15
HETATM   15  C   UNL     1      43.477  -9.375  13.827  1.00  0.00    -0.002 C 
HETATM   16  C   UNL     1      42.256  -9.586  14.711  1.00  0.00     0.005 C 
ENDBRANCH  14  15
ENDBRANCH  13  14
ENDBRANCH  12  13
ENDBRANCH   9  12
ENDBRANCH   3   6
ENDBRANCH   1   2
BRANCH   1  17
HETATM   17  C   UNL     1      40.811 -15.707   5.372  1.00  0.00     0.255 C 
HETATM   18  N   UNL     1      41.416 -16.218   4.234  1.00  0.00    -0.246 N 
HETATM   19  H   UNL     1      41.397 -15.666   3.372  1.00  0.00     0.192 HD
HETATM   20  O   UNL     1      40.649 -16.330   6.420  1.00  0.00    -0.270 OA
BRANCH  18  21
HETATM   21  N   UNL     1      41.929 -17.477   4.233  1.00  0.00    -0.184 NA
HETATM   22  C   UNL     1      42.711 -17.750   3.236  1.00  0.00     0.153 C 
BRANCH  22  23
HETATM   23  C   UNL     1      43.324 -19.086   3.100  1.00  0.00     0.016 A 
HETATM   24  C   UNL     1      44.170 -19.620   4.081  1.00  0.00     0.080 A 
HETATM   25  C   UNL     1      44.720 -20.891   3.923  1.00  0.00     0.074 A 
HETATM   26  C   UNL     1      44.424 -21.621   2.777  1.00  0.00     0.068 A 
HETATM   27  C   UNL     1      43.590 -21.103   1.791  1.00  0.00     0.037 A 
HETATM   28  C   UNL     1      43.034 -19.831   1.951  1.00  0.00     0.018 A 
BRANCH  24  29
HETATM   29  O   UNL     1      44.503 -18.955   5.231  1.00  0.00    -0.360 OA
HETATM   30  H   UNL     1      44.634 -19.620   5.946  1.00  0.00     0.217 HD
ENDBRANCH  24  29
BRANCH  26  31
HETATM   31  O   UNL     1      44.939 -22.869   2.578  1.00  0.00    -0.361 OA
HETATM   32  H   UNL     1      44.556 -23.233   1.761  1.00  0.00     0.217 HD
ENDBRANCH  26  31
ENDBRANCH  22  23
ENDBRANCH  18  21
ENDBRANCH   1  17
TORSDOF 11
ENDMDL
MODEL 5
REMARK VINA RESULT:      -7.0      2.968      3.613
REMARK  11 active torsions:
REMARK  status: ('A' for Active; 'I' for Inactive)
REMARK    1  A    between atoms: C_2  and  C_3 
REMARK    2  A    between atoms: C_3  and  C_4 
REMARK    3  A    between atoms: C_4  and  O_5 
REMARK    4  A    between atoms: O_5  and  C_6 
REMARK    5  A    between atoms: C_9  and  C_10 
REMARK       I    between atoms: C_10  and  N_11 
REMARK    6  A    between atoms: N_11  and  C_12 
REMARK    7  A    between atoms: C_12  and  C_13 
REMARK       I    between atoms: C_13  and  N_14 
REMARK    8  A    between atoms: N_14  and  N_15 
REMARK    9  A    between atoms: C_16  and  C_17 
REMARK   10  A    between atoms: C_18  and  O_19 
REMARK   11  A    between atoms: C_21  and  O_22 
ROOT
HETATM    1  C   UNL     1      39.307 -12.290   6.915  1.00  0.00     0.227 C 
ENDROOT
BRANCH   1   2
HETATM    2  N   UNL     1      40.026 -13.544   6.708  1.00  0.00    -0.348 N 
HETATM    3  C   UNL     1      40.225 -14.063   5.449  1.00  0.00     0.252 C 
HETATM    4  O   UNL     1      39.692 -13.576   4.456  1.00  0.00    -0.268 OA
HETATM    5  H   UNL     1      40.569 -13.892   7.487  1.00  0.00     0.163 HD
BRANCH   3   6
HETATM    6  C   UNL     1      41.079 -15.274   5.330  1.00  0.00     0.032 A 
HETATM    7  C   UNL     1      42.170 -15.508   6.175  1.00  0.00     0.020 A 
HETATM    8  C   UNL     1      42.892 -16.704   6.075  1.00  0.00     0.038 A 
HETATM    9  C   UNL     1      42.516 -17.675   5.145  1.00  0.00     0.068 A 
HETATM   10  C   UNL     1      41.454 -17.424   4.277  1.00  0.00     0.038 A 
HETATM   11  C   UNL     1      40.729 -16.234   4.374  1.00  0.00     0.020 A 
BRANCH   9  12
HETATM   12  O   UNL     1      43.115 -18.894   4.995  1.00  0.00    -0.351 OA
BRANCH  12  13
HETATM   13  C   UNL     1      44.286 -18.915   4.177  1.00  0.00     0.175 C 
BRANCH  13  14
HETATM   14  C   UNL     1      44.046 -19.845   2.989  1.00  0.00     0.026 C 
BRANCH  14  15
HETATM   15  C   UNL     1      43.535 -19.105   1.752  1.00  0.00    -0.002 C 
HETATM   16  C   UNL     1      44.153 -17.718   1.650  1.00  0.00     0.005 C 
ENDBRANCH  14  15
ENDBRANCH  13  14
ENDBRANCH  12  13
ENDBRANCH   9  12
ENDBRANCH   3   6
ENDBRANCH   1   2
BRANCH   1  17
HETATM   17  C   UNL     1      39.968 -11.328   7.911  1.00  0.00     0.255 C 
HETATM   18  N   UNL     1      39.559 -11.518   9.221  1.00  0.00    -0.246 N 
HETATM   19  H   UNL     1      38.849 -12.229   9.421  1.00  0.00     0.192 HD
HETATM   20  O   UNL     1      40.705 -10.419   7.531  1.00  0.00    -0.270 OA
BRANCH  18  21
HETATM   21  N   UNL     1      40.010 -10.701  10.210  1.00  0.00    -0.184 NA
HETATM   22  C   UNL     1      40.443 -11.309  11.269  1.00  0.00     0.153 C 
BRANCH  22  23
HETATM   23  C   UNL     1      40.946 -10.543  12.427  1.00  0.00     0.016 A 
HETATM   24  C   UNL     1      40.236  -9.465  12.971  1.00  0.00     0.080 A 
HETATM   25  C   UNL     1      40.737  -8.773  14.073  1.00  0.00     0.074 A 
HETATM   26  C   UNL     1      41.954  -9.162  14.622  1.00  0.00     0.068 A 
HETATM   27  C   UNL     1      42.674 -10.228  14.089  1.00  0.00     0.037 A 
HETATM   28  C   UNL     1      42.170 -10.924  12.989  1.00  0.00     0.018 A 
BRANCH  24  29
HETATM   29  O   UNL     1      39.034  -9.030  12.478  1.00  0.00    -0.360 OA
HETATM   30  H   UNL     1      39.212  -8.402  11.740  1.00  0.00     0.217 HD
ENDBRANCH  24  29
BRANCH  26  31
HETATM   31  O   UNL     1      42.485  -8.516  15.700  1.00  0.00    -0.361 OA
HETATM   32  H   UNL     1      43.454  -8.518  15.612  1.00  0.00     0.217 HD
ENDBRANCH  26  31
ENDBRANCH  22  23
ENDBRANCH  18  21
ENDBRANCH   1  17
TORSDOF 11
ENDMDL
MODEL 6
REMARK VINA RESULT:      -6.9      6.482     10.057
REMARK  11 active torsions:
REMARK  status: ('A' for Active; 'I' for Inactive)
REMARK    1  A    between atoms: C_2  and  C_3 
REMARK    2  A    between atoms: C_3  and  C_4 
REMARK    3  A    between atoms: C_4  and  O_5 
REMARK    4  A    between atoms: O_5  and  C_6 
REMARK    5  A    between atoms: C_9  and  C_10 
REMARK       I    between atoms: C_10  and  N_11 
REMARK    6  A    between atoms: N_11  and  C_12 
REMARK    7  A    between atoms: C_12  and  C_13 
REMARK       I    between atoms: C_13  and  N_14 
REMARK    8  A    between atoms: N_14  and  N_15 
REMARK    9  A    between atoms: C_16  and  C_17 
REMARK   10  A    between atoms: C_18  and  O_19 
REMARK   11  A    between atoms: C_21  and  O_22 
ROOT
HETATM    1  C   UNL     1      42.283 -13.770   4.225  1.00  0.00     0.227 C 
ENDROOT
BRANCH   1   2
HETATM    2  N   UNL     1      41.569 -13.754   2.951  1.00  0.00    -0.348 N 
HETATM    3  C   UNL     1      40.224 -14.033   2.874  1.00  0.00     0.252 C 
HETATM    4  O   UNL     1      39.590 -14.442   3.842  1.00  0.00    -0.268 OA
HETATM    5  H   UNL     1      42.036 -13.308   2.173  1.00  0.00     0.163 HD
BRANCH   3   6
HETATM    6  C   UNL     1      39.560 -13.864   1.554  1.00  0.00     0.032 A 
HETATM    7  C   UNL     1      38.235 -14.254   1.327  1.00  0.00     0.020 A 
HETATM    8  C   UNL     1      37.630 -13.997   0.090  1.00  0.00     0.038 A 
HETATM    9  C   UNL     1      38.338 -13.334  -0.913  1.00  0.00     0.068 A 
HETATM   10  C   UNL     1      39.670 -12.981  -0.699  1.00  0.00     0.038 A 
HETATM   11  C   UNL     1      40.278 -13.233   0.532  1.00  0.00     0.020 A 
BRANCH   9  12
HETATM   12  O   UNL     1      37.833 -12.988  -2.135  1.00  0.00    -0.351 OA
BRANCH  12  13
HETATM   13  C   UNL     1      38.627 -13.356  -3.264  1.00  0.00     0.175 C 
BRANCH  13  14
HETATM   14  C   UNL     1      38.221 -14.757  -3.722  1.00  0.00     0.026 C 
BRANCH  14  15
HETATM   15  C   UNL     1      39.367 -15.765  -3.631  1.00  0.00    -0.002 C 
HETATM   16  C   UNL     1      40.696 -15.063  -3.393  1.00  0.00     0.005 C 
ENDBRANCH  14  15
ENDBRANCH  13  14
ENDBRANCH  12  13
ENDBRANCH   9  12
ENDBRANCH   3   6
ENDBRANCH   1   2
BRANCH   1  17
HETATM   17  C   UNL     1      42.950 -15.108   4.570  1.00  0.00     0.255 C 
HETATM   18  N   UNL     1      43.339 -15.837   3.457  1.00  0.00    -0.246 N 
HETATM   19  H   UNL     1      43.132 -15.467   2.524  1.00  0.00     0.192 HD
HETATM   20  O   UNL     1      43.018 -15.511   5.731  1.00  0.00    -0.270 OA
BRANCH  18  21
HETATM   21  N   UNL     1      43.889 -17.072   3.599  1.00  0.00    -0.184 NA
HETATM   22  C   UNL     1      43.240 -18.032   3.020  1.00  0.00     0.153 C 
BRANCH  22  23
HETATM   23  C   UNL     1      43.716 -19.427   3.109  1.00  0.00     0.016 A 
HETATM   24  C   UNL     1      44.407 -19.908   4.228  1.00  0.00     0.080 A 
HETATM   25  C   UNL     1      44.831 -21.235   4.281  1.00  0.00     0.074 A 
HETATM   26  C   UNL     1      44.564 -22.075   3.205  1.00  0.00     0.068 A 
HETATM   27  C   UNL     1      43.884 -21.611   2.083  1.00  0.00     0.037 A 
HETATM   28  C   UNL     1      43.455 -20.283   2.033  1.00  0.00     0.018 A 
BRANCH  24  29
HETATM   29  O   UNL     1      44.703 -19.134   5.319  1.00  0.00    -0.360 OA
HETATM   30  H   UNL     1      44.593 -19.686   6.129  1.00  0.00     0.217 HD
ENDBRANCH  24  29
BRANCH  26  31
HETATM   31  O   UNL     1      44.959 -23.381   3.210  1.00  0.00    -0.361 OA
HETATM   32  H   UNL     1      44.641 -23.795   4.031  1.00  0.00     0.217 HD
ENDBRANCH  26  31
ENDBRANCH  22  23
ENDBRANCH  18  21
ENDBRANCH   1  17
TORSDOF 11
ENDMDL
MODEL 7
REMARK VINA RESULT:      -6.9      6.941     10.812
REMARK  11 active torsions:
REMARK  status: ('A' for Active; 'I' for Inactive)
REMARK    1  A    between atoms: C_2  and  C_3 
REMARK    2  A    between atoms: C_3  and  C_4 
REMARK    3  A    between atoms: C_4  and  O_5 
REMARK    4  A    between atoms: O_5  and  C_6 
REMARK    5  A    between atoms: C_9  and  C_10 
REMARK       I    between atoms: C_10  and  N_11 
REMARK    6  A    between atoms: N_11  and  C_12 
REMARK    7  A    between atoms: C_12  and  C_13 
REMARK       I    between atoms: C_13  and  N_14 
REMARK    8  A    between atoms: N_14  and  N_15 
REMARK    9  A    between atoms: C_16  and  C_17 
REMARK   10  A    between atoms: C_18  and  O_19 
REMARK   11  A    between atoms: C_21  and  O_22 
ROOT
HETATM    1  C   UNL     1      41.529 -12.654   3.495  1.00  0.00     0.227 C 
ENDROOT
BRANCH   1   2
HETATM    2  N   UNL     1      41.762 -14.076   3.256  1.00  0.00    -0.348 N 
HETATM    3  C   UNL     1      43.030 -14.609   3.253  1.00  0.00     0.252 C 
HETATM    4  O   UNL     1      44.031 -13.900   3.312  1.00  0.00    -0.268 OA
HETATM    5  H   UNL     1      40.959 -14.687   3.326  1.00  0.00     0.163 HD
BRANCH   3   6
HETATM    6  C   UNL     1      43.158 -16.086   3.131  1.00  0.00     0.032 A 
HETATM    7  C   UNL     1      42.530 -16.968   4.019  1.00  0.00     0.020 A 
HETATM    8  C   UNL     1      42.613 -18.350   3.811  1.00  0.00     0.038 A 
HETATM    9  C   UNL     1      43.306 -18.853   2.708  1.00  0.00     0.068 A 
HETATM   10  C   UNL     1      43.964 -17.975   1.847  1.00  0.00     0.038 A 
HETATM   11  C   UNL     1      43.882 -16.596   2.048  1.00  0.00     0.020 A 
BRANCH   9  12
HETATM   12  O   UNL     1      43.409 -20.176   2.381  1.00  0.00    -0.351 OA
BRANCH  12  13
HETATM   13  C   UNL     1      44.678 -20.782   2.631  1.00  0.00     0.175 C 
BRANCH  13  14
HETATM   14  C   UNL     1      44.475 -22.275   2.885  1.00  0.00     0.026 C 
BRANCH  14  15
HETATM   15  C   UNL     1      44.664 -22.657   4.353  1.00  0.00    -0.002 C 
HETATM   16  C   UNL     1      44.767 -21.420   5.232  1.00  0.00     0.005 C 
ENDBRANCH  14  15
ENDBRANCH  13  14
ENDBRANCH  12  13
ENDBRANCH   9  12
ENDBRANCH   3   6
ENDBRANCH   1   2
BRANCH   1  17
HETATM   17  C   UNL     1      41.428 -11.799   2.225  1.00  0.00     0.255 C 
HETATM   18  N   UNL     1      42.426 -12.060   1.300  1.00  0.00    -0.246 N 
HETATM   19  H   UNL     1      43.150 -12.747   1.530  1.00  0.00     0.192 HD
HETATM   20  O   UNL     1      40.591 -10.902   2.121  1.00  0.00    -0.270 OA
BRANCH  18  21
HETATM   21  N   UNL     1      42.506 -11.338   0.150  1.00  0.00    -0.184 NA
HETATM   22  C   UNL     1      42.368 -12.025  -0.940  1.00  0.00     0.153 C 
BRANCH  22  23
HETATM   23  C   UNL     1      42.451 -11.370  -2.261  1.00  0.00     0.016 A 
HETATM   24  C   UNL     1      42.371 -12.095  -3.458  1.00  0.00     0.080 A 
HETATM   25  C   UNL     1      42.441 -11.440  -4.686  1.00  0.00     0.074 A 
HETATM   26  C   UNL     1      42.599 -10.058  -4.710  1.00  0.00     0.068 A 
HETATM   27  C   UNL     1      42.686  -9.325  -3.530  1.00  0.00     0.037 A 
HETATM   28  C   UNL     1      42.610  -9.980  -2.299  1.00  0.00     0.018 A 
BRANCH  24  29
HETATM   29  O   UNL     1      42.218 -13.455  -3.504  1.00  0.00    -0.360 OA
HETATM   30  H   UNL     1      43.104 -13.870  -3.386  1.00  0.00     0.217 HD
ENDBRANCH  24  29
BRANCH  26  31
HETATM   31  O   UNL     1      42.673  -9.372  -5.887  1.00  0.00    -0.361 OA
HETATM   32  H   UNL     1      43.603  -9.352  -6.172  1.00  0.00     0.217 HD
ENDBRANCH  26  31
ENDBRANCH  22  23
ENDBRANCH  18  21
ENDBRANCH   1  17
TORSDOF 11
ENDMDL
MODEL 8
REMARK VINA RESULT:      -6.9      2.280     10.350
REMARK  11 active torsions:
REMARK  status: ('A' for Active; 'I' for Inactive)
REMARK    1  A    between atoms: C_2  and  C_3 
REMARK    2  A    between atoms: C_3  and  C_4 
REMARK    3  A    between atoms: C_4  and  O_5 
REMARK    4  A    between atoms: O_5  and  C_6 
REMARK    5  A    between atoms: C_9  and  C_10 
REMARK       I    between atoms: C_10  and  N_11 
REMARK    6  A    between atoms: N_11  and  C_12 
REMARK    7  A    between atoms: C_12  and  C_13 
REMARK       I    between atoms: C_13  and  N_14 
REMARK    8  A    between atoms: N_14  and  N_15 
REMARK    9  A    between atoms: C_16  and  C_17 
REMARK   10  A    between atoms: C_18  and  O_19 
REMARK   11  A    between atoms: C_21  and  O_22 
ROOT
HETATM    1  C   UNL     1      44.953 -13.256   8.340  1.00  0.00     0.227 C 
ENDROOT
BRANCH   1   2
HETATM    2  N   UNL     1      44.139 -12.245   9.009  1.00  0.00    -0.348 N 
HETATM    3  C   UNL     1      44.151 -12.098  10.378  1.00  0.00     0.252 C 
HETATM    4  O   UNL     1      44.734 -12.894  11.109  1.00  0.00    -0.268 OA
HETATM    5  H   UNL     1      43.753 -11.512   8.429  1.00  0.00     0.163 HD
BRANCH   3   6
HETATM    6  C   UNL     1      43.392 -10.958  10.956  1.00  0.00     0.032 A 
HETATM    7  C   UNL     1      43.655 -10.454  12.235  1.00  0.00     0.020 A 
HETATM    8  C   UNL     1      42.968  -9.326  12.701  1.00  0.00     0.038 A 
HETATM    9  C   UNL     1      42.032  -8.690  11.884  1.00  0.00     0.068 A 
HETATM   10  C   UNL     1      41.741  -9.216  10.626  1.00  0.00     0.038 A 
HETATM   11  C   UNL     1      42.425 -10.339  10.156  1.00  0.00     0.020 A 
BRANCH   9  12
HETATM   12  O   UNL     1      41.341  -7.557  12.216  1.00  0.00    -0.351 OA
BRANCH  12  13
HETATM   13  C   UNL     1      39.987  -7.499  11.764  1.00  0.00     0.175 C 
BRANCH  13  14
HETATM   14  C   UNL     1      39.071  -8.010  12.875  1.00  0.00     0.026 C 
BRANCH  14  15
HETATM   15  C   UNL     1      38.083  -9.071  12.386  1.00  0.00    -0.002 C 
HETATM   16  C   UNL     1      38.052  -9.131  10.866  1.00  0.00     0.005 C 
ENDBRANCH  14  15
ENDBRANCH  13  14
ENDBRANCH  12  13
ENDBRANCH   9  12
ENDBRANCH   3   6
ENDBRANCH   1   2
BRANCH   1  17
HETATM   17  C   UNL     1      44.518 -13.582   6.905  1.00  0.00     0.255 C 
HETATM   18  N   UNL     1      43.176 -13.908   6.793  1.00  0.00    -0.246 N 
HETATM   19  H   UNL     1      42.601 -13.943   7.640  1.00  0.00     0.192 HD
HETATM   20  O   UNL     1      45.334 -13.642   5.986  1.00  0.00    -0.270 OA
BRANCH  18  21
HETATM   21  N   UNL     1      42.655 -14.282   5.593  1.00  0.00    -0.184 NA
HETATM   22  C   UNL     1      42.489 -15.558   5.440  1.00  0.00     0.153 C 
BRANCH  22  23
HETATM   23  C   UNL     1      41.948 -16.103   4.179  1.00  0.00     0.016 A 
HETATM   24  C   UNL     1      40.691 -15.730   3.686  1.00  0.00     0.080 A 
HETATM   25  C   UNL     1      40.218 -16.257   2.485  1.00  0.00     0.074 A 
HETATM   26  C   UNL     1      41.008 -17.163   1.785  1.00  0.00     0.068 A 
HETATM   27  C   UNL     1      42.257 -17.548   2.264  1.00  0.00     0.037 A 
HETATM   28  C   UNL     1      42.732 -17.016   3.465  1.00  0.00     0.018 A 
BRANCH  24  29
HETATM   29  O   UNL     1      39.864 -14.845   4.326  1.00  0.00    -0.360 OA
HETATM   30  H   UNL     1      39.759 -14.050   3.753  1.00  0.00     0.217 HD
ENDBRANCH  24  29
BRANCH  26  31
HETATM   31  O   UNL     1      40.589 -17.706   0.605  1.00  0.00    -0.361 OA
HETATM   32  H   UNL     1      41.224 -18.393   0.341  1.00  0.00     0.217 HD
ENDBRANCH  26  31
ENDBRANCH  22  23
ENDBRANCH  18  21
ENDBRANCH   1  17
TORSDOF 11
ENDMDL
MODEL 9
REMARK VINA RESULT:      -6.9      3.733     10.747
REMARK  11 active torsions:
REMARK  status: ('A' for Active; 'I' for Inactive)
REMARK    1  A    between atoms: C_2  and  C_3 
REMARK    2  A    between atoms: C_3  and  C_4 
REMARK    3  A    between atoms: C_4  and  O_5 
REMARK    4  A    between atoms: O_5  and  C_6 
REMARK    5  A    between atoms: C_9  and  C_10 
REMARK       I    between atoms: C_10  and  N_11 
REMARK    6  A    between atoms: N_11  and  C_12 
REMARK    7  A    between atoms: C_12  and  C_13 
REMARK       I    between atoms: C_13  and  N_14 
REMARK    8  A    between atoms: N_14  and  N_15 
REMARK    9  A    between atoms: C_16  and  C_17 
REMARK   10  A    between atoms: C_18  and  O_19 
REMARK   11  A    between atoms: C_21  and  O_22 
ROOT
HETATM    1  C   UNL     1      39.570 -13.569   5.495  1.00  0.00     0.227 C 
ENDROOT
BRANCH   1   2
HETATM    2  N   UNL     1      40.059 -12.789   6.629  1.00  0.00    -0.348 N 
HETATM    3  C   UNL     1      39.648 -11.494   6.845  1.00  0.00     0.252 C 
HETATM    4  O   UNL     1      38.965 -10.886   6.026  1.00  0.00    -0.268 OA
HETATM    5  H   UNL     1      40.518 -13.301   7.370  1.00  0.00     0.163 HD
BRANCH   3   6
HETATM    6  C   UNL     1      40.097 -10.827   8.096  1.00  0.00     0.032 A 
HETATM    7  C   UNL     1      39.406 -10.959   9.306  1.00  0.00     0.020 A 
HETATM    8  C   UNL     1      39.917 -10.378  10.473  1.00  0.00     0.038 A 
HETATM    9  C   UNL     1      41.127  -9.683  10.439  1.00  0.00     0.068 A 
HETATM   10  C   UNL     1      41.794  -9.518   9.226  1.00  0.00     0.038 A 
HETATM   11  C   UNL     1      41.291 -10.097   8.059  1.00  0.00     0.020 A 
BRANCH   9  12
HETATM   12  O   UNL     1      41.742  -9.121  11.523  1.00  0.00    -0.351 OA
BRANCH  12  13
HETATM   13  C   UNL     1      42.333 -10.037  12.446  1.00  0.00     0.175 C 
BRANCH  13  14
HETATM   14  C   UNL     1      43.836 -10.111  12.179  1.00  0.00     0.026 C 
BRANCH  14  15
HETATM   15  C   UNL     1      44.225 -11.314  11.319  1.00  0.00    -0.002 C 
HETATM   16  C   UNL     1      45.126 -10.894  10.166  1.00  0.00     0.005 C 
ENDBRANCH  14  15
ENDBRANCH  13  14
ENDBRANCH  12  13
ENDBRANCH   9  12
ENDBRANCH   3   6
ENDBRANCH   1   2
BRANCH   1  17
HETATM   17  C   UNL     1      40.255 -14.929   5.310  1.00  0.00     0.255 C 
HETATM   18  N   UNL     1      40.342 -15.331   3.986  1.00  0.00    -0.246 N 
HETATM   19  H   UNL     1      39.930 -14.737   3.260  1.00  0.00     0.192 HD
HETATM   20  O   UNL     1      40.586 -15.617   6.275  1.00  0.00    -0.270 OA
BRANCH  18  21
HETATM   21  N   UNL     1      40.868 -16.543   3.666  1.00  0.00    -0.184 NA
HETATM   22  C   UNL     1      42.154 -16.636   3.800  1.00  0.00     0.153 C 
BRANCH  22  23
HETATM   23  C   UNL     1      42.859 -17.891   3.470  1.00  0.00     0.016 A 
HETATM   24  C   UNL     1      42.677 -18.547   2.245  1.00  0.00     0.080 A 
HETATM   25  C   UNL     1      43.370 -19.723   1.965  1.00  0.00     0.074 A 
HETATM   26  C   UNL     1      44.239 -20.243   2.919  1.00  0.00     0.068 A 
HETATM   27  C   UNL     1      44.425 -19.607   4.143  1.00  0.00     0.037 A 
HETATM   28  C   UNL     1      43.735 -18.424   4.421  1.00  0.00     0.018 A 
BRANCH  24  29
HETATM   29  O   UNL     1      41.837 -18.090   1.265  1.00  0.00    -0.360 OA
HETATM   30  H   UNL     1      41.094 -18.730   1.171  1.00  0.00     0.217 HD
ENDBRANCH  24  29
BRANCH  26  31
HETATM   31  O   UNL     1      44.938 -21.392   2.691  1.00  0.00    -0.361 OA
HETATM   32  H   UNL     1      45.318 -21.693   3.534  1.00  0.00     0.217 HD
ENDBRANCH  26  31
ENDBRANCH  22  23
ENDBRANCH  18  21
ENDBRANCH   1  17
TORSDOF 11
ENDMDL
MODEL 10
REMARK VINA RESULT:      -6.8      2.244     10.762
REMARK  11 active torsions:
REMARK  status: ('A' for Active; 'I' for Inactive)
REMARK    1  A    between atoms: C_2  and  C_3 
REMARK    2  A    between atoms: C_3  and  C_4 
REMARK    3  A    between atoms: C_4  and  O_5 
REMARK    4  A    between atoms: O_5  and  C_6 
REMARK    5  A    between atoms: C_9  and  C_10 
REMARK       I    between atoms: C_10  and  N_11 
REMARK    6  A    between atoms: N_11  and  C_12 
REMARK    7  A    between atoms: C_12  and  C_13 
REMARK       I    between atoms: C_13  and  N_14 
REMARK    8  A    between atoms: N_14  and  N_15 
REMARK    9  A    between atoms: C_16  and  C_17 
REMARK   10  A    between atoms: C_18  and  O_19 
REMARK   11  A    between atoms: C_21  and  O_22 
ROOT
HETATM    1  C   UNL     1      44.560 -14.585   7.096  1.00  0.00     0.227 C 
ENDROOT
BRANCH   1   2
HETATM    2  N   UNL     1      44.132 -13.602   8.087  1.00  0.00    -0.348 N 
HETATM    3  C   UNL     1      44.973 -12.606   8.527  1.00  0.00     0.252 C 
HETATM    4  O   UNL     1      46.161 -12.577   8.216  1.00  0.00    -0.268 OA
HETATM    5  H   UNL     1      43.138 -13.535   8.263  1.00  0.00     0.163 HD
BRANCH   3   6
HETATM    6  C   UNL     1      44.407 -11.577   9.439  1.00  0.00     0.032 A 
HETATM    7  C   UNL     1      43.158 -10.984   9.216  1.00  0.00     0.020 A 
HETATM    8  C   UNL     1      42.634 -10.082  10.149  1.00  0.00     0.038 A 
HETATM    9  C   UNL     1      43.344  -9.784  11.313  1.00  0.00     0.068 A 
HETATM   10  C   UNL     1      44.605 -10.344  11.515  1.00  0.00     0.038 A 
HETATM   11  C   UNL     1      45.132 -11.247  10.589  1.00  0.00     0.020 A 
BRANCH   9  12
HETATM   12  O   UNL     1      42.906  -8.959  12.312  1.00  0.00    -0.351 OA
BRANCH  12  13
HETATM   13  C   UNL     1      43.284  -9.334  13.638  1.00  0.00     0.175 C 
BRANCH  13  14
HETATM   14  C   UNL     1      42.376 -10.468  14.112  1.00  0.00     0.026 C 
BRANCH  14  15
HETATM   15  C   UNL     1      40.943 -10.333  13.597  1.00  0.00    -0.002 C 
HETATM   16  C   UNL     1      40.489 -11.609  12.901  1.00  0.00     0.005 C 
ENDBRANCH  14  15
ENDBRANCH  13  14
ENDBRANCH  12  13
ENDBRANCH   9  12
ENDBRANCH   3   6
ENDBRANCH   1   2
BRANCH   1  17
HETATM   17  C   UNL     1      43.598 -14.765   5.914  1.00  0.00     0.255 C 
HETATM   18  N   UNL     1      43.889 -13.950   4.832  1.00  0.00    -0.246 N 
HETATM   19  H   UNL     1      44.667 -13.288   4.905  1.00  0.00     0.192 HD
HETATM   20  O   UNL     1      42.611 -15.495   5.997  1.00  0.00    -0.270 OA
BRANCH  18  21
HETATM   21  N   UNL     1      43.089 -13.951   3.732  1.00  0.00    -0.184 NA
HETATM   22  C   UNL     1      43.302 -14.920   2.900  1.00  0.00     0.153 C 
BRANCH  22  23
HETATM   23  C   UNL     1      42.516 -15.032   1.655  1.00  0.00     0.016 A 
HETATM   24  C   UNL     1      42.118 -13.907   0.921  1.00  0.00     0.080 A 
HETATM   25  C   UNL     1      41.387 -14.053  -0.256  1.00  0.00     0.074 A 
HETATM   26  C   UNL     1      41.051 -15.330  -0.692  1.00  0.00     0.068 A 
HETATM   27  C   UNL     1      41.434 -16.458   0.028  1.00  0.00     0.037 A 
HETATM   28  C   UNL     1      42.171 -16.312   1.205  1.00  0.00     0.018 A 
BRANCH  24  29
HETATM   29  O   UNL     1      42.414 -12.623   1.295  1.00  0.00    -0.360 OA
HETATM   30  H   UNL     1      43.197 -12.647   1.894  1.00  0.00     0.217 HD
ENDBRANCH  24  29
BRANCH  26  31
HETATM   31  O   UNL     1      40.337 -15.524  -1.838  1.00  0.00    -0.361 OA
HETATM   32  H   UNL     1      39.413 -15.270  -1.670  1.00  0.00     0.217 HD
ENDBRANCH  26  31
ENDBRANCH  22  23
ENDBRANCH  18  21
ENDBRANCH   1  17
TORSDOF 11
ENDMDL
