MODEL 1
REMARK VINA RESULT:     -10.6      0.000      0.000
REMARK  7 active torsions:
REMARK  status: ('A' for Active; 'I' for Inactive)
REMARK    1  A    between atoms: C_4  and  C_5 
REMARK    2  A    between atoms: C_5  and  C_6 
REMARK    3  A    between atoms: C_6  and  N_7 
REMARK       I    between atoms: N_7  and  C_8 
REMARK    4  A    between atoms: C_8  and  C_9 
REMARK    5  A    between atoms: C_10  and  N_11 
REMARK    6  A    between atoms: N_12  and  N_13 
REMARK    7  A    between atoms: C_14  and  C_15 
ROOT
HETATM    1  C   UNL     1      43.848 -14.365   6.519  1.00  0.00     0.104 C 
HETATM    2  C   UNL     1      43.765 -15.748   6.471  1.00  0.00     0.123 C 
HETATM    3  N   UNL     1      42.984 -16.094   5.367  1.00  0.00    -0.202 N 
HETATM    4  C   UNL     1      42.287 -14.962   4.985  1.00  0.00     0.183 A 
HETATM    5  C   UNL     1      42.865 -13.872   5.631  1.00  0.00     0.124 A 
HETATM    6  N   UNL     1      42.440 -12.603   5.401  1.00  0.00    -0.242 NA
HETATM    7  C   UNL     1      41.375 -12.513   4.581  1.00  0.00     0.086 A 
HETATM    8  C   UNL     1      40.791 -13.643   3.948  1.00  0.00     0.088 A 
HETATM    9  N   UNL     1      41.263 -14.888   4.103  1.00  0.00    -0.225 NA
HETATM   10  C   UNL     1      40.808 -11.262   4.361  1.00  0.00     0.034 A 
HETATM   11  C   UNL     1      39.680 -11.098   3.555  1.00  0.00     0.002 A 
HETATM   12  C   UNL     1      39.108 -12.204   2.944  1.00  0.00     0.002 A 
HETATM   13  C   UNL     1      39.673 -13.464   3.142  1.00  0.00     0.034 A 
ENDROOT
BRANCH   1  14
HETATM   14  C   UNL     1      44.746 -13.664   7.408  1.00  0.00     0.257 C 
HETATM   15  N   UNL     1      44.139 -13.206   8.568  1.00  0.00    -0.356 N 
HETATM   16  H   UNL     1      43.150 -13.404   8.653  1.00  0.00     0.162 HD
HETATM   17  O   UNL     1      45.873 -13.327   7.058  1.00  0.00    -0.267 OA
BRANCH  15  18
HETATM   18  C   UNL     1      44.615 -11.947   9.108  1.00  0.00     0.127 C 
BRANCH  18  19
HETATM   19  C   UNL     1      44.956 -12.000  10.597  1.00  0.00     0.058 C 
BRANCH  19  20
HETATM   20  C   UNL     1      43.991 -11.155  11.398  1.00  0.00    -0.057 A 
HETATM   21  C   UNL     1      43.820  -9.795  11.106  1.00  0.00     0.007 A 
HETATM   22  C   UNL     1      42.975  -9.004  11.887  1.00  0.00     0.001 A 
HETATM   23  C   UNL     1      42.295  -9.561  12.968  1.00  0.00     0.000 A 
HETATM   24  C   UNL     1      42.453 -10.914  13.264  1.00  0.00     0.001 A 
HETATM   25  C   UNL     1      43.293 -11.708  12.481  1.00  0.00     0.007 A 
ENDBRANCH  19  20
ENDBRANCH  18  19
ENDBRANCH  15  18
ENDBRANCH   1  14
BRANCH   2  26
HETATM   26  N   UNL     1      44.340 -16.674   7.295  1.00  0.00    -0.286 NA
HETATM   27  H   UNL     1      45.365 -16.725   7.270  1.00  0.00     0.125 HD
HETATM   28  H   UNL     1      44.018 -16.703   8.264  1.00  0.00     0.125 HD
ENDBRANCH   2  26
BRANCH   3  29
HETATM   29  N   UNL     1      42.869 -17.320   4.756  1.00  0.00    -0.176 NA
HETATM   30  C   UNL     1      43.821 -17.582   3.922  1.00  0.00     0.153 C 
BRANCH  30  31
HETATM   31  C   UNL     1      43.860 -18.848   3.227  1.00  0.00     0.011 A 
HETATM   32  C   UNL     1      44.224 -20.112   3.792  1.00  0.00     0.004 A 
HETATM   33  C   UNL     1      44.171 -21.056   2.767  1.00  0.00     0.043 A 
HETATM   34  C   UNL     1      44.580 -20.542   5.088  1.00  0.00     0.014 A 
HETATM   35  C   UNL     1      44.472 -22.407   2.970  1.00  0.00     0.030 A 
HETATM   36  N   UNL     1      43.785 -20.391   1.625  1.00  0.00    -0.364 N 
HETATM   37  C   UNL     1      44.817 -22.808   4.265  1.00  0.00     0.002 A 
HETATM   38  C   UNL     1      44.868 -21.892   5.311  1.00  0.00     0.001 A 
HETATM   39  H   UNL     1      43.669 -20.826   0.720  1.00  0.00     0.165 HD
HETATM   40  C   UNL     1      43.574 -19.067   1.895  1.00  0.00     0.102 A 
ENDBRANCH  30  31
ENDBRANCH   3  29
TORSDOF 7
ENDMDL
MODEL 2
REMARK VINA RESULT:     -10.4      4.174      8.147
REMARK  7 active torsions:
REMARK  status: ('A' for Active; 'I' for Inactive)
REMARK    1  A    between atoms: C_4  and  C_5 
REMARK    2  A    between atoms: C_5  and  C_6 
REMARK    3  A    between atoms: C_6  and  N_7 
REMARK       I    between atoms: N_7  and  C_8 
REMARK    4  A    between atoms: C_8  and  C_9 
REMARK    5  A    between atoms: C_10  and  N_11 
REMARK    6  A    between atoms: N_12  and  N_13 
REMARK    7  A    between atoms: C_14  and  C_15 
ROOT
HETATM    1  C   UNL     1      40.260 -14.616   0.727  1.00  0.00     0.104 C 
HETATM    2  C   UNL     1      41.150 -15.673   0.835  1.00  0.00     0.123 C 
HETATM    3  N   UNL     1      41.232 -16.030   2.182  1.00  0.00    -0.202 N 
HETATM    4  C   UNL     1      40.719 -14.977   2.918  1.00  0.00     0.183 A 
HETATM    5  C   UNL     1      40.045 -14.134   2.038  1.00  0.00     0.124 A 
HETATM    6  N   UNL     1      39.371 -13.041   2.479  1.00  0.00    -0.242 NA
HETATM    7  C   UNL     1      39.492 -12.807   3.800  1.00  0.00     0.086 A 
HETATM    8  C   UNL     1      40.201 -13.673   4.675  1.00  0.00     0.088 A 
HETATM    9  N   UNL     1      40.794 -14.801   4.258  1.00  0.00    -0.225 NA
HETATM   10  C   UNL     1      38.915 -11.657   4.327  1.00  0.00     0.034 A 
HETATM   11  C   UNL     1      39.033 -11.329   5.680  1.00  0.00     0.002 A 
HETATM   12  C   UNL     1      39.732 -12.174   6.530  1.00  0.00     0.002 A 
HETATM   13  C   UNL     1      40.304 -13.339   6.020  1.00  0.00     0.034 A 
ENDROOT
BRANCH   1  14
HETATM   14  C   UNL     1      39.775 -14.126  -0.543  1.00  0.00     0.257 C 
HETATM   15  N   UNL     1      39.920 -15.032  -1.584  1.00  0.00    -0.356 N 
HETATM   16  H   UNL     1      40.352 -15.915  -1.340  1.00  0.00     0.162 HD
HETATM   17  O   UNL     1      39.469 -12.950  -0.711  1.00  0.00    -0.267 OA
BRANCH  15  18
HETATM   18  C   UNL     1      40.214 -14.487  -2.896  1.00  0.00     0.127 C 
BRANCH  18  19
HETATM   19  C   UNL     1      41.707 -14.344  -3.188  1.00  0.00     0.058 C 
BRANCH  19  20
HETATM   20  C   UNL     1      42.150 -12.907  -3.022  1.00  0.00    -0.057 A 
HETATM   21  C   UNL     1      42.784 -12.486  -1.844  1.00  0.00     0.007 A 
HETATM   22  C   UNL     1      43.134 -11.146  -1.669  1.00  0.00     0.001 A 
HETATM   23  C   UNL     1      42.853 -10.213  -2.665  1.00  0.00     0.000 A 
HETATM   24  C   UNL     1      42.229 -10.621  -3.842  1.00  0.00     0.001 A 
HETATM   25  C   UNL     1      41.882 -11.961  -4.022  1.00  0.00     0.007 A 
ENDBRANCH  19  20
ENDBRANCH  18  19
ENDBRANCH  15  18
ENDBRANCH   1  14
BRANCH   2  26
HETATM   26  N   UNL     1      41.837 -16.324  -0.150  1.00  0.00    -0.286 NA
HETATM   27  H   UNL     1      41.819 -15.885  -1.078  1.00  0.00     0.125 HD
HETATM   28  H   UNL     1      42.787 -16.634   0.066  1.00  0.00     0.125 HD
ENDBRANCH   2  26
BRANCH   3  29
HETATM   29  N   UNL     1      41.745 -17.183   2.727  1.00  0.00    -0.176 NA
HETATM   30  C   UNL     1      42.995 -17.102   3.046  1.00  0.00     0.153 C 
BRANCH  30  31
HETATM   31  C   UNL     1      43.669 -18.221   3.664  1.00  0.00     0.011 A 
HETATM   32  C   UNL     1      43.816 -19.531   3.108  1.00  0.00     0.004 A 
HETATM   33  C   UNL     1      44.488 -20.309   4.050  1.00  0.00     0.043 A 
HETATM   34  C   UNL     1      43.452 -20.123   1.879  1.00  0.00     0.014 A 
HETATM   35  C   UNL     1      44.800 -21.655   3.831  1.00  0.00     0.030 A 
HETATM   36  N   UNL     1      44.744 -19.500   5.135  1.00  0.00    -0.364 N 
HETATM   37  C   UNL     1      44.432 -22.217   2.605  1.00  0.00     0.002 A 
HETATM   38  C   UNL     1      43.770 -21.463   1.639  1.00  0.00     0.001 A 
HETATM   39  H   UNL     1      45.216 -19.801   5.975  1.00  0.00     0.165 HD
HETATM   40  C   UNL     1      44.274 -18.236   4.904  1.00  0.00     0.102 A 
ENDBRANCH  30  31
ENDBRANCH   3  29
TORSDOF 7
ENDMDL
MODEL 3
REMARK VINA RESULT:     -10.2      3.135      6.459
REMARK  7 active torsions:
REMARK  status: ('A' for Active; 'I' for Inactive)
REMARK    1  A    between atoms: C_4  and  C_5 
REMARK    2  A    between atoms: C_5  and  C_6 
REMARK    3  A    between atoms: C_6  and  N_7 
REMARK       I    between atoms: N_7  and  C_8 
REMARK    4  A    between atoms: C_8  and  C_9 
REMARK    5  A    between atoms: C_10  and  N_11 
REMARK    6  A    between atoms: N_12  and  N_13 
REMARK    7  A    between atoms: C_14  and  C_15 
ROOT
HETATM    1  C   UNL     1      43.158 -14.477   4.433  1.00  0.00     0.104 C 
HETATM    2  C   UNL     1      42.767 -13.915   3.228  1.00  0.00     0.123 C 
HETATM    3  N   UNL     1      42.415 -14.954   2.363  1.00  0.00    -0.202 N 
HETATM    4  C   UNL     1      42.949 -16.119   2.882  1.00  0.00     0.183 A 
HETATM    5  C   UNL     1      43.341 -15.858   4.193  1.00  0.00     0.124 A 
HETATM    6  N   UNL     1      43.841 -16.836   4.992  1.00  0.00    -0.242 NA
HETATM    7  C   UNL     1      44.003 -18.025   4.381  1.00  0.00     0.086 A 
HETATM    8  C   UNL     1      43.613 -18.262   3.036  1.00  0.00     0.088 A 
HETATM    9  N   UNL     1      43.037 -17.324   2.271  1.00  0.00    -0.225 NA
HETATM   10  C   UNL     1      44.598 -19.062   5.092  1.00  0.00     0.034 A 
HETATM   11  C   UNL     1      44.834 -20.310   4.512  1.00  0.00     0.002 A 
HETATM   12  C   UNL     1      44.458 -20.535   3.196  1.00  0.00     0.002 A 
HETATM   13  C   UNL     1      43.846 -19.511   2.474  1.00  0.00     0.034 A 
ENDROOT
BRANCH   1  14
HETATM   14  C   UNL     1      43.391 -13.694   5.625  1.00  0.00     0.257 C 
HETATM   15  N   UNL     1      44.600 -13.968   6.246  1.00  0.00    -0.356 N 
HETATM   16  H   UNL     1      45.169 -14.680   5.806  1.00  0.00     0.162 HD
HETATM   17  O   UNL     1      42.505 -13.020   6.140  1.00  0.00    -0.267 OA
BRANCH  15  18
HETATM   18  C   UNL     1      44.629 -13.894   7.695  1.00  0.00     0.127 C 
BRANCH  18  19
HETATM   19  C   UNL     1      45.536 -12.792   8.242  1.00  0.00     0.058 C 
BRANCH  19  20
HETATM   20  C   UNL     1      44.778 -11.901   9.200  1.00  0.00    -0.057 A 
HETATM   21  C   UNL     1      43.528 -11.372   8.847  1.00  0.00     0.007 A 
HETATM   22  C   UNL     1      42.861 -10.499   9.709  1.00  0.00     0.001 A 
HETATM   23  C   UNL     1      43.434 -10.144  10.928  1.00  0.00     0.000 A 
HETATM   24  C   UNL     1      44.672 -10.669  11.292  1.00  0.00     0.001 A 
HETATM   25  C   UNL     1      45.340 -11.546  10.435  1.00  0.00     0.007 A 
ENDBRANCH  19  20
ENDBRANCH  18  19
ENDBRANCH  15  18
ENDBRANCH   1  14
BRANCH   2  26
HETATM   26  N   UNL     1      42.680 -12.597   2.881  1.00  0.00    -0.286 NA
HETATM   27  H   UNL     1      43.572 -12.115   2.714  1.00  0.00     0.125 HD
HETATM   28  H   UNL     1      42.012 -12.348   2.148  1.00  0.00     0.125 HD
ENDBRANCH   2  26
BRANCH   3  29
HETATM   29  N   UNL     1      41.703 -14.880   1.190  1.00  0.00    -0.176 NA
HETATM   30  C   UNL     1      40.463 -14.550   1.349  1.00  0.00     0.153 C 
BRANCH  30  31
HETATM   31  C   UNL     1      39.592 -14.395   0.206  1.00  0.00     0.011 A 
HETATM   32  C   UNL     1      39.902 -14.745  -1.146  1.00  0.00     0.004 A 
HETATM   33  C   UNL     1      38.804 -14.389  -1.929  1.00  0.00     0.043 A 
HETATM   34  C   UNL     1      41.012 -15.348  -1.775  1.00  0.00     0.014 A 
HETATM   35  C   UNL     1      38.767 -14.592  -3.313  1.00  0.00     0.030 A 
HETATM   36  N   UNL     1      37.862 -13.849  -1.083  1.00  0.00    -0.364 N 
HETATM   37  C   UNL     1      39.879 -15.194  -3.911  1.00  0.00     0.002 A 
HETATM   38  C   UNL     1      40.985 -15.571  -3.155  1.00  0.00     0.001 A 
HETATM   39  H   UNL     1      36.962 -13.496  -1.377  1.00  0.00     0.165 HD
HETATM   40  C   UNL     1      38.317 -13.867   0.208  1.00  0.00     0.102 A 
ENDBRANCH  30  31
ENDBRANCH   3  29
TORSDOF 7
ENDMDL
MODEL 4
REMARK VINA RESULT:     -10.2      3.281      6.914
REMARK  7 active torsions:
REMARK  status: ('A' for Active; 'I' for Inactive)
REMARK    1  A    between atoms: C_4  and  C_5 
REMARK    2  A    between atoms: C_5  and  C_6 
REMARK    3  A    between atoms: C_6  and  N_7 
REMARK       I    between atoms: N_7  and  C_8 
REMARK    4  A    between atoms: C_8  and  C_9 
REMARK    5  A    between atoms: C_10  and  N_11 
REMARK    6  A    between atoms: N_12  and  N_13 
REMARK    7  A    between atoms: C_14  and  C_15 
ROOT
HETATM    1  C   UNL     1      42.790 -14.847   4.036  1.00  0.00     0.104 C 
HETATM    2  C   UNL     1      42.219 -14.338   2.880  1.00  0.00     0.123 C 
HETATM    3  N   UNL     1      41.835 -15.416   2.079  1.00  0.00    -0.202 N 
HETATM    4  C   UNL     1      42.504 -16.533   2.546  1.00  0.00     0.183 A 
HETATM    5  C   UNL     1      43.033 -16.219   3.795  1.00  0.00     0.124 A 
HETATM    6  N   UNL     1      43.689 -17.144   4.541  1.00  0.00    -0.242 NA
HETATM    7  C   UNL     1      43.855 -18.335   3.932  1.00  0.00     0.086 A 
HETATM    8  C   UNL     1      43.321 -18.625   2.647  1.00  0.00     0.088 A 
HETATM    9  N   UNL     1      42.597 -17.743   1.945  1.00  0.00    -0.225 NA
HETATM   10  C   UNL     1      44.599 -19.315   4.579  1.00  0.00     0.034 A 
HETATM   11  C   UNL     1      44.845 -20.558   3.992  1.00  0.00     0.002 A 
HETATM   12  C   UNL     1      44.328 -20.835   2.735  1.00  0.00     0.002 A 
HETATM   13  C   UNL     1      43.567 -19.869   2.079  1.00  0.00     0.034 A 
ENDROOT
BRANCH   1  14
HETATM   14  C   UNL     1      43.112 -14.025   5.180  1.00  0.00     0.257 C 
HETATM   15  N   UNL     1      44.297 -14.380   5.807  1.00  0.00    -0.356 N 
HETATM   16  H   UNL     1      44.788 -15.168   5.404  1.00  0.00     0.162 HD
HETATM   17  O   UNL     1      42.302 -13.240   5.662  1.00  0.00    -0.267 OA
BRANCH  15  18
HETATM   18  C   UNL     1      44.351 -14.228   7.249  1.00  0.00     0.127 C 
BRANCH  18  19
HETATM   19  C   UNL     1      45.447 -13.278   7.732  1.00  0.00     0.058 C 
BRANCH  19  20
HETATM   20  C   UNL     1      44.906 -12.321   8.771  1.00  0.00    -0.057 A 
HETATM   21  C   UNL     1      43.638 -11.744   8.618  1.00  0.00     0.007 A 
HETATM   22  C   UNL     1      43.168 -10.812   9.547  1.00  0.00     0.001 A 
HETATM   23  C   UNL     1      43.960 -10.447  10.634  1.00  0.00     0.000 A 
HETATM   24  C   UNL     1      45.220 -11.019  10.798  1.00  0.00     0.001 A 
HETATM   25  C   UNL     1      45.690 -11.954   9.874  1.00  0.00     0.007 A 
ENDBRANCH  19  20
ENDBRANCH  18  19
ENDBRANCH  15  18
ENDBRANCH   1  14
BRANCH   2  26
HETATM   26  N   UNL     1      42.004 -13.036   2.528  1.00  0.00    -0.286 NA
HETATM   27  H   UNL     1      42.480 -12.715   1.676  1.00  0.00     0.125 HD
HETATM   28  H   UNL     1      41.038 -12.704   2.528  1.00  0.00     0.125 HD
ENDBRANCH   2  26
BRANCH   3  29
HETATM   29  N   UNL     1      40.983 -15.414   1.001  1.00  0.00    -0.176 NA
HETATM   30  C   UNL     1      41.529 -15.010  -0.099  1.00  0.00     0.153 C 
BRANCH  30  31
HETATM   31  C   UNL     1      40.770 -14.986  -1.329  1.00  0.00     0.011 A 
HETATM   32  C   UNL     1      39.654 -14.138  -1.617  1.00  0.00     0.004 A 
HETATM   33  C   UNL     1      39.196 -14.473  -2.890  1.00  0.00     0.043 A 
HETATM   34  C   UNL     1      39.000 -13.103  -0.914  1.00  0.00     0.014 A 
HETATM   35  C   UNL     1      38.105 -13.835  -3.492  1.00  0.00     0.030 A 
HETATM   36  N   UNL     1      40.007 -15.482  -3.360  1.00  0.00    -0.364 N 
HETATM   37  C   UNL     1      37.477 -12.811  -2.776  1.00  0.00     0.002 A 
HETATM   38  C   UNL     1      37.918 -12.446  -1.507  1.00  0.00     0.001 A 
HETATM   39  H   UNL     1      39.904 -15.928  -4.260  1.00  0.00     0.165 HD
HETATM   40  C   UNL     1      40.971 -15.783  -2.437  1.00  0.00     0.102 A 
ENDBRANCH  30  31
ENDBRANCH   3  29
TORSDOF 7
ENDMDL
MODEL 5
REMARK VINA RESULT:     -10.0      2.577      3.660
REMARK  7 active torsions:
REMARK  status: ('A' for Active; 'I' for Inactive)
REMARK    1  A    between atoms: C_4  and  C_5 
REMARK    2  A    between atoms: C_5  and  C_6 
REMARK    3  A    between atoms: C_6  and  N_7 
REMARK       I    between atoms: N_7  and  C_8 
REMARK    4  A    between atoms: C_8  and  C_9 
REMARK    5  A    between atoms: C_10  and  N_11 
REMARK    6  A    between atoms: N_12  and  N_13 
REMARK    7  A    between atoms: C_14  and  C_15 
ROOT
HETATM    1  C   UNL     1      40.524 -13.450   4.465  1.00  0.00     0.104 C 
HETATM    2  C   UNL     1      40.635 -14.700   5.052  1.00  0.00     0.123 C 
HETATM    3  N   UNL     1      41.152 -15.579   4.098  1.00  0.00    -0.202 N 
HETATM    4  C   UNL     1      40.991 -14.984   2.860  1.00  0.00     0.183 A 
HETATM    5  C   UNL     1      40.680 -13.643   3.073  1.00  0.00     0.124 A 
HETATM    6  N   UNL     1      40.531 -12.776   2.039  1.00  0.00    -0.242 NA
HETATM    7  C   UNL     1      40.619 -13.343   0.820  1.00  0.00     0.086 A 
HETATM    8  C   UNL     1      40.920 -14.719   0.629  1.00  0.00     0.088 A 
HETATM    9  N   UNL     1      41.155 -15.559   1.647  1.00  0.00    -0.225 NA
HETATM   10  C   UNL     1      40.385 -12.553  -0.300  1.00  0.00     0.034 A 
HETATM   11  C   UNL     1      40.421 -13.080  -1.593  1.00  0.00     0.002 A 
HETATM   12  C   UNL     1      40.708 -14.426  -1.774  1.00  0.00     0.002 A 
HETATM   13  C   UNL     1      40.960 -15.229  -0.663  1.00  0.00     0.034 A 
ENDROOT
BRANCH   1  14
HETATM   14  C   UNL     1      40.220 -12.254   5.217  1.00  0.00     0.257 C 
HETATM   15  N   UNL     1      41.239 -11.857   6.071  1.00  0.00    -0.356 N 
HETATM   16  H   UNL     1      42.062 -12.447   6.076  1.00  0.00     0.162 HD
HETATM   17  O   UNL     1      39.091 -11.777   5.248  1.00  0.00    -0.267 OA
BRANCH  15  18
HETATM   18  C   UNL     1      40.846 -11.251   7.329  1.00  0.00     0.127 C 
BRANCH  18  19
HETATM   19  C   UNL     1      41.760 -10.111   7.780  1.00  0.00     0.058 C 
BRANCH  19  20
HETATM   20  C   UNL     1      42.520 -10.497   9.029  1.00  0.00    -0.057 A 
HETATM   21  C   UNL     1      42.172  -9.953  10.274  1.00  0.00     0.007 A 
HETATM   22  C   UNL     1      42.916 -10.263  11.414  1.00  0.00     0.001 A 
HETATM   23  C   UNL     1      44.015 -11.115  11.324  1.00  0.00     0.000 A 
HETATM   24  C   UNL     1      44.366 -11.666  10.092  1.00  0.00     0.001 A 
HETATM   25  C   UNL     1      43.621 -11.362   8.952  1.00  0.00     0.007 A 
ENDBRANCH  19  20
ENDBRANCH  18  19
ENDBRANCH  15  18
ENDBRANCH   1  14
BRANCH   2  26
HETATM   26  N   UNL     1      40.344 -15.079   6.332  1.00  0.00    -0.286 NA
HETATM   27  H   UNL     1      39.896 -14.368   6.922  1.00  0.00     0.125 HD
HETATM   28  H   UNL     1      39.874 -15.977   6.460  1.00  0.00     0.125 HD
ENDBRANCH   2  26
BRANCH   3  29
HETATM   29  N   UNL     1      41.700 -16.824   4.297  1.00  0.00    -0.176 NA
HETATM   30  C   UNL     1      42.992 -16.833   4.309  1.00  0.00     0.153 C 
BRANCH  30  31
HETATM   31  C   UNL     1      43.715 -18.062   4.544  1.00  0.00     0.011 A 
HETATM   32  C   UNL     1      43.776 -19.189   3.664  1.00  0.00     0.004 A 
HETATM   33  C   UNL     1      44.540 -20.169   4.295  1.00  0.00     0.043 A 
HETATM   34  C   UNL     1      43.262 -19.458   2.377  1.00  0.00     0.014 A 
HETATM   35  C   UNL     1      44.804 -21.413   3.712  1.00  0.00     0.030 A 
HETATM   36  N   UNL     1      44.934 -19.654   5.511  1.00  0.00    -0.364 N 
HETATM   37  C   UNL     1      44.286 -21.654   2.435  1.00  0.00     0.002 A 
HETATM   38  C   UNL     1      43.528 -20.691   1.774  1.00  0.00     0.001 A 
HETATM   39  H   UNL     1      45.496 -20.150   6.188  1.00  0.00     0.165 HD
HETATM   40  C   UNL     1      44.461 -18.379   5.661  1.00  0.00     0.102 A 
ENDBRANCH  30  31
ENDBRANCH   3  29
TORSDOF 7
ENDMDL
MODEL 6
REMARK VINA RESULT:     -10.0      3.059      9.901
REMARK  7 active torsions:
REMARK  status: ('A' for Active; 'I' for Inactive)
REMARK    1  A    between atoms: C_4  and  C_5 
REMARK    2  A    between atoms: C_5  and  C_6 
REMARK    3  A    between atoms: C_6  and  N_7 
REMARK       I    between atoms: N_7  and  C_8 
REMARK    4  A    between atoms: C_8  and  C_9 
REMARK    5  A    between atoms: C_10  and  N_11 
REMARK    6  A    between atoms: N_12  and  N_13 
REMARK    7  A    between atoms: C_14  and  C_15 
ROOT
HETATM    1  C   UNL     1      40.938 -15.205   4.248  1.00  0.00     0.104 C 
HETATM    2  C   UNL     1      41.312 -14.703   5.485  1.00  0.00     0.123 C 
HETATM    3  N   UNL     1      42.569 -15.225   5.799  1.00  0.00    -0.202 N 
HETATM    4  C   UNL     1      42.779 -16.315   4.973  1.00  0.00     0.183 A 
HETATM    5  C   UNL     1      41.823 -16.269   3.961  1.00  0.00     0.124 A 
HETATM    6  N   UNL     1      41.817 -17.174   2.949  1.00  0.00    -0.242 NA
HETATM    7  C   UNL     1      42.741 -18.147   3.066  1.00  0.00     0.086 A 
HETATM    8  C   UNL     1      43.694 -18.182   4.119  1.00  0.00     0.088 A 
HETATM    9  N   UNL     1      43.760 -17.241   5.072  1.00  0.00    -0.225 NA
HETATM   10  C   UNL     1      42.749 -19.173   2.128  1.00  0.00     0.034 A 
HETATM   11  C   UNL     1      43.652 -20.235   2.209  1.00  0.00     0.002 A 
HETATM   12  C   UNL     1      44.577 -20.270   3.243  1.00  0.00     0.002 A 
HETATM   13  C   UNL     1      44.593 -19.240   4.183  1.00  0.00     0.034 A 
ENDROOT
BRANCH   1  14
HETATM   14  C   UNL     1      39.790 -14.715   3.518  1.00  0.00     0.257 C 
HETATM   15  N   UNL     1      39.523 -15.426   2.358  1.00  0.00    -0.356 N 
HETATM   16  H   UNL     1      40.157 -16.188   2.153  1.00  0.00     0.162 HD
HETATM   17  O   UNL     1      39.253 -13.648   3.795  1.00  0.00    -0.267 OA
BRANCH  15  18
HETATM   18  C   UNL     1      38.997 -14.676   1.232  1.00  0.00     0.127 C 
BRANCH  18  19
HETATM   19  C   UNL     1      40.076 -14.074   0.331  1.00  0.00     0.058 C 
BRANCH  19  20
HETATM   20  C   UNL     1      39.887 -14.520  -1.101  1.00  0.00    -0.057 A 
HETATM   21  C   UNL     1      40.853 -15.314  -1.736  1.00  0.00     0.007 A 
HETATM   22  C   UNL     1      40.706 -15.671  -3.078  1.00  0.00     0.001 A 
HETATM   23  C   UNL     1      39.595 -15.238  -3.799  1.00  0.00     0.000 A 
HETATM   24  C   UNL     1      38.625 -14.454  -3.177  1.00  0.00     0.001 A 
HETATM   25  C   UNL     1      38.768 -14.100  -1.834  1.00  0.00     0.007 A 
ENDBRANCH  19  20
ENDBRANCH  18  19
ENDBRANCH  15  18
ENDBRANCH   1  14
BRANCH   2  26
HETATM   26  N   UNL     1      40.647 -13.828   6.296  1.00  0.00    -0.286 NA
HETATM   27  H   UNL     1      40.364 -14.190   7.214  1.00  0.00     0.125 HD
HETATM   28  H   UNL     1      41.045 -12.892   6.404  1.00  0.00     0.125 HD
ENDBRANCH   2  26
BRANCH   3  29
HETATM   29  N   UNL     1      43.453 -14.795   6.759  1.00  0.00    -0.176 NA
HETATM   30  C   UNL     1      43.862 -13.581   6.589  1.00  0.00     0.153 C 
BRANCH  30  31
HETATM   31  C   UNL     1      44.768 -12.972   7.536  1.00  0.00     0.011 A 
HETATM   32  C   UNL     1      44.404 -12.128   8.633  1.00  0.00     0.004 A 
HETATM   33  C   UNL     1      45.583 -11.726   9.258  1.00  0.00     0.043 A 
HETATM   34  C   UNL     1      43.173 -11.681   9.161  1.00  0.00     0.014 A 
HETATM   35  C   UNL     1      45.595 -10.886  10.377  1.00  0.00     0.030 A 
HETATM   36  N   UNL     1      46.624 -12.309   8.570  1.00  0.00    -0.364 N 
HETATM   37  C   UNL     1      44.363 -10.460  10.883  1.00  0.00     0.002 A 
HETATM   38  C   UNL     1      43.168 -10.853  10.288  1.00  0.00     0.001 A 
HETATM   39  H   UNL     1      47.601 -12.187   8.798  1.00  0.00     0.165 HD
HETATM   40  C   UNL     1      46.144 -13.078   7.546  1.00  0.00     0.102 A 
ENDBRANCH  30  31
ENDBRANCH   3  29
TORSDOF 7
ENDMDL
MODEL 7
REMARK VINA RESULT:      -9.8      3.874      8.778
REMARK  7 active torsions:
REMARK  status: ('A' for Active; 'I' for Inactive)
REMARK    1  A    between atoms: C_4  and  C_5 
REMARK    2  A    between atoms: C_5  and  C_6 
REMARK    3  A    between atoms: C_6  and  N_7 
REMARK       I    between atoms: N_7  and  C_8 
REMARK    4  A    between atoms: C_8  and  C_9 
REMARK    5  A    between atoms: C_10  and  N_11 
REMARK    6  A    between atoms: N_12  and  N_13 
REMARK    7  A    between atoms: C_14  and  C_15 
ROOT
HETATM    1  C   UNL     1      40.998 -15.785   3.780  1.00  0.00     0.104 C 
HETATM    2  C   UNL     1      40.597 -15.933   2.462  1.00  0.00     0.123 C 
HETATM    3  N   UNL     1      40.361 -14.660   1.938  1.00  0.00    -0.202 N 
HETATM    4  C   UNL     1      40.236 -13.793   3.008  1.00  0.00     0.183 A 
HETATM    5  C   UNL     1      40.704 -14.451   4.143  1.00  0.00     0.124 A 
HETATM    6  N   UNL     1      40.774 -13.827   5.347  1.00  0.00    -0.242 NA
HETATM    7  C   UNL     1      40.275 -12.575   5.356  1.00  0.00     0.086 A 
HETATM    8  C   UNL     1      39.787 -11.931   4.187  1.00  0.00     0.088 A 
HETATM    9  N   UNL     1      39.797 -12.513   2.979  1.00  0.00    -0.225 NA
HETATM   10  C   UNL     1      40.217 -11.891   6.565  1.00  0.00     0.034 A 
HETATM   11  C   UNL     1      39.677 -10.606   6.657  1.00  0.00     0.002 A 
HETATM   12  C   UNL     1      39.194  -9.984   5.514  1.00  0.00     0.002 A 
HETATM   13  C   UNL     1      39.260 -10.650   4.291  1.00  0.00     0.034 A 
ENDROOT
BRANCH   1  14
HETATM   14  C   UNL     1      41.525 -16.877   4.567  1.00  0.00     0.257 C 
HETATM   15  N   UNL     1      42.845 -16.700   4.955  1.00  0.00    -0.356 N 
HETATM   16  H   UNL     1      43.284 -15.844   4.639  1.00  0.00     0.162 HD
HETATM   17  O   UNL     1      40.924 -17.939   4.686  1.00  0.00    -0.267 OA
BRANCH  15  18
HETATM   18  C   UNL     1      43.675 -17.887   5.028  1.00  0.00     0.127 C 
BRANCH  18  19
HETATM   19  C   UNL     1      44.093 -18.436   3.663  1.00  0.00     0.058 C 
BRANCH  19  20
HETATM   20  C   UNL     1      44.349 -19.925   3.741  1.00  0.00    -0.057 A 
HETATM   21  C   UNL     1      44.235 -20.730   2.599  1.00  0.00     0.007 A 
HETATM   22  C   UNL     1      44.410 -22.113   2.688  1.00  0.00     0.001 A 
HETATM   23  C   UNL     1      44.699 -22.705   3.916  1.00  0.00     0.000 A 
HETATM   24  C   UNL     1      44.821 -21.913   5.056  1.00  0.00     0.001 A 
HETATM   25  C   UNL     1      44.651 -20.530   4.969  1.00  0.00     0.007 A 
ENDBRANCH  19  20
ENDBRANCH  18  19
ENDBRANCH  15  18
ENDBRANCH   1  14
BRANCH   2  26
HETATM   26  N   UNL     1      40.465 -17.076   1.725  1.00  0.00    -0.286 NA
HETATM   27  H   UNL     1      40.048 -16.966   0.794  1.00  0.00     0.125 HD
HETATM   28  H   UNL     1      41.278 -17.693   1.668  1.00  0.00     0.125 HD
ENDBRANCH   2  26
BRANCH   3  29
HETATM   29  N   UNL     1      40.235 -14.292   0.620  1.00  0.00    -0.176 NA
HETATM   30  C   UNL     1      41.362 -14.167   0.000  1.00  0.00     0.153 C 
BRANCH  30  31
HETATM   31  C   UNL     1      41.394 -13.820  -1.402  1.00  0.00     0.011 A 
HETATM   32  C   UNL     1      41.900 -12.604  -1.961  1.00  0.00     0.004 A 
HETATM   33  C   UNL     1      41.698 -12.663  -3.339  1.00  0.00     0.043 A 
HETATM   34  C   UNL     1      42.529 -11.462  -1.420  1.00  0.00     0.014 A 
HETATM   35  C   UNL     1      42.078 -11.630  -4.203  1.00  0.00     0.030 A 
HETATM   36  N   UNL     1      41.095 -13.873  -3.607  1.00  0.00    -0.364 N 
HETATM   37  C   UNL     1      42.702 -10.511  -3.642  1.00  0.00     0.002 A 
HETATM   38  C   UNL     1      42.929 -10.427  -2.271  1.00  0.00     0.001 A 
HETATM   39  H   UNL     1      40.824 -14.186  -4.528  1.00  0.00     0.165 HD
HETATM   40  C   UNL     1      40.928 -14.585  -2.451  1.00  0.00     0.102 A 
ENDBRANCH  30  31
ENDBRANCH   3  29
TORSDOF 7
ENDMDL
MODEL 8
REMARK VINA RESULT:      -9.7      2.625      9.851
REMARK  7 active torsions:
REMARK  status: ('A' for Active; 'I' for Inactive)
REMARK    1  A    between atoms: C_4  and  C_5 
REMARK    2  A    between atoms: C_5  and  C_6 
REMARK    3  A    between atoms: C_6  and  N_7 
REMARK       I    between atoms: N_7  and  C_8 
REMARK    4  A    between atoms: C_8  and  C_9 
REMARK    5  A    between atoms: C_10  and  N_11 
REMARK    6  A    between atoms: N_12  and  N_13 
REMARK    7  A    between atoms: C_14  and  C_15 
ROOT
HETATM    1  C   UNL     1      41.851 -14.452   5.285  1.00  0.00     0.104 C 
HETATM    2  C   UNL     1      42.150 -13.310   6.011  1.00  0.00     0.123 C 
HETATM    3  N   UNL     1      41.138 -12.376   5.781  1.00  0.00    -0.202 N 
HETATM    4  C   UNL     1      40.454 -12.782   4.649  1.00  0.00     0.183 A 
HETATM    5  C   UNL     1      40.828 -14.096   4.377  1.00  0.00     0.124 A 
HETATM    6  N   UNL     1      40.267 -14.796   3.358  1.00  0.00    -0.242 NA
HETATM    7  C   UNL     1      39.408 -14.087   2.601  1.00  0.00     0.086 A 
HETATM    8  C   UNL     1      39.057 -12.740   2.888  1.00  0.00     0.088 A 
HETATM    9  N   UNL     1      39.541 -12.073   3.945  1.00  0.00    -0.225 NA
HETATM   10  C   UNL     1      38.856 -14.692   1.477  1.00  0.00     0.034 A 
HETATM   11  C   UNL     1      37.989 -14.005   0.624  1.00  0.00     0.002 A 
HETATM   12  C   UNL     1      37.654 -12.689   0.904  1.00  0.00     0.002 A 
HETATM   13  C   UNL     1      38.186 -12.072   2.036  1.00  0.00     0.034 A 
ENDROOT
BRANCH   1  14
HETATM   14  C   UNL     1      42.570 -15.695   5.446  1.00  0.00     0.257 C 
HETATM   15  N   UNL     1      43.004 -16.249   4.251  1.00  0.00    -0.356 N 
HETATM   16  H   UNL     1      42.763 -15.732   3.415  1.00  0.00     0.162 HD
HETATM   17  O   UNL     1      42.595 -16.295   6.516  1.00  0.00    -0.267 OA
BRANCH  15  18
HETATM   18  C   UNL     1      43.012 -17.697   4.160  1.00  0.00     0.127 C 
BRANCH  18  19
HETATM   19  C   UNL     1      43.425 -18.229   2.787  1.00  0.00     0.058 C 
BRANCH  19  20
HETATM   20  C   UNL     1      43.804 -19.691   2.872  1.00  0.00    -0.057 A 
HETATM   21  C   UNL     1      44.434 -20.200   4.017  1.00  0.00     0.007 A 
HETATM   22  C   UNL     1      44.839 -21.536   4.066  1.00  0.00     0.001 A 
HETATM   23  C   UNL     1      44.623 -22.374   2.974  1.00  0.00     0.000 A 
HETATM   24  C   UNL     1      43.992 -21.879   1.834  1.00  0.00     0.001 A 
HETATM   25  C   UNL     1      43.582 -20.546   1.784  1.00  0.00     0.007 A 
ENDBRANCH  19  20
ENDBRANCH  18  19
ENDBRANCH  15  18
ENDBRANCH   1  14
BRANCH   2  26
HETATM   26  N   UNL     1      43.204 -13.073   6.847  1.00  0.00    -0.286 NA
HETATM   27  H   UNL     1      43.276 -12.120   7.222  1.00  0.00     0.125 HD
HETATM   28  H   UNL     1      43.371 -13.751   7.594  1.00  0.00     0.125 HD
ENDBRANCH   2  26
BRANCH   3  29
HETATM   29  N   UNL     1      40.852 -11.237   6.495  1.00  0.00    -0.176 NA
HETATM   30  C   UNL     1      39.901 -11.384   7.358  1.00  0.00     0.153 C 
BRANCH  30  31
HETATM   31  C   UNL     1      39.509 -10.286   8.212  1.00  0.00     0.011 A 
HETATM   32  C   UNL     1      39.624 -10.241   9.638  1.00  0.00     0.004 A 
HETATM   33  C   UNL     1      39.091  -9.024  10.060  1.00  0.00     0.043 A 
HETATM   34  C   UNL     1      40.150 -11.120  10.609  1.00  0.00     0.014 A 
HETATM   35  C   UNL     1      39.041  -8.648  11.407  1.00  0.00     0.030 A 
HETATM   36  N   UNL     1      38.672  -8.353   8.932  1.00  0.00    -0.364 N 
HETATM   37  C   UNL     1      39.572  -9.536  12.348  1.00  0.00     0.002 A 
HETATM   38  C   UNL     1      40.122 -10.753  11.957  1.00  0.00     0.001 A 
HETATM   39  H   UNL     1      38.236  -7.442   8.936  1.00  0.00     0.165 HD
HETATM   40  C   UNL     1      38.939  -9.095   7.813  1.00  0.00     0.102 A 
ENDBRANCH  30  31
ENDBRANCH   3  29
TORSDOF 7
ENDMDL
MODEL 9
REMARK VINA RESULT:      -9.5      4.982      7.177
REMARK  7 active torsions:
REMARK  status: ('A' for Active; 'I' for Inactive)
REMARK    1  A    between atoms: C_4  and  C_5 
REMARK    2  A    between atoms: C_5  and  C_6 
REMARK    3  A    between atoms: C_6  and  N_7 
REMARK       I    between atoms: N_7  and  C_8 
REMARK    4  A    between atoms: C_8  and  C_9 
REMARK    5  A    between atoms: C_10  and  N_11 
REMARK    6  A    between atoms: N_12  and  N_13 
REMARK    7  A    between atoms: C_14  and  C_15 
ROOT
HETATM    1  C   UNL     1      40.120 -13.654   2.920  1.00  0.00     0.104 C 
HETATM    2  C   UNL     1      40.252 -14.811   3.671  1.00  0.00     0.123 C 
HETATM    3  N   UNL     1      40.910 -15.761   2.886  1.00  0.00    -0.202 N 
HETATM    4  C   UNL     1      40.829 -15.335   1.572  1.00  0.00     0.183 A 
HETATM    5  C   UNL     1      40.418 -14.005   1.583  1.00  0.00     0.124 A 
HETATM    6  N   UNL     1      40.314 -13.285   0.436  1.00  0.00    -0.242 NA
HETATM    7  C   UNL     1      40.551 -13.990  -0.687  1.00  0.00     0.086 A 
HETATM    8  C   UNL     1      40.953 -15.353  -0.672  1.00  0.00     0.088 A 
HETATM    9  N   UNL     1      41.142 -16.042   0.462  1.00  0.00    -0.225 NA
HETATM   10  C   UNL     1      40.375 -13.362  -1.915  1.00  0.00     0.034 A 
HETATM   11  C   UNL     1      40.565 -14.041  -3.121  1.00  0.00     0.002 A 
HETATM   12  C   UNL     1      40.950 -15.373  -3.103  1.00  0.00     0.002 A 
HETATM   13  C   UNL     1      41.146 -16.013  -1.879  1.00  0.00     0.034 A 
ENDROOT
BRANCH   1  14
HETATM   14  C   UNL     1      39.673 -12.400   3.483  1.00  0.00     0.257 C 
HETATM   15  N   UNL     1      39.066 -11.559   2.562  1.00  0.00    -0.356 N 
HETATM   16  H   UNL     1      39.015 -11.910   1.614  1.00  0.00     0.162 HD
HETATM   17  O   UNL     1      40.000 -12.043   4.610  1.00  0.00    -0.267 OA
BRANCH  15  18
HETATM   18  C   UNL     1      39.274 -10.133   2.734  1.00  0.00     0.127 C 
BRANCH  18  19
HETATM   19  C   UNL     1      38.985  -9.309   1.480  1.00  0.00     0.058 C 
BRANCH  19  20
HETATM   20  C   UNL     1      40.054  -9.533   0.433  1.00  0.00    -0.057 A 
HETATM   21  C   UNL     1      39.724  -9.571  -0.929  1.00  0.00     0.007 A 
HETATM   22  C   UNL     1      40.703  -9.841  -1.887  1.00  0.00     0.001 A 
HETATM   23  C   UNL     1      42.019 -10.076  -1.495  1.00  0.00     0.000 A 
HETATM   24  C   UNL     1      42.360 -10.034  -0.145  1.00  0.00     0.001 A 
HETATM   25  C   UNL     1      41.384  -9.760   0.815  1.00  0.00     0.007 A 
ENDBRANCH  19  20
ENDBRANCH  18  19
ENDBRANCH  15  18
ENDBRANCH   1  14
BRANCH   2  26
HETATM   26  N   UNL     1      39.865 -15.050   4.959  1.00  0.00    -0.286 NA
HETATM   27  H   UNL     1      39.184 -14.391   5.355  1.00  0.00     0.125 HD
HETATM   28  H   UNL     1      39.598 -16.007   5.199  1.00  0.00     0.125 HD
ENDBRANCH   2  26
BRANCH   3  29
HETATM   29  N   UNL     1      41.512 -16.928   3.290  1.00  0.00    -0.176 NA
HETATM   30  C   UNL     1      42.771 -16.805   3.554  1.00  0.00     0.153 C 
BRANCH  30  31
HETATM   31  C   UNL     1      43.536 -17.937   4.026  1.00  0.00     0.011 A 
HETATM   32  C   UNL     1      43.689 -19.192   3.357  1.00  0.00     0.004 A 
HETATM   33  C   UNL     1      44.465 -20.009   4.178  1.00  0.00     0.043 A 
HETATM   34  C   UNL     1      43.249 -19.704   2.117  1.00  0.00     0.014 A 
HETATM   35  C   UNL     1      44.811 -21.319   3.829  1.00  0.00     0.030 A 
HETATM   36  N   UNL     1      44.776 -19.275   5.301  1.00  0.00    -0.364 N 
HETATM   37  C   UNL     1      44.366 -21.801   2.593  1.00  0.00     0.002 A 
HETATM   38  C   UNL     1      43.599 -21.006   1.746  1.00  0.00     0.001 A 
HETATM   39  H   UNL     1      45.327 -19.618   6.075  1.00  0.00     0.165 HD
HETATM   40  C   UNL     1      44.241 -18.019   5.209  1.00  0.00     0.102 A 
ENDBRANCH  30  31
ENDBRANCH   3  29
TORSDOF 7
ENDMDL
MODEL 10
REMARK VINA RESULT:      -9.5      2.166      9.544
REMARK  7 active torsions:
REMARK  status: ('A' for Active; 'I' for Inactive)
REMARK    1  A    between atoms: C_4  and  C_5 
REMARK    2  A    between atoms: C_5  and  C_6 
REMARK    3  A    between atoms: C_6  and  N_7 
REMARK       I    between atoms: N_7  and  C_8 
REMARK    4  A    between atoms: C_8  and  C_9 
REMARK    5  A    between atoms: C_10  and  N_11 
REMARK    6  A    between atoms: N_12  and  N_13 
REMARK    7  A    between atoms: C_14  and  C_15 
ROOT
HETATM    1  C   UNL     1      41.632 -14.216   4.597  1.00  0.00     0.104 C 
HETATM    2  C   UNL     1      42.033 -13.503   5.716  1.00  0.00     0.123 C 
HETATM    3  N   UNL     1      41.050 -12.552   5.995  1.00  0.00    -0.202 N 
HETATM    4  C   UNL     1      40.270 -12.421   4.860  1.00  0.00     0.183 A 
HETATM    5  C   UNL     1      40.564 -13.491   4.019  1.00  0.00     0.124 A 
HETATM    6  N   UNL     1      39.901 -13.677   2.849  1.00  0.00    -0.242 NA
HETATM    7  C   UNL     1      39.023 -12.701   2.545  1.00  0.00     0.086 A 
HETATM    8  C   UNL     1      38.754 -11.608   3.412  1.00  0.00     0.088 A 
HETATM    9  N   UNL     1      39.342 -11.468   4.609  1.00  0.00    -0.225 NA
HETATM   10  C   UNL     1      38.367 -12.755   1.320  1.00  0.00     0.034 A 
HETATM   11  C   UNL     1      37.473 -11.759   0.921  1.00  0.00     0.002 A 
HETATM   12  C   UNL     1      37.218 -10.690   1.768  1.00  0.00     0.002 A 
HETATM   13  C   UNL     1      37.857 -10.629   3.006  1.00  0.00     0.034 A 
ENDROOT
BRANCH   1  14
HETATM   14  C   UNL     1      42.304 -15.413   4.147  1.00  0.00     0.257 C 
HETATM   15  N   UNL     1      41.701 -16.015   3.053  1.00  0.00    -0.356 N 
HETATM   16  H   UNL     1      40.866 -15.559   2.706  1.00  0.00     0.162 HD
HETATM   17  O   UNL     1      43.188 -15.948   4.809  1.00  0.00    -0.267 OA
BRANCH  15  18
HETATM   18  C   UNL     1      41.743 -17.464   2.991  1.00  0.00     0.127 C 
BRANCH  18  19
HETATM   19  C   UNL     1      42.769 -18.013   1.999  1.00  0.00     0.058 C 
BRANCH  19  20
HETATM   20  C   UNL     1      43.429 -19.258   2.547  1.00  0.00    -0.057 A 
HETATM   21  C   UNL     1      44.076 -19.236   3.791  1.00  0.00     0.007 A 
HETATM   22  C   UNL     1      44.739 -20.370   4.264  1.00  0.00     0.001 A 
HETATM   23  C   UNL     1      44.765 -21.536   3.501  1.00  0.00     0.000 A 
HETATM   24  C   UNL     1      44.120 -21.571   2.265  1.00  0.00     0.001 A 
HETATM   25  C   UNL     1      43.453 -20.440   1.792  1.00  0.00     0.007 A 
ENDBRANCH  19  20
ENDBRANCH  18  19
ENDBRANCH  15  18
ENDBRANCH   1  14
BRANCH   2  26
HETATM   26  N   UNL     1      43.153 -13.662   6.481  1.00  0.00    -0.286 NA
HETATM   27  H   UNL     1      43.058 -14.279   7.296  1.00  0.00     0.125 HD
HETATM   28  H   UNL     1      44.029 -13.866   5.995  1.00  0.00     0.125 HD
ENDBRANCH   2  26
BRANCH   3  29
HETATM   29  N   UNL     1      40.867 -11.831   7.151  1.00  0.00    -0.176 NA
HETATM   30  C   UNL     1      41.752 -10.909   7.341  1.00  0.00     0.153 C 
BRANCH  30  31
HETATM   31  C   UNL     1      41.675 -10.042   8.494  1.00  0.00     0.011 A 
HETATM   32  C   UNL     1      42.445 -10.160   9.694  1.00  0.00     0.004 A 
HETATM   33  C   UNL     1      42.023  -9.153  10.560  1.00  0.00     0.043 A 
HETATM   34  C   UNL     1      43.476 -11.026  10.117  1.00  0.00     0.014 A 
HETATM   35  C   UNL     1      42.570  -8.976  11.836  1.00  0.00     0.030 A 
HETATM   36  N   UNL     1      41.037  -8.445   9.908  1.00  0.00    -0.364 N 
HETATM   37  C   UNL     1      43.593  -9.844  12.230  1.00  0.00     0.002 A 
HETATM   38  C   UNL     1      44.044 -10.854  11.383  1.00  0.00     0.001 A 
HETATM   39  H   UNL     1      40.542  -7.658  10.301  1.00  0.00     0.165 HD
HETATM   40  C   UNL     1      40.835  -8.959   8.656  1.00  0.00     0.102 A 
ENDBRANCH  30  31
ENDBRANCH   3  29
TORSDOF 7
ENDMDL
