MODEL 1
REMARK VINA RESULT:      -8.7      0.000      0.000
REMARK  3 active torsions:
REMARK  status: ('A' for Active; 'I' for Inactive)
REMARK    1  A    between atoms: O_2  and  C_3 
REMARK    2  A    between atoms: C_9  and  C_10 
REMARK       I    between atoms: C_10  and  N_11 
REMARK    3  A    between atoms: N_11  and  C_12 
ROOT
HETATM    1  C   UNL     1      44.443 -20.283   4.804  1.00  0.00     0.068 A 
HETATM    2  C   UNL     1      44.431 -19.972   3.442  1.00  0.00     0.044 A 
HETATM    3  C   UNL     1      43.783 -18.820   2.975  1.00  0.00    -0.043 A 
HETATM    4  C   UNL     1      43.156 -17.953   3.900  1.00  0.00    -0.001 A 
HETATM    5  C   UNL     1      42.495 -16.785   3.345  1.00  0.00     0.069 A 
HETATM    6  C   UNL     1      42.260 -16.594   2.002  1.00  0.00     0.007 A 
HETATM    7  C   UNL     1      41.577 -15.360   1.902  1.00  0.00     0.153 A 
HETATM    8  N   UNL     1      41.425 -14.796   3.124  1.00  0.00    -0.168 NA
HETATM    9  N   UNL     1      41.992 -15.685   3.970  1.00  0.00    -0.276 N 
HETATM   10  H   UNL     1      42.000 -15.472   4.961  1.00  0.00     0.189 HD
HETATM   11  C   UNL     1      42.664 -17.602   0.985  1.00  0.00     0.048 C 
HETATM   12  C   UNL     1      43.845 -18.459   1.495  1.00  0.00     0.044 C 
HETATM   13  C   UNL     1      43.165 -18.268   5.260  1.00  0.00     0.017 A 
HETATM   14  C   UNL     1      43.805 -19.431   5.709  1.00  0.00     0.037 A 
ENDROOT
BRANCH   7  15
HETATM   15  C   UNL     1      41.038 -14.729   0.681  1.00  0.00     0.277 C 
HETATM   16  N   UNL     1      42.036 -14.422  -0.227  1.00  0.00    -0.320 N 
HETATM   17  H   UNL     1      42.961 -14.460   0.197  1.00  0.00     0.169 HD
HETATM   18  O   UNL     1      39.851 -14.450   0.573  1.00  0.00    -0.266 OA
BRANCH  16  19
HETATM   19  C   UNL     1      41.869 -13.727  -1.442  1.00  0.00     0.057 A 
HETATM   20  C   UNL     1      41.208 -14.215  -2.587  1.00  0.00     0.063 A 
HETATM   21 CL   UNL     1      40.757 -15.872  -2.798  1.00  0.00    -0.082 Cl
HETATM   22  C   UNL     1      41.037 -13.390  -3.705  1.00  0.00     0.068 A 
HETATM   23  C   UNL     1      41.557 -12.104  -3.699  1.00  0.00     0.118 A 
HETATM   24  F   UNL     1      41.393 -11.321  -4.774  1.00  0.00    -0.206 F 
HETATM   25  C   UNL     1      42.270 -11.628  -2.610  1.00  0.00     0.044 A 
HETATM   26  C   UNL     1      42.437 -12.442  -1.488  1.00  0.00     0.034 A 
ENDBRANCH  16  19
ENDBRANCH   7  15
BRANCH   1  27
HETATM   27  O   UNL     1      45.105 -21.437   5.115  1.00  0.00    -0.356 OA
HETATM   28  C   UNL     1      44.712 -22.615   4.423  1.00  0.00     0.210 C 
ENDBRANCH   1  27
TORSDOF 3
ENDMDL
MODEL 2
REMARK VINA RESULT:      -8.6      1.824      2.085
REMARK  3 active torsions:
REMARK  status: ('A' for Active; 'I' for Inactive)
REMARK    1  A    between atoms: O_2  and  C_3 
REMARK    2  A    between atoms: C_9  and  C_10 
REMARK       I    between atoms: C_10  and  N_11 
REMARK    3  A    between atoms: N_11  and  C_12 
ROOT
HETATM    1  C   UNL     1      44.660 -20.508   4.830  1.00  0.00     0.068 A 
HETATM    2  C   UNL     1      44.498 -20.124   3.496  1.00  0.00     0.044 A 
HETATM    3  C   UNL     1      44.041 -18.840   3.171  1.00  0.00    -0.043 A 
HETATM    4  C   UNL     1      43.766 -17.917   4.207  1.00  0.00    -0.001 A 
HETATM    5  C   UNL     1      43.286 -16.609   3.796  1.00  0.00     0.069 A 
HETATM    6  C   UNL     1      42.887 -16.298   2.516  1.00  0.00     0.007 A 
HETATM    7  C   UNL     1      42.471 -14.946   2.559  1.00  0.00     0.153 A 
HETATM    8  N   UNL     1      42.637 -14.434   3.802  1.00  0.00    -0.168 NA
HETATM    9  N   UNL     1      43.132 -15.467   4.521  1.00  0.00    -0.276 N 
HETATM   10  H   UNL     1      43.342 -15.317   5.501  1.00  0.00     0.189 HD
HETATM   11  C   UNL     1      42.902 -17.307   1.424  1.00  0.00     0.048 C 
HETATM   12  C   UNL     1      43.942 -18.415   1.709  1.00  0.00     0.044 C 
HETATM   13  C   UNL     1      43.923 -18.304   5.539  1.00  0.00     0.017 A 
HETATM   14  C   UNL     1      44.367 -19.597   5.848  1.00  0.00     0.037 A 
ENDROOT
BRANCH   7  15
HETATM   15  C   UNL     1      41.891 -14.151   1.461  1.00  0.00     0.277 C 
HETATM   16  N   UNL     1      40.854 -14.817   0.831  1.00  0.00    -0.320 N 
HETATM   17  H   UNL     1      40.836 -15.805   1.069  1.00  0.00     0.169 HD
HETATM   18  O   UNL     1      42.367 -13.073   1.127  1.00  0.00    -0.266 OA
BRANCH  16  19
HETATM   19  C   UNL     1      40.159 -14.377  -0.315  1.00  0.00     0.057 A 
HETATM   20  C   UNL     1      38.827 -13.914  -0.344  1.00  0.00     0.063 A 
HETATM   21 CL   UNL     1      37.721 -14.099   0.974  1.00  0.00    -0.082 Cl
HETATM   22  C   UNL     1      38.279 -13.426  -1.535  1.00  0.00     0.068 A 
HETATM   23  C   UNL     1      39.035 -13.437  -2.698  1.00  0.00     0.118 A 
HETATM   24  F   UNL     1      38.503 -12.972  -3.836  1.00  0.00    -0.206 F 
HETATM   25  C   UNL     1      40.323 -13.951  -2.707  1.00  0.00     0.044 A 
HETATM   26  C   UNL     1      40.880 -14.432  -1.520  1.00  0.00     0.034 A 
ENDBRANCH  16  19
ENDBRANCH   7  15
BRANCH   1  27
HETATM   27  O   UNL     1      45.105 -21.789   5.000  1.00  0.00    -0.356 OA
HETATM   28  C   UNL     1      44.668 -22.756   4.054  1.00  0.00     0.210 C 
ENDBRANCH   1  27
TORSDOF 3
ENDMDL
MODEL 3
REMARK VINA RESULT:      -8.5      4.956      8.327
REMARK  3 active torsions:
REMARK  status: ('A' for Active; 'I' for Inactive)
REMARK    1  A    between atoms: O_2  and  C_3 
REMARK    2  A    between atoms: C_9  and  C_10 
REMARK       I    between atoms: C_10  and  N_11 
REMARK    3  A    between atoms: N_11  and  C_12 
ROOT
HETATM    1  C   UNL     1      39.604 -11.440   5.861  1.00  0.00     0.068 A 
HETATM    2  C   UNL     1      40.715 -12.226   6.176  1.00  0.00     0.044 A 
HETATM    3  C   UNL     1      41.242 -13.129   5.243  1.00  0.00    -0.043 A 
HETATM    4  C   UNL     1      40.655 -13.224   3.960  1.00  0.00    -0.001 A 
HETATM    5  C   UNL     1      41.246 -14.188   3.049  1.00  0.00     0.069 A 
HETATM    6  C   UNL     1      42.170 -15.138   3.420  1.00  0.00     0.007 A 
HETATM    7  C   UNL     1      42.456 -15.877   2.248  1.00  0.00     0.153 A 
HETATM    8  N   UNL     1      41.765 -15.386   1.192  1.00  0.00    -0.168 NA
HETATM    9  N   UNL     1      41.046 -14.366   1.714  1.00  0.00    -0.276 N 
HETATM   10  H   UNL     1      40.442 -13.835   1.097  1.00  0.00     0.189 HD
HETATM   11  C   UNL     1      42.641 -15.266   4.825  1.00  0.00     0.048 C 
HETATM   12  C   UNL     1      42.499 -13.924   5.580  1.00  0.00     0.044 C 
HETATM   13  C   UNL     1      39.542 -12.441   3.648  1.00  0.00     0.017 A 
HETATM   14  C   UNL     1      39.018 -11.553   4.597  1.00  0.00     0.037 A 
ENDROOT
BRANCH   7  15
HETATM   15  C   UNL     1      43.338 -17.053   2.123  1.00  0.00     0.277 C 
HETATM   16  N   UNL     1      42.830 -18.155   2.789  1.00  0.00    -0.320 N 
HETATM   17  H   UNL     1      42.084 -17.900   3.432  1.00  0.00     0.169 HD
HETATM   18  O   UNL     1      44.423 -16.985   1.560  1.00  0.00    -0.266 OA
BRANCH  16  19
HETATM   19  C   UNL     1      43.474 -19.400   2.947  1.00  0.00     0.057 A 
HETATM   20  C   UNL     1      44.269 -19.783   4.046  1.00  0.00     0.063 A 
HETATM   21 CL   UNL     1      44.841 -18.675   5.246  1.00  0.00    -0.082 Cl
HETATM   22  C   UNL     1      44.785 -21.082   4.121  1.00  0.00     0.068 A 
HETATM   23  C   UNL     1      44.547 -21.979   3.090  1.00  0.00     0.118 A 
HETATM   24  F   UNL     1      45.047 -23.220   3.165  1.00  0.00    -0.206 F 
HETATM   25  C   UNL     1      43.825 -21.601   1.967  1.00  0.00     0.044 A 
HETATM   26  C   UNL     1      43.300 -20.309   1.890  1.00  0.00     0.034 A 
ENDBRANCH  16  19
ENDBRANCH   7  15
BRANCH   1  27
HETATM   27  O   UNL     1      39.194 -10.610   6.866  1.00  0.00    -0.356 OA
HETATM   28  C   UNL     1      39.376 -11.070   8.199  1.00  0.00     0.210 C 
ENDBRANCH   1  27
TORSDOF 3
ENDMDL
MODEL 4
REMARK VINA RESULT:      -8.4      4.002      8.634
REMARK  3 active torsions:
REMARK  status: ('A' for Active; 'I' for Inactive)
REMARK    1  A    between atoms: O_2  and  C_3 
REMARK    2  A    between atoms: C_9  and  C_10 
REMARK       I    between atoms: C_10  and  N_11 
REMARK    3  A    between atoms: N_11  and  C_12 
ROOT
HETATM    1  C   UNL     1      41.397 -12.133  -2.181  1.00  0.00     0.068 A 
HETATM    2  C   UNL     1      41.150 -13.505  -2.084  1.00  0.00     0.044 A 
HETATM    3  C   UNL     1      41.370 -14.190  -0.882  1.00  0.00    -0.043 A 
HETATM    4  C   UNL     1      41.824 -13.476   0.251  1.00  0.00    -0.001 A 
HETATM    5  C   UNL     1      42.042 -14.252   1.459  1.00  0.00     0.069 A 
HETATM    6  C   UNL     1      42.044 -15.628   1.505  1.00  0.00     0.007 A 
HETATM    7  C   UNL     1      42.319 -15.969   2.850  1.00  0.00     0.153 A 
HETATM    8  N   UNL     1      42.447 -14.855   3.610  1.00  0.00    -0.168 NA
HETATM    9  N   UNL     1      42.273 -13.838   2.735  1.00  0.00    -0.276 N 
HETATM   10  H   UNL     1      42.324 -12.887   3.083  1.00  0.00     0.189 HD
HETATM   11  C   UNL     1      41.832 -16.453   0.285  1.00  0.00     0.048 C 
HETATM   12  C   UNL     1      41.025 -15.672  -0.777  1.00  0.00     0.044 C 
HETATM   13  C   UNL     1      42.075 -12.106   0.152  1.00  0.00     0.017 A 
HETATM   14  C   UNL     1      41.863 -11.439  -1.061  1.00  0.00     0.037 A 
ENDROOT
BRANCH   7  15
HETATM   15  C   UNL     1      42.495 -17.320   3.415  1.00  0.00     0.277 C 
HETATM   16  N   UNL     1      43.606 -17.959   2.893  1.00  0.00    -0.320 N 
HETATM   17  H   UNL     1      43.954 -17.495   2.058  1.00  0.00     0.169 HD
HETATM   18  O   UNL     1      41.675 -17.807   4.184  1.00  0.00    -0.266 OA
BRANCH  16  19
HETATM   19  C   UNL     1      43.995 -19.291   3.148  1.00  0.00     0.057 A 
HETATM   20  C   UNL     1      44.554 -19.771   4.349  1.00  0.00     0.063 A 
HETATM   21 CL   UNL     1      45.142 -18.740   5.609  1.00  0.00    -0.082 Cl
HETATM   22  C   UNL     1      44.821 -21.136   4.504  1.00  0.00     0.068 A 
HETATM   23  C   UNL     1      44.572 -22.010   3.456  1.00  0.00     0.118 A 
HETATM   24  F   UNL     1      44.833 -23.315   3.609  1.00  0.00    -0.206 F 
HETATM   25  C   UNL     1      44.087 -21.549   2.242  1.00  0.00     0.044 A 
HETATM   26  C   UNL     1      43.811 -20.189   2.083  1.00  0.00     0.034 A 
ENDBRANCH  16  19
ENDBRANCH   7  15
BRANCH   1  27
HETATM   27  O   UNL     1      41.145 -11.597  -3.413  1.00  0.00    -0.356 OA
HETATM   28  C   UNL     1      42.256 -11.425  -4.283  1.00  0.00     0.210 C 
ENDBRANCH   1  27
TORSDOF 3
ENDMDL
MODEL 5
REMARK VINA RESULT:      -8.3      4.661      8.601
REMARK  3 active torsions:
REMARK  status: ('A' for Active; 'I' for Inactive)
REMARK    1  A    between atoms: O_2  and  C_3 
REMARK    2  A    between atoms: C_9  and  C_10 
REMARK       I    between atoms: C_10  and  N_11 
REMARK    3  A    between atoms: N_11  and  C_12 
ROOT
HETATM    1  C   UNL     1      38.310 -11.200   1.355  1.00  0.00     0.068 A 
HETATM    2  C   UNL     1      38.243 -12.571   1.096  1.00  0.00     0.044 A 
HETATM    3  C   UNL     1      38.920 -13.488   1.910  1.00  0.00    -0.043 A 
HETATM    4  C   UNL     1      39.658 -13.017   3.021  1.00  0.00    -0.001 A 
HETATM    5  C   UNL     1      40.343 -14.023   3.815  1.00  0.00     0.069 A 
HETATM    6  C   UNL     1      40.493 -15.338   3.436  1.00  0.00     0.007 A 
HETATM    7  C   UNL     1      41.236 -15.955   4.469  1.00  0.00     0.153 A 
HETATM    8  N   UNL     1      41.505 -15.071   5.460  1.00  0.00    -0.168 NA
HETATM    9  N   UNL     1      40.949 -13.915   5.028  1.00  0.00    -0.276 N 
HETATM   10  H   UNL     1      41.023 -13.094   5.619  1.00  0.00     0.189 HD
HETATM   11  C   UNL     1      39.963 -15.845   2.142  1.00  0.00     0.048 C 
HETATM   12  C   UNL     1      38.774 -14.984   1.656  1.00  0.00     0.044 C 
HETATM   13  C   UNL     1      39.728 -11.647   3.276  1.00  0.00     0.017 A 
HETATM   14  C   UNL     1      39.057 -10.741   2.443  1.00  0.00     0.037 A 
ENDROOT
BRANCH   7  15
HETATM   15  C   UNL     1      41.721 -17.347   4.516  1.00  0.00     0.277 C 
HETATM   16  N   UNL     1      42.788 -17.554   3.659  1.00  0.00    -0.320 N 
HETATM   17  H   UNL     1      42.890 -16.795   2.989  1.00  0.00     0.169 HD
HETATM   18  O   UNL     1      41.154 -18.203   5.184  1.00  0.00    -0.266 OA
BRANCH  16  19
HETATM   19  C   UNL     1      43.414 -18.789   3.395  1.00  0.00     0.057 A 
HETATM   20  C   UNL     1      44.343 -19.439   4.232  1.00  0.00     0.063 A 
HETATM   21 CL   UNL     1      45.104 -18.678   5.588  1.00  0.00    -0.082 Cl
HETATM   22  C   UNL     1      44.830 -20.706   3.892  1.00  0.00     0.068 A 
HETATM   23  C   UNL     1      44.429 -21.303   2.707  1.00  0.00     0.118 A 
HETATM   24  F   UNL     1      44.902 -22.515   2.384  1.00  0.00    -0.206 F 
HETATM   25  C   UNL     1      43.569 -20.652   1.834  1.00  0.00     0.044 A 
HETATM   26  C   UNL     1      43.073 -19.391   2.172  1.00  0.00     0.034 A 
ENDBRANCH  16  19
ENDBRANCH   7  15
BRANCH   1  27
HETATM   27  O   UNL     1      37.608 -10.422   0.476  1.00  0.00    -0.356 OA
HETATM   28  C   UNL     1      36.932 -11.091  -0.581  1.00  0.00     0.210 C 
ENDBRANCH   1  27
TORSDOF 3
ENDMDL
MODEL 6
REMARK VINA RESULT:      -8.2      4.446      8.854
REMARK  3 active torsions:
REMARK  status: ('A' for Active; 'I' for Inactive)
REMARK    1  A    between atoms: O_2  and  C_3 
REMARK    2  A    between atoms: C_9  and  C_10 
REMARK       I    between atoms: C_10  and  N_11 
REMARK    3  A    between atoms: N_11  and  C_12 
ROOT
HETATM    1  C   UNL     1      37.494 -11.854   1.352  1.00  0.00     0.068 A 
HETATM    2  C   UNL     1      38.602 -12.058   2.179  1.00  0.00     0.044 A 
HETATM    3  C   UNL     1      39.524 -13.077   1.904  1.00  0.00    -0.043 A 
HETATM    4  C   UNL     1      39.341 -13.889   0.762  1.00  0.00    -0.001 A 
HETATM    5  C   UNL     1      40.329 -14.932   0.545  1.00  0.00     0.069 A 
HETATM    6  C   UNL     1      41.275 -15.305   1.472  1.00  0.00     0.007 A 
HETATM    7  C   UNL     1      42.005 -16.360   0.875  1.00  0.00     0.153 A 
HETATM    8  N   UNL     1      41.553 -16.606  -0.378  1.00  0.00    -0.168 NA
HETATM    9  N   UNL     1      40.541 -15.724  -0.541  1.00  0.00    -0.276 N 
HETATM   10  H   UNL     1      40.042 -15.720  -1.424  1.00  0.00     0.189 HD
HETATM   11  C   UNL     1      41.356 -14.663   2.812  1.00  0.00     0.048 C 
HETATM   12  C   UNL     1      40.765 -13.235   2.777  1.00  0.00     0.044 C 
HETATM   13  C   UNL     1      38.231 -13.688  -0.061  1.00  0.00     0.017 A 
HETATM   14  C   UNL     1      37.311 -12.674   0.235  1.00  0.00     0.037 A 
ENDROOT
BRANCH   7  15
HETATM   15  C   UNL     1      43.090 -17.155   1.481  1.00  0.00     0.277 C 
HETATM   16  N   UNL     1      42.614 -18.303   2.089  1.00  0.00    -0.320 N 
HETATM   17  H   UNL     1      41.605 -18.275   2.220  1.00  0.00     0.169 HD
HETATM   18  O   UNL     1      44.248 -16.756   1.495  1.00  0.00    -0.266 OA
BRANCH  16  19
HETATM   19  C   UNL     1      43.375 -19.222   2.842  1.00  0.00     0.057 A 
HETATM   20  C   UNL     1      43.794 -19.048   4.176  1.00  0.00     0.063 A 
HETATM   21 CL   UNL     1      43.705 -17.539   5.017  1.00  0.00    -0.082 Cl
HETATM   22  C   UNL     1      44.476 -20.075   4.838  1.00  0.00     0.068 A 
HETATM   23  C   UNL     1      44.776 -21.250   4.164  1.00  0.00     0.118 A 
HETATM   24  F   UNL     1      45.432 -22.228   4.802  1.00  0.00    -0.206 F 
HETATM   25  C   UNL     1      44.434 -21.415   2.830  1.00  0.00     0.044 A 
HETATM   26  C   UNL     1      43.745 -20.397   2.166  1.00  0.00     0.034 A 
ENDBRANCH  16  19
ENDBRANCH   7  15
BRANCH   1  27
HETATM   27  O   UNL     1      36.676 -10.832   1.743  1.00  0.00    -0.356 OA
HETATM   28  C   UNL     1      35.519 -10.591   0.953  1.00  0.00     0.210 C 
ENDBRANCH   1  27
TORSDOF 3
ENDMDL
MODEL 7
REMARK VINA RESULT:      -8.0      2.869      3.481
REMARK  3 active torsions:
REMARK  status: ('A' for Active; 'I' for Inactive)
REMARK    1  A    between atoms: O_2  and  C_3 
REMARK    2  A    between atoms: C_9  and  C_10 
REMARK       I    between atoms: C_10  and  N_11 
REMARK    3  A    between atoms: N_11  and  C_12 
ROOT
HETATM    1  C   UNL     1      44.223 -19.925   4.472  1.00  0.00     0.068 A 
HETATM    2  C   UNL     1      43.226 -19.039   4.890  1.00  0.00     0.044 A 
HETATM    3  C   UNL     1      42.637 -18.146   3.985  1.00  0.00    -0.043 A 
HETATM    4  C   UNL     1      43.041 -18.161   2.630  1.00  0.00    -0.001 A 
HETATM    5  C   UNL     1      42.396 -17.201   1.752  1.00  0.00     0.069 A 
HETATM    6  C   UNL     1      41.603 -16.164   2.189  1.00  0.00     0.007 A 
HETATM    7  C   UNL     1      41.206 -15.464   1.025  1.00  0.00     0.153 A 
HETATM    8  N   UNL     1      41.704 -16.060  -0.085  1.00  0.00    -0.168 NA
HETATM    9  N   UNL     1      42.416 -17.106   0.395  1.00  0.00    -0.276 N 
HETATM   10  H   UNL     1      42.888 -17.712  -0.267  1.00  0.00     0.189 HD
HETATM   11  C   UNL     1      41.347 -15.930   3.636  1.00  0.00     0.048 C 
HETATM   12  C   UNL     1      41.499 -17.239   4.444  1.00  0.00     0.044 C 
HETATM   13  C   UNL     1      44.040 -19.043   2.216  1.00  0.00     0.017 A 
HETATM   14  C   UNL     1      44.630 -19.921   3.136  1.00  0.00     0.037 A 
ENDROOT
BRANCH   7  15
HETATM   15  C   UNL     1      40.401 -14.230   0.952  1.00  0.00     0.277 C 
HETATM   16  N   UNL     1      39.294 -14.382   0.136  1.00  0.00    -0.320 N 
HETATM   17  H   UNL     1      39.361 -15.214  -0.446  1.00  0.00     0.169 HD
HETATM   18  O   UNL     1      40.763 -13.194   1.495  1.00  0.00    -0.266 OA
BRANCH  16  19
HETATM   19  C   UNL     1      38.381 -13.369  -0.224  1.00  0.00     0.057 A 
HETATM   20  C   UNL     1      38.307 -12.733  -1.480  1.00  0.00     0.063 A 
HETATM   21 CL   UNL     1      39.529 -12.876  -2.697  1.00  0.00    -0.082 Cl
HETATM   22  C   UNL     1      37.298 -11.798  -1.736  1.00  0.00     0.068 A 
HETATM   23  C   UNL     1      36.395 -11.467  -0.736  1.00  0.00     0.118 A 
HETATM   24  F   UNL     1      35.434 -10.568  -0.986  1.00  0.00    -0.206 F 
HETATM   25  C   UNL     1      36.492 -12.029   0.528  1.00  0.00     0.044 A 
HETATM   26  C   UNL     1      37.492 -12.969   0.788  1.00  0.00     0.034 A 
ENDBRANCH  16  19
ENDBRANCH   7  15
BRANCH   1  27
HETATM   27  O   UNL     1      44.712 -20.733   5.460  1.00  0.00    -0.356 OA
HETATM   28  C   UNL     1      44.990 -22.083   5.113  1.00  0.00     0.210 C 
ENDBRANCH   1  27
TORSDOF 3
ENDMDL
MODEL 8
REMARK VINA RESULT:      -8.0      4.268      4.872
REMARK  3 active torsions:
REMARK  status: ('A' for Active; 'I' for Inactive)
REMARK    1  A    between atoms: O_2  and  C_3 
REMARK    2  A    between atoms: C_9  and  C_10 
REMARK       I    between atoms: C_10  and  N_11 
REMARK    3  A    between atoms: N_11  and  C_12 
ROOT
HETATM    1  C   UNL     1      44.464 -20.852   3.405  1.00  0.00     0.068 A 
HETATM    2  C   UNL     1      44.010 -19.834   2.562  1.00  0.00     0.044 A 
HETATM    3  C   UNL     1      43.735 -18.556   3.065  1.00  0.00    -0.043 A 
HETATM    4  C   UNL     1      43.946 -18.290   4.438  1.00  0.00    -0.001 A 
HETATM    5  C   UNL     1      43.630 -16.946   4.892  1.00  0.00     0.069 A 
HETATM    6  C   UNL     1      42.954 -16.014   4.138  1.00  0.00     0.007 A 
HETATM    7  C   UNL     1      42.835 -14.867   4.958  1.00  0.00     0.153 A 
HETATM    8  N   UNL     1      43.440 -15.069   6.153  1.00  0.00    -0.168 NA
HETATM    9  N   UNL     1      43.909 -16.335   6.075  1.00  0.00    -0.276 N 
HETATM   10  H   UNL     1      44.412 -16.713   6.870  1.00  0.00     0.189 HD
HETATM   11  C   UNL     1      42.466 -16.320   2.766  1.00  0.00     0.048 C 
HETATM   12  C   UNL     1      43.311 -17.440   2.116  1.00  0.00     0.044 C 
HETATM   13  C   UNL     1      44.396 -19.308   5.280  1.00  0.00     0.017 A 
HETATM   14  C   UNL     1      44.652 -20.585   4.764  1.00  0.00     0.037 A 
ENDROOT
BRANCH   7  15
HETATM   15  C   UNL     1      42.133 -13.609   4.643  1.00  0.00     0.277 C 
HETATM   16  N   UNL     1      40.778 -13.808   4.442  1.00  0.00    -0.320 N 
HETATM   17  H   UNL     1      40.553 -14.791   4.309  1.00  0.00     0.169 HD
HETATM   18  O   UNL     1      42.738 -12.554   4.500  1.00  0.00    -0.266 OA
BRANCH  16  19
HETATM   19  C   UNL     1      39.847 -12.832   4.029  1.00  0.00     0.057 A 
HETATM   20  C   UNL     1      39.351 -11.778   4.823  1.00  0.00     0.063 A 
HETATM   21 CL   UNL     1      39.571 -11.686   6.537  1.00  0.00    -0.082 Cl
HETATM   22  C   UNL     1      38.491 -10.824   4.267  1.00  0.00     0.068 A 
HETATM   23  C   UNL     1      38.094 -10.942   2.943  1.00  0.00     0.118 A 
HETATM   24  F   UNL     1      37.268 -10.028   2.418  1.00  0.00    -0.206 F 
HETATM   25  C   UNL     1      38.515 -12.009   2.164  1.00  0.00     0.044 A 
HETATM   26  C   UNL     1      39.380 -12.960   2.710  1.00  0.00     0.034 A 
ENDBRANCH  16  19
ENDBRANCH   7  15
BRANCH   1  27
HETATM   27  O   UNL     1      44.684 -22.048   2.781  1.00  0.00    -0.356 OA
HETATM   28  C   UNL     1      44.237 -22.169   1.437  1.00  0.00     0.210 C 
ENDBRANCH   1  27
TORSDOF 3
ENDMDL
MODEL 9
REMARK VINA RESULT:      -7.9      3.866      5.003
REMARK  3 active torsions:
REMARK  status: ('A' for Active; 'I' for Inactive)
REMARK    1  A    between atoms: O_2  and  C_3 
REMARK    2  A    between atoms: C_9  and  C_10 
REMARK       I    between atoms: C_10  and  N_11 
REMARK    3  A    between atoms: N_11  and  C_12 
ROOT
HETATM    1  C   UNL     1      44.503 -21.331   3.413  1.00  0.00     0.068 A 
HETATM    2  C   UNL     1      44.328 -20.278   4.315  1.00  0.00     0.044 A 
HETATM    3  C   UNL     1      43.775 -19.061   3.897  1.00  0.00    -0.043 A 
HETATM    4  C   UNL     1      43.367 -18.908   2.552  1.00  0.00    -0.001 A 
HETATM    5  C   UNL     1      42.813 -17.616   2.187  1.00  0.00     0.069 A 
HETATM    6  C   UNL     1      42.862 -16.499   2.989  1.00  0.00     0.007 A 
HETATM    7  C   UNL     1      42.241 -15.465   2.249  1.00  0.00     0.153 A 
HETATM    8  N   UNL     1      41.796 -15.930   1.057  1.00  0.00    -0.168 NA
HETATM    9  N   UNL     1      42.159 -17.233   1.056  1.00  0.00    -0.276 N 
HETATM   10  H   UNL     1      41.925 -17.799   0.248  1.00  0.00     0.189 HD
HETATM   11  C   UNL     1      43.518 -16.521   4.324  1.00  0.00     0.048 C 
HETATM   12  C   UNL     1      43.524 -17.951   4.913  1.00  0.00     0.044 C 
HETATM   13  C   UNL     1      43.546 -19.959   1.651  1.00  0.00     0.017 A 
HETATM   14  C   UNL     1      44.115 -21.165   2.081  1.00  0.00     0.037 A 
ENDROOT
BRANCH   7  15
HETATM   15  C   UNL     1      42.095 -14.049   2.636  1.00  0.00     0.277 C 
HETATM   16  N   UNL     1      41.125 -13.874   3.608  1.00  0.00    -0.320 N 
HETATM   17  H   UNL     1      40.532 -14.695   3.705  1.00  0.00     0.169 HD
HETATM   18  O   UNL     1      42.719 -13.161   2.068  1.00  0.00    -0.266 OA
BRANCH  16  19
HETATM   19  C   UNL     1      40.675 -12.640   4.119  1.00  0.00     0.057 A 
HETATM   20  C   UNL     1      39.526 -11.941   3.694  1.00  0.00     0.063 A 
HETATM   21 CL   UNL     1      38.645 -12.334   2.257  1.00  0.00    -0.082 Cl
HETATM   22  C   UNL     1      39.141 -10.762   4.342  1.00  0.00     0.068 A 
HETATM   23  C   UNL     1      39.915 -10.259   5.377  1.00  0.00     0.118 A 
HETATM   24  F   UNL     1      39.543  -9.129   5.991  1.00  0.00    -0.206 F 
HETATM   25  C   UNL     1      41.086 -10.894   5.766  1.00  0.00     0.044 A 
HETATM   26  C   UNL     1      41.472 -12.075   5.129  1.00  0.00     0.034 A 
ENDBRANCH  16  19
ENDBRANCH   7  15
BRANCH   1  27
HETATM   27  O   UNL     1      45.059 -22.455   3.956  1.00  0.00    -0.356 OA
HETATM   28  C   UNL     1      45.137 -22.518   5.374  1.00  0.00     0.210 C 
ENDBRANCH   1  27
TORSDOF 3
ENDMDL
MODEL 10
REMARK VINA RESULT:      -7.9      3.653      4.047
REMARK  3 active torsions:
REMARK  status: ('A' for Active; 'I' for Inactive)
REMARK    1  A    between atoms: O_2  and  C_3 
REMARK    2  A    between atoms: C_9  and  C_10 
REMARK       I    between atoms: C_10  and  N_11 
REMARK    3  A    between atoms: N_11  and  C_12 
ROOT
HETATM    1  C   UNL     1      44.465 -20.245   3.152  1.00  0.00     0.068 A 
HETATM    2  C   UNL     1      44.016 -19.443   2.100  1.00  0.00     0.044 A 
HETATM    3  C   UNL     1      43.515 -18.157   2.343  1.00  0.00    -0.043 A 
HETATM    4  C   UNL     1      43.488 -17.661   3.667  1.00  0.00    -0.001 A 
HETATM    5  C   UNL     1      42.945 -16.326   3.845  1.00  0.00     0.069 A 
HETATM    6  C   UNL     1      42.276 -15.625   2.867  1.00  0.00     0.007 A 
HETATM    7  C   UNL     1      41.897 -14.399   3.462  1.00  0.00     0.153 A 
HETATM    8  N   UNL     1      42.341 -14.328   4.740  1.00  0.00    -0.168 NA
HETATM    9  N   UNL     1      42.970 -15.510   4.935  1.00  0.00    -0.276 N 
HETATM   10  H   UNL     1      43.394 -15.688   5.838  1.00  0.00     0.189 HD
HETATM   11  C   UNL     1      42.035 -16.201   1.517  1.00  0.00     0.048 C 
HETATM   12  C   UNL     1      43.099 -17.269   1.174  1.00  0.00     0.044 C 
HETATM   13  C   UNL     1      43.932 -18.465   4.717  1.00  0.00     0.017 A 
HETATM   14  C   UNL     1      44.417 -19.754   4.459  1.00  0.00     0.037 A 
ENDROOT
BRANCH   7  15
HETATM   15  C   UNL     1      41.097 -13.317   2.855  1.00  0.00     0.277 C 
HETATM   16  N   UNL     1      39.751 -13.633   2.806  1.00  0.00    -0.320 N 
HETATM   17  H   UNL     1      39.586 -14.624   2.968  1.00  0.00     0.169 HD
HETATM   18  O   UNL     1      41.623 -12.317   2.384  1.00  0.00    -0.266 OA
BRANCH  16  19
HETATM   19  C   UNL     1      38.738 -12.862   2.200  1.00  0.00     0.057 A 
HETATM   20  C   UNL     1      38.296 -11.595   2.631  1.00  0.00     0.063 A 
HETATM   21 CL   UNL     1      38.712 -10.908   4.164  1.00  0.00    -0.082 Cl
HETATM   22  C   UNL     1      37.337 -10.895   1.890  1.00  0.00     0.068 A 
HETATM   23  C   UNL     1      36.792 -11.469   0.751  1.00  0.00     0.118 A 
HETATM   24  F   UNL     1      35.872 -10.796   0.048  1.00  0.00    -0.206 F 
HETATM   25  C   UNL     1      37.162 -12.743   0.347  1.00  0.00     0.044 A 
HETATM   26  C   UNL     1      38.124 -13.444   1.077  1.00  0.00     0.034 A 
ENDBRANCH  16  19
ENDBRANCH   7  15
BRANCH   1  27
HETATM   27  O   UNL     1      44.921 -21.476   2.770  1.00  0.00    -0.356 OA
HETATM   28  C   UNL     1      44.316 -22.063   1.625  1.00  0.00     0.210 C 
ENDBRANCH   1  27
TORSDOF 3
ENDMDL
