MODEL 1
REMARK VINA RESULT:      -7.8      0.000      0.000
REMARK  4 active torsions:
REMARK  status: ('A' for Active; 'I' for Inactive)
REMARK    1  A    between atoms: C_4  and  C_5 
REMARK       I    between atoms: C_5  and  N_6 
REMARK    2  A    between atoms: N_6  and  C_7 
REMARK    3  A    between atoms: C_7  and  N_8 
REMARK    4  A    between atoms: N_8  and  C_9 
ROOT
HETATM    1  C   UNL     1      43.585 -18.124   2.394  1.00  0.00     0.257 C 
HETATM    2  N   UNL     1      42.400 -17.701   2.983  1.00  0.00    -0.299 N 
HETATM    3  O   UNL     1      44.422 -17.428   1.837  1.00  0.00    -0.267 OA
HETATM    4  H   UNL     1      41.951 -18.373   3.602  1.00  0.00     0.171 HD
ENDROOT
BRANCH   2   5
HETATM    5  C   UNL     1      41.698 -16.518   2.891  1.00  0.00     0.180 C 
HETATM    6  S   UNL     1      40.210 -16.285   2.168  1.00  0.00    -0.040 SA
BRANCH   5   7
HETATM    7  N   UNL     1      42.290 -15.419   3.468  1.00  0.00    -0.318 N 
HETATM    8  H   UNL     1      42.296 -14.598   2.876  1.00  0.00     0.170 HD
BRANCH   7   9
HETATM    9  C   UNL     1      42.908 -15.316   4.723  1.00  0.00     0.129 A 
HETATM   10  N   UNL     1      42.716 -16.291   5.641  1.00  0.00    -0.236 NA
HETATM   11  C   UNL     1      43.352 -16.179   6.834  1.00  0.00     0.033 A 
HETATM   12  C   UNL     1      43.143 -17.281   7.831  1.00  0.00     0.070 C 
HETATM   13  C   UNL     1      44.163 -15.097   7.150  1.00  0.00     0.027 A 
HETATM   14  C   UNL     1      44.339 -14.097   6.201  1.00  0.00     0.006 A 
HETATM   15  C   UNL     1      43.704 -14.206   4.967  1.00  0.00     0.050 A 
ENDBRANCH   7   9
ENDBRANCH   5   7
ENDBRANCH   2   5
BRANCH   1  16
HETATM   16  C   UNL     1      43.860 -19.569   2.594  1.00  0.00     0.032 A 
HETATM   17  C   UNL     1      44.332 -20.042   3.828  1.00  0.00     0.023 A 
HETATM   18  C   UNL     1      44.608 -21.404   3.997  1.00  0.00    -0.061 A 
HETATM   19  C   UNL     1      45.130 -21.923   5.305  1.00  0.00     0.048 C 
HETATM   20  C   UNL     1      44.434 -22.275   2.914  1.00  0.00     0.007 A 
HETATM   21  C   UNL     1      43.953 -21.802   1.690  1.00  0.00     0.002 A 
HETATM   22  C   UNL     1      43.653 -20.451   1.532  1.00  0.00     0.017 A 
ENDBRANCH   1  16
TORSDOF 4
ENDMDL
MODEL 2
REMARK VINA RESULT:      -7.6      1.347      1.992
REMARK  4 active torsions:
REMARK  status: ('A' for Active; 'I' for Inactive)
REMARK    1  A    between atoms: C_4  and  C_5 
REMARK       I    between atoms: C_5  and  N_6 
REMARK    2  A    between atoms: N_6  and  C_7 
REMARK    3  A    between atoms: C_7  and  N_8 
REMARK    4  A    between atoms: N_8  and  C_9 
ROOT
HETATM    1  C   UNL     1      42.324 -17.462   2.321  1.00  0.00     0.257 C 
HETATM    2  N   UNL     1      42.912 -16.233   2.593  1.00  0.00    -0.299 N 
HETATM    3  O   UNL     1      41.274 -17.663   1.728  1.00  0.00    -0.267 OA
HETATM    4  H   UNL     1      43.889 -16.265   2.877  1.00  0.00     0.171 HD
ENDROOT
BRANCH   2   5
HETATM    5  C   UNL     1      42.417 -14.947   2.550  1.00  0.00     0.180 C 
HETATM    6  S   UNL     1      41.779 -14.158   1.224  1.00  0.00    -0.040 SA
BRANCH   5   7
HETATM    7  N   UNL     1      42.445 -14.251   3.736  1.00  0.00    -0.318 N 
HETATM    8  H   UNL     1      42.039 -13.326   3.678  1.00  0.00     0.170 HD
BRANCH   7   9
HETATM    9  C   UNL     1      42.994 -14.640   4.967  1.00  0.00     0.129 A 
HETATM   10  N   UNL     1      42.526 -15.750   5.582  1.00  0.00    -0.236 NA
HETATM   11  C   UNL     1      43.097 -16.119   6.756  1.00  0.00     0.033 A 
HETATM   12  C   UNL     1      42.579 -17.364   7.413  1.00  0.00     0.070 C 
HETATM   13  C   UNL     1      44.117 -15.389   7.353  1.00  0.00     0.027 A 
HETATM   14  C   UNL     1      44.577 -14.243   6.715  1.00  0.00     0.006 A 
HETATM   15  C   UNL     1      44.010 -13.861   5.503  1.00  0.00     0.050 A 
ENDBRANCH   7   9
ENDBRANCH   5   7
ENDBRANCH   2   5
BRANCH   1  16
HETATM   16  C   UNL     1      43.165 -18.619   2.720  1.00  0.00     0.032 A 
HETATM   17  C   UNL     1      43.265 -19.747   1.892  1.00  0.00     0.023 A 
HETATM   18  C   UNL     1      44.044 -20.841   2.290  1.00  0.00    -0.061 A 
HETATM   19  C   UNL     1      44.147 -22.063   1.424  1.00  0.00     0.048 C 
HETATM   20  C   UNL     1      44.694 -20.801   3.530  1.00  0.00     0.007 A 
HETATM   21  C   UNL     1      44.602 -19.671   4.346  1.00  0.00     0.002 A 
HETATM   22  C   UNL     1      43.847 -18.573   3.937  1.00  0.00     0.017 A 
ENDBRANCH   1  16
TORSDOF 4
ENDMDL
MODEL 3
REMARK VINA RESULT:      -7.4      3.171      5.245
REMARK  4 active torsions:
REMARK  status: ('A' for Active; 'I' for Inactive)
REMARK    1  A    between atoms: C_4  and  C_5 
REMARK       I    between atoms: C_5  and  N_6 
REMARK    2  A    between atoms: N_6  and  C_7 
REMARK    3  A    between atoms: C_7  and  N_8 
REMARK    4  A    between atoms: N_8  and  C_9 
ROOT
HETATM    1  C   UNL     1      41.932 -17.599   2.331  1.00  0.00     0.257 C 
HETATM    2  N   UNL     1      41.671 -16.614   3.276  1.00  0.00    -0.299 N 
HETATM    3  O   UNL     1      41.526 -17.643   1.178  1.00  0.00    -0.267 OA
HETATM    4  H   UNL     1      42.278 -16.616   4.093  1.00  0.00     0.171 HD
ENDROOT
BRANCH   2   5
HETATM    5  C   UNL     1      40.727 -15.611   3.321  1.00  0.00     0.180 C 
HETATM    6  S   UNL     1      40.748 -14.252   4.291  1.00  0.00    -0.040 SA
BRANCH   5   7
HETATM    7  N   UNL     1      39.661 -15.747   2.462  1.00  0.00    -0.318 N 
HETATM    8  H   UNL     1      39.099 -16.572   2.633  1.00  0.00     0.170 HD
BRANCH   7   9
HETATM    9  C   UNL     1      39.297 -14.931   1.381  1.00  0.00     0.129 A 
HETATM   10  N   UNL     1      40.222 -14.620   0.443  1.00  0.00    -0.236 NA
HETATM   11  C   UNL     1      39.833 -13.854  -0.607  1.00  0.00     0.033 A 
HETATM   12  C   UNL     1      40.866 -13.537  -1.647  1.00  0.00     0.070 C 
HETATM   13  C   UNL     1      38.540 -13.364  -0.737  1.00  0.00     0.027 A 
HETATM   14  C   UNL     1      37.606 -13.683   0.242  1.00  0.00     0.006 A 
HETATM   15  C   UNL     1      37.987 -14.479   1.318  1.00  0.00     0.050 A 
ENDBRANCH   7   9
ENDBRANCH   5   7
ENDBRANCH   2   5
BRANCH   1  16
HETATM   16  C   UNL     1      42.903 -18.621   2.797  1.00  0.00     0.032 A 
HETATM   17  C   UNL     1      43.163 -19.763   2.025  1.00  0.00     0.023 A 
HETATM   18  C   UNL     1      44.066 -20.730   2.486  1.00  0.00    -0.061 A 
HETATM   19  C   UNL     1      44.341 -21.966   1.680  1.00  0.00     0.048 C 
HETATM   20  C   UNL     1      44.679 -20.551   3.732  1.00  0.00     0.007 A 
HETATM   21  C   UNL     1      44.427 -19.406   4.492  1.00  0.00     0.002 A 
HETATM   22  C   UNL     1      43.548 -18.433   4.021  1.00  0.00     0.017 A 
ENDBRANCH   1  16
TORSDOF 4
ENDMDL
MODEL 4
REMARK VINA RESULT:      -7.4      2.151      3.903
REMARK  4 active torsions:
REMARK  status: ('A' for Active; 'I' for Inactive)
REMARK    1  A    between atoms: C_4  and  C_5 
REMARK       I    between atoms: C_5  and  N_6 
REMARK    2  A    between atoms: N_6  and  C_7 
REMARK    3  A    between atoms: C_7  and  N_8 
REMARK    4  A    between atoms: N_8  and  C_9 
ROOT
HETATM    1  C   UNL     1      43.558 -18.024   3.253  1.00  0.00     0.257 C 
HETATM    2  N   UNL     1      42.716 -17.722   4.317  1.00  0.00    -0.299 N 
HETATM    3  O   UNL     1      44.136 -17.232   2.522  1.00  0.00    -0.267 OA
HETATM    4  H   UNL     1      42.520 -18.491   4.955  1.00  0.00     0.171 HD
ENDROOT
BRANCH   2   5
HETATM    5  C   UNL     1      42.081 -16.555   4.684  1.00  0.00     0.180 C 
HETATM    6  S   UNL     1      42.656 -15.380   5.723  1.00  0.00    -0.040 SA
BRANCH   5   7
HETATM    7  N   UNL     1      40.846 -16.339   4.120  1.00  0.00    -0.318 N 
HETATM    8  H   UNL     1      40.087 -16.803   4.604  1.00  0.00     0.170 HD
BRANCH   7   9
HETATM    9  C   UNL     1      40.526 -15.612   2.964  1.00  0.00     0.129 A 
HETATM   10  N   UNL     1      41.047 -15.992   1.775  1.00  0.00    -0.236 NA
HETATM   11  C   UNL     1      40.695 -15.289   0.669  1.00  0.00     0.033 A 
HETATM   12  C   UNL     1      41.266 -15.739  -0.643  1.00  0.00     0.070 C 
HETATM   13  C   UNL     1      39.847 -14.190   0.721  1.00  0.00     0.027 A 
HETATM   14  C   UNL     1      39.331 -13.804   1.953  1.00  0.00     0.006 A 
HETATM   15  C   UNL     1      39.673 -14.525   3.093  1.00  0.00     0.050 A 
ENDBRANCH   7   9
ENDBRANCH   5   7
ENDBRANCH   2   5
BRANCH   1  16
HETATM   16  C   UNL     1      43.833 -19.476   3.112  1.00  0.00     0.032 A 
HETATM   17  C   UNL     1      44.380 -20.206   4.176  1.00  0.00     0.023 A 
HETATM   18  C   UNL     1      44.655 -21.571   4.023  1.00  0.00    -0.061 A 
HETATM   19  C   UNL     1      45.257 -22.362   5.147  1.00  0.00     0.048 C 
HETATM   20  C   UNL     1      44.401 -22.183   2.789  1.00  0.00     0.007 A 
HETATM   21  C   UNL     1      43.844 -21.455   1.734  1.00  0.00     0.002 A 
HETATM   22  C   UNL     1      43.548 -20.103   1.897  1.00  0.00     0.017 A 
ENDBRANCH   1  16
TORSDOF 4
ENDMDL
MODEL 5
REMARK VINA RESULT:      -7.3      3.527      5.474
REMARK  4 active torsions:
REMARK  status: ('A' for Active; 'I' for Inactive)
REMARK    1  A    between atoms: C_4  and  C_5 
REMARK       I    between atoms: C_5  and  N_6 
REMARK    2  A    between atoms: N_6  and  C_7 
REMARK    3  A    between atoms: C_7  and  N_8 
REMARK    4  A    between atoms: N_8  and  C_9 
ROOT
HETATM    1  C   UNL     1      42.980 -17.704   1.558  1.00  0.00     0.257 C 
HETATM    2  N   UNL     1      41.814 -17.082   1.987  1.00  0.00    -0.299 N 
HETATM    3  O   UNL     1      43.560 -17.533   0.496  1.00  0.00    -0.267 OA
HETATM    4  H   UNL     1      41.611 -17.165   2.981  1.00  0.00     0.171 HD
ENDROOT
BRANCH   2   5
HETATM    5  C   UNL     1      40.856 -16.357   1.310  1.00  0.00     0.180 C 
HETATM    6  S   UNL     1      39.672 -15.386   1.976  1.00  0.00    -0.040 SA
BRANCH   5   7
HETATM    7  N   UNL     1      40.896 -16.441  -0.062  1.00  0.00    -0.318 N 
HETATM    8  H   UNL     1      40.735 -17.374  -0.421  1.00  0.00     0.170 HD
BRANCH   7   9
HETATM    9  C   UNL     1      41.170 -15.428  -0.994  1.00  0.00     0.129 A 
HETATM   10  N   UNL     1      41.685 -14.253  -0.565  1.00  0.00    -0.236 NA
HETATM   11  C   UNL     1      41.969 -13.304  -1.492  1.00  0.00     0.033 A 
HETATM   12  C   UNL     1      42.559 -12.016  -1.000  1.00  0.00     0.070 C 
HETATM   13  C   UNL     1      41.727 -13.488  -2.848  1.00  0.00     0.027 A 
HETATM   14  C   UNL     1      41.185 -14.696  -3.270  1.00  0.00     0.006 A 
HETATM   15  C   UNL     1      40.902 -15.684  -2.331  1.00  0.00     0.050 A 
ENDBRANCH   7   9
ENDBRANCH   5   7
ENDBRANCH   2   5
BRANCH   1  16
HETATM   16  C   UNL     1      43.598 -18.574   2.590  1.00  0.00     0.032 A 
HETATM   17  C   UNL     1      43.889 -18.072   3.867  1.00  0.00     0.023 A 
HETATM   18  C   UNL     1      44.492 -18.896   4.825  1.00  0.00    -0.061 A 
HETATM   19  C   UNL     1      44.825 -18.368   6.190  1.00  0.00     0.048 C 
HETATM   20  C   UNL     1      44.823 -20.213   4.480  1.00  0.00     0.007 A 
HETATM   21  C   UNL     1      44.521 -20.714   3.211  1.00  0.00     0.002 A 
HETATM   22  C   UNL     1      43.897 -19.899   2.268  1.00  0.00     0.017 A 
ENDBRANCH   1  16
TORSDOF 4
ENDMDL
MODEL 6
REMARK VINA RESULT:      -7.3      3.723      5.848
REMARK  4 active torsions:
REMARK  status: ('A' for Active; 'I' for Inactive)
REMARK    1  A    between atoms: C_4  and  C_5 
REMARK       I    between atoms: C_5  and  N_6 
REMARK    2  A    between atoms: N_6  and  C_7 
REMARK    3  A    between atoms: C_7  and  N_8 
REMARK    4  A    between atoms: N_8  and  C_9 
ROOT
HETATM    1  C   UNL     1      41.973 -17.259   2.191  1.00  0.00     0.257 C 
HETATM    2  N   UNL     1      42.597 -16.026   2.042  1.00  0.00    -0.299 N 
HETATM    3  O   UNL     1      40.817 -17.541   1.908  1.00  0.00    -0.267 OA
HETATM    4  H   UNL     1      43.613 -16.037   2.101  1.00  0.00     0.171 HD
ENDROOT
BRANCH   2   5
HETATM    5  C   UNL     1      42.093 -14.762   1.823  1.00  0.00     0.180 C 
HETATM    6  S   UNL     1      42.540 -13.352   2.599  1.00  0.00    -0.040 SA
BRANCH   5   7
HETATM    7  N   UNL     1      41.127 -14.659   0.850  1.00  0.00    -0.318 N 
HETATM    8  H   UNL     1      40.180 -14.698   1.206  1.00  0.00     0.170 HD
BRANCH   7   9
HETATM    9  C   UNL     1      41.290 -14.554  -0.540  1.00  0.00     0.129 A 
HETATM   10  N   UNL     1      41.794 -13.414  -1.066  1.00  0.00    -0.236 NA
HETATM   11  C   UNL     1      41.969 -13.353  -2.409  1.00  0.00     0.033 A 
HETATM   12  C   UNL     1      42.548 -12.089  -2.971  1.00  0.00     0.070 C 
HETATM   13  C   UNL     1      41.630 -14.402  -3.255  1.00  0.00     0.027 A 
HETATM   14  C   UNL     1      41.101 -15.561  -2.700  1.00  0.00     0.006 A 
HETATM   15  C   UNL     1      40.928 -15.642  -1.322  1.00  0.00     0.050 A 
ENDBRANCH   7   9
ENDBRANCH   5   7
ENDBRANCH   2   5
BRANCH   1  16
HETATM   16  C   UNL     1      42.892 -18.335   2.642  1.00  0.00     0.032 A 
HETATM   17  C   UNL     1      43.033 -19.513   1.894  1.00  0.00     0.023 A 
HETATM   18  C   UNL     1      43.887 -20.529   2.341  1.00  0.00    -0.061 A 
HETATM   19  C   UNL     1      44.034 -21.803   1.562  1.00  0.00     0.048 C 
HETATM   20  C   UNL     1      44.571 -20.361   3.552  1.00  0.00     0.007 A 
HETATM   21  C   UNL     1      44.438 -19.181   4.287  1.00  0.00     0.002 A 
HETATM   22  C   UNL     1      43.608 -18.161   3.828  1.00  0.00     0.017 A 
ENDBRANCH   1  16
TORSDOF 4
ENDMDL
MODEL 7
REMARK VINA RESULT:      -7.2      3.023      4.513
REMARK  4 active torsions:
REMARK  status: ('A' for Active; 'I' for Inactive)
REMARK    1  A    between atoms: C_4  and  C_5 
REMARK       I    between atoms: C_5  and  N_6 
REMARK    2  A    between atoms: N_6  and  C_7 
REMARK    3  A    between atoms: C_7  and  N_8 
REMARK    4  A    between atoms: N_8  and  C_9 
ROOT
HETATM    1  C   UNL     1      42.061 -17.600   3.048  1.00  0.00     0.257 C 
HETATM    2  N   UNL     1      41.696 -17.445   1.717  1.00  0.00    -0.299 N 
HETATM    3  O   UNL     1      41.612 -16.997   4.012  1.00  0.00    -0.267 OA
HETATM    4  H   UNL     1      41.995 -18.188   1.089  1.00  0.00     0.171 HD
ENDROOT
BRANCH   2   5
HETATM    5  C   UNL     1      40.990 -16.456   1.066  1.00  0.00     0.180 C 
HETATM    6  S   UNL     1      41.403 -15.698  -0.363  1.00  0.00    -0.040 SA
BRANCH   5   7
HETATM    7  N   UNL     1      39.812 -16.066   1.661  1.00  0.00    -0.318 N 
HETATM    8  H   UNL     1      39.225 -16.838   1.951  1.00  0.00     0.170 HD
BRANCH   7   9
HETATM    9  C   UNL     1      39.323 -14.768   1.868  1.00  0.00     0.129 A 
HETATM   10  N   UNL     1      39.835 -14.016   2.869  1.00  0.00    -0.236 NA
HETATM   11  C   UNL     1      39.364 -12.754   3.025  1.00  0.00     0.033 A 
HETATM   12  C   UNL     1      39.959 -11.929   4.128  1.00  0.00     0.070 C 
HETATM   13  C   UNL     1      38.367 -12.223   2.216  1.00  0.00     0.027 A 
HETATM   14  C   UNL     1      37.842 -13.013   1.200  1.00  0.00     0.006 A 
HETATM   15  C   UNL     1      38.326 -14.306   1.020  1.00  0.00     0.050 A 
ENDBRANCH   7   9
ENDBRANCH   5   7
ENDBRANCH   2   5
BRANCH   1  16
HETATM   16  C   UNL     1      43.023 -18.709   3.271  1.00  0.00     0.032 A 
HETATM   17  C   UNL     1      43.170 -19.729   2.319  1.00  0.00     0.023 A 
HETATM   18  C   UNL     1      44.065 -20.781   2.551  1.00  0.00    -0.061 A 
HETATM   19  C   UNL     1      44.220 -21.889   1.551  1.00  0.00     0.048 C 
HETATM   20  C   UNL     1      44.784 -20.811   3.753  1.00  0.00     0.007 A 
HETATM   21  C   UNL     1      44.644 -19.788   4.693  1.00  0.00     0.002 A 
HETATM   22  C   UNL     1      43.772 -18.728   4.449  1.00  0.00     0.017 A 
ENDBRANCH   1  16
TORSDOF 4
ENDMDL
MODEL 8
REMARK VINA RESULT:      -7.1      2.226      3.705
REMARK  4 active torsions:
REMARK  status: ('A' for Active; 'I' for Inactive)
REMARK    1  A    between atoms: C_4  and  C_5 
REMARK       I    between atoms: C_5  and  N_6 
REMARK    2  A    between atoms: N_6  and  C_7 
REMARK    3  A    between atoms: C_7  and  N_8 
REMARK    4  A    between atoms: N_8  and  C_9 
ROOT
HETATM    1  C   UNL     1      43.918 -17.980   4.316  1.00  0.00     0.257 C 
HETATM    2  N   UNL     1      43.748 -17.612   5.645  1.00  0.00    -0.299 N 
HETATM    3  O   UNL     1      43.951 -17.240   3.343  1.00  0.00    -0.267 OA
HETATM    4  H   UNL     1      43.985 -18.325   6.332  1.00  0.00     0.171 HD
ENDROOT
BRANCH   2   5
HETATM    5  C   UNL     1      43.311 -16.441   6.226  1.00  0.00     0.180 C 
HETATM    6  S   UNL     1      44.252 -15.255   6.930  1.00  0.00    -0.040 SA
BRANCH   5   7
HETATM    7  N   UNL     1      41.952 -16.231   6.209  1.00  0.00    -0.318 N 
HETATM    8  H   UNL     1      41.454 -16.705   6.953  1.00  0.00     0.170 HD
BRANCH   7   9
HETATM    9  C   UNL     1      41.190 -15.499   5.286  1.00  0.00     0.129 A 
HETATM   10  N   UNL     1      41.032 -15.975   4.030  1.00  0.00    -0.236 NA
HETATM   11  C   UNL     1      40.264 -15.261   3.168  1.00  0.00     0.033 A 
HETATM   12  C   UNL     1      40.084 -15.815   1.786  1.00  0.00     0.070 C 
HETATM   13  C   UNL     1      39.663 -14.060   3.522  1.00  0.00     0.027 A 
HETATM   14  C   UNL     1      39.846 -13.579   4.814  1.00  0.00     0.006 A 
HETATM   15  C   UNL     1      40.620 -14.308   5.712  1.00  0.00     0.050 A 
ENDBRANCH   7   9
ENDBRANCH   5   7
ENDBRANCH   2   5
BRANCH   1  16
HETATM   16  C   UNL     1      44.194 -19.427   4.135  1.00  0.00     0.032 A 
HETATM   17  C   UNL     1      44.060 -20.028   2.874  1.00  0.00     0.023 A 
HETATM   18  C   UNL     1      44.304 -21.398   2.720  1.00  0.00    -0.061 A 
HETATM   19  C   UNL     1      44.147 -22.059   1.382  1.00  0.00     0.048 C 
HETATM   20  C   UNL     1      44.654 -22.158   3.844  1.00  0.00     0.007 A 
HETATM   21  C   UNL     1      44.798 -21.555   5.096  1.00  0.00     0.002 A 
HETATM   22  C   UNL     1      44.581 -20.186   5.241  1.00  0.00     0.017 A 
ENDBRANCH   1  16
TORSDOF 4
ENDMDL
MODEL 9
REMARK VINA RESULT:      -6.9      3.265      5.193
REMARK  4 active torsions:
REMARK  status: ('A' for Active; 'I' for Inactive)
REMARK    1  A    between atoms: C_4  and  C_5 
REMARK       I    between atoms: C_5  and  N_6 
REMARK    2  A    between atoms: N_6  and  C_7 
REMARK    3  A    between atoms: C_7  and  N_8 
REMARK    4  A    between atoms: N_8  and  C_9 
ROOT
HETATM    1  C   UNL     1      41.835 -17.288   4.345  1.00  0.00     0.257 C 
HETATM    2  N   UNL     1      41.250 -16.456   3.398  1.00  0.00    -0.299 N 
HETATM    3  O   UNL     1      41.636 -17.288   5.551  1.00  0.00    -0.267 OA
HETATM    4  H   UNL     1      41.348 -16.754   2.430  1.00  0.00     0.171 HD
ENDROOT
BRANCH   2   5
HETATM    5  C   UNL     1      40.543 -15.279   3.520  1.00  0.00     0.180 C 
HETATM    6  S   UNL     1      40.949 -13.954   4.452  1.00  0.00    -0.040 SA
BRANCH   5   7
HETATM    7  N   UNL     1      39.387 -15.192   2.781  1.00  0.00    -0.318 N 
HETATM    8  H   UNL     1      38.569 -15.554   3.255  1.00  0.00     0.170 HD
BRANCH   7   9
HETATM    9  C   UNL     1      39.217 -14.718   1.471  1.00  0.00     0.129 A 
HETATM   10  N   UNL     1      40.267 -14.732   0.618  1.00  0.00    -0.236 NA
HETATM   11  C   UNL     1      40.066 -14.297  -0.650  1.00  0.00     0.033 A 
HETATM   12  C   UNL     1      41.237 -14.340  -1.587  1.00  0.00     0.070 C 
HETATM   13  C   UNL     1      38.838 -13.818  -1.090  1.00  0.00     0.027 A 
HETATM   14  C   UNL     1      37.773 -13.797  -0.197  1.00  0.00     0.006 A 
HETATM   15  C   UNL     1      37.962 -14.255   1.104  1.00  0.00     0.050 A 
ENDBRANCH   7   9
ENDBRANCH   5   7
ENDBRANCH   2   5
BRANCH   1  16
HETATM   16  C   UNL     1      42.699 -18.340   3.753  1.00  0.00     0.032 A 
HETATM   17  C   UNL     1      43.488 -19.161   4.572  1.00  0.00     0.023 A 
HETATM   18  C   UNL     1      44.315 -20.136   4.000  1.00  0.00    -0.061 A 
HETATM   19  C   UNL     1      45.177 -21.010   4.862  1.00  0.00     0.048 C 
HETATM   20  C   UNL     1      44.362 -20.257   2.605  1.00  0.00     0.007 A 
HETATM   21  C   UNL     1      43.566 -19.445   1.792  1.00  0.00     0.002 A 
HETATM   22  C   UNL     1      42.725 -18.494   2.365  1.00  0.00     0.017 A 
ENDBRANCH   1  16
TORSDOF 4
ENDMDL
MODEL 10
REMARK VINA RESULT:      -6.8      3.556      5.655
REMARK  4 active torsions:
REMARK  status: ('A' for Active; 'I' for Inactive)
REMARK    1  A    between atoms: C_4  and  C_5 
REMARK       I    between atoms: C_5  and  N_6 
REMARK    2  A    between atoms: N_6  and  C_7 
REMARK    3  A    between atoms: C_7  and  N_8 
REMARK    4  A    between atoms: N_8  and  C_9 
ROOT
HETATM    1  C   UNL     1      43.395 -17.096   2.224  1.00  0.00     0.257 C 
HETATM    2  N   UNL     1      42.018 -16.913   2.188  1.00  0.00    -0.299 N 
HETATM    3  O   UNL     1      44.255 -16.286   1.910  1.00  0.00    -0.267 OA
HETATM    4  H   UNL     1      41.470 -17.598   2.706  1.00  0.00     0.171 HD
ENDROOT
BRANCH   2   5
HETATM    5  C   UNL     1      41.232 -15.962   1.575  1.00  0.00     0.180 C 
HETATM    6  S   UNL     1      39.648 -15.578   1.937  1.00  0.00    -0.040 SA
BRANCH   5   7
HETATM    7  N   UNL     1      41.831 -15.249   0.562  1.00  0.00    -0.318 N 
HETATM    8  H   UNL     1      42.813 -15.060   0.719  1.00  0.00     0.170 HD
BRANCH   7   9
HETATM    9  C   UNL     1      41.251 -14.727  -0.604  1.00  0.00     0.129 A 
HETATM   10  N   UNL     1      40.811 -15.574  -1.563  1.00  0.00    -0.236 NA
HETATM   11  C   UNL     1      40.226 -15.042  -2.666  1.00  0.00     0.033 A 
HETATM   12  C   UNL     1      39.727 -15.998  -3.708  1.00  0.00     0.070 C 
HETATM   13  C   UNL     1      40.088 -13.673  -2.851  1.00  0.00     0.027 A 
HETATM   14  C   UNL     1      40.557 -12.816  -1.862  1.00  0.00     0.006 A 
HETATM   15  C   UNL     1      41.147 -13.348  -0.719  1.00  0.00     0.050 A 
ENDBRANCH   7   9
ENDBRANCH   5   7
ENDBRANCH   2   5
BRANCH   1  16
HETATM   16  C   UNL     1      43.803 -18.393   2.820  1.00  0.00     0.032 A 
HETATM   17  C   UNL     1      43.893 -19.547   2.027  1.00  0.00     0.023 A 
HETATM   18  C   UNL     1      44.259 -20.769   2.606  1.00  0.00    -0.061 A 
HETATM   19  C   UNL     1      44.343 -22.015   1.775  1.00  0.00     0.048 C 
HETATM   20  C   UNL     1      44.505 -20.824   3.984  1.00  0.00     0.007 A 
HETATM   21  C   UNL     1      44.426 -19.670   4.768  1.00  0.00     0.002 A 
HETATM   22  C   UNL     1      44.087 -18.451   4.186  1.00  0.00     0.017 A 
ENDBRANCH   1  16
TORSDOF 4
ENDMDL
