MODEL 1
REMARK VINA RESULT:      -8.1      0.000      0.000
REMARK  11 active torsions:
REMARK  status: ('A' for Active; 'I' for Inactive)
REMARK    1  A    between atoms: O_2  and  C_3 
REMARK    2  A    between atoms: C_3  and  C_4 
REMARK    3  A    between atoms: C_4  and  C_5 
REMARK    4  A    between atoms: C_5  and  O_6 
REMARK    5  A    between atoms: O_6  and  C_7 
REMARK    6  A    between atoms: C_7  and  C_9 
REMARK    7  A    between atoms: C_13  and  C_15 
REMARK    8  A    between atoms: C_17  and  C_23 
REMARK    9  A    between atoms: C_20  and  C_21 
REMARK   10  A    between atoms: C_21  and  N_22 
REMARK       I    between atoms: C_23  and  N_25 
REMARK   11  A    between atoms: N_25  and  C_26 
ROOT
HETATM    1  C   UNL     1      43.437 -17.959   4.205  1.00  0.00    -0.017 A 
HETATM    2  C   UNL     1      42.598 -17.375   3.233  1.00  0.00     0.030 A 
HETATM    3  C   UNL     1      42.438 -17.950   1.965  1.00  0.00     0.033 A 
HETATM    4  C   UNL     1      43.120 -19.124   1.652  1.00  0.00     0.017 A 
HETATM    5  C   UNL     1      43.957 -19.713   2.599  1.00  0.00     0.011 A 
HETATM    6  C   UNL     1      44.117 -19.156   3.885  1.00  0.00    -0.020 A 
ENDROOT
BRANCH   1   7
HETATM    7  C   UNL     1      43.513 -17.317   5.528  1.00  0.00    -0.024 A 
HETATM    8  C   UNL     1      43.000 -17.934   6.678  1.00  0.00     0.012 A 
HETATM    9  C   UNL     1      43.094 -17.312   7.926  1.00  0.00     0.002 A 
HETATM   10  C   UNL     1      43.717 -16.069   8.044  1.00  0.00     0.017 A 
HETATM   11  C   UNL     1      44.251 -15.441   6.913  1.00  0.00     0.040 A 
HETATM   12  C   UNL     1      44.139 -16.067   5.663  1.00  0.00     0.030 A 
BRANCH  11  13
HETATM   13  C   UNL     1      44.913 -14.117   7.072  1.00  0.00     0.293 C 
HETATM   14  O   UNL     1      45.513 -13.547   6.177  1.00  0.00    -0.259 OA
BRANCH  13  15
HETATM   15  O   UNL     1      44.735 -13.666   8.337  1.00  0.00    -0.317 OA
BRANCH  15  16
HETATM   16  C   UNL     1      45.497 -12.515   8.732  1.00  0.00     0.181 C 
BRANCH  16  17
HETATM   17  C   UNL     1      45.113 -12.069  10.139  1.00  0.00     0.053 C 
BRANCH  17  18
HETATM   18  C   UNL     1      44.433 -10.706  10.128  1.00  0.00     0.169 C 
BRANCH  18  19
HETATM   19  O   UNL     1      43.635 -10.580   8.955  1.00  0.00    -0.396 OA
HETATM   20  C   UNL     1      42.283 -10.269   9.267  1.00  0.00     0.201 C 
ENDBRANCH  18  19
ENDBRANCH  17  18
ENDBRANCH  16  17
ENDBRANCH  15  16
ENDBRANCH  13  15
ENDBRANCH  11  13
ENDBRANCH   1   7
BRANCH   6  21
HETATM   21  C   UNL     1      44.979 -19.911   4.874  1.00  0.00     0.306 C 
BRANCH  21  22
HETATM   22  N   UNL     1      45.067 -21.326   4.531  1.00  0.00     0.082 N 
HETATM   23  H   UNL     1      45.011 -21.878   5.385  1.00  0.00     0.313 HD
HETATM   24  H   UNL     1      44.255 -21.581   3.972  1.00  0.00     0.313 HD
ENDBRANCH  21  22
ENDBRANCH   6  21
BRANCH   3  25
HETATM   25  C   UNL     1      41.488 -17.380   0.969  1.00  0.00     0.256 C 
HETATM   26  O   UNL     1      40.395 -17.917   0.833  1.00  0.00    -0.267 OA
HETATM   27  N   UNL     1      41.961 -16.283   0.268  1.00  0.00    -0.323 N 
HETATM   28  H   UNL     1      42.947 -16.071   0.358  1.00  0.00     0.169 HD
BRANCH  27  29
HETATM   29  C   UNL     1      41.226 -15.459  -0.612  1.00  0.00     0.037 A 
HETATM   30  C   UNL     1      41.115 -15.691  -1.979  1.00  0.00     0.049 A 
HETATM   31  C   UNL     1      40.339 -14.826  -2.735  1.00  0.00     0.118 A 
HETATM   32  N   UNL     1      39.678 -13.764  -2.226  1.00  0.00    -0.273 NA
HETATM   33  C   UNL     1      39.803 -13.559  -0.900  1.00  0.00     0.118 A 
HETATM   34  C   UNL     1      40.551 -14.370  -0.061  1.00  0.00     0.049 A 
ENDBRANCH  27  29
ENDBRANCH   3  25
TORSDOF 11
ENDMDL
MODEL 2
REMARK VINA RESULT:      -7.9      2.659      4.641
REMARK  11 active torsions:
REMARK  status: ('A' for Active; 'I' for Inactive)
REMARK    1  A    between atoms: O_2  and  C_3 
REMARK    2  A    between atoms: C_3  and  C_4 
REMARK    3  A    between atoms: C_4  and  C_5 
REMARK    4  A    between atoms: C_5  and  O_6 
REMARK    5  A    between atoms: O_6  and  C_7 
REMARK    6  A    between atoms: C_7  and  C_9 
REMARK    7  A    between atoms: C_13  and  C_15 
REMARK    8  A    between atoms: C_17  and  C_23 
REMARK    9  A    between atoms: C_20  and  C_21 
REMARK   10  A    between atoms: C_21  and  N_22 
REMARK       I    between atoms: C_23  and  N_25 
REMARK   11  A    between atoms: N_25  and  C_26 
ROOT
HETATM    1  C   UNL     1      41.880 -17.101   2.632  1.00  0.00    -0.017 A 
HETATM    2  C   UNL     1      41.911 -16.686   1.283  1.00  0.00     0.030 A 
HETATM    3  C   UNL     1      41.118 -15.625   0.827  1.00  0.00     0.033 A 
HETATM    4  C   UNL     1      40.277 -14.962   1.719  1.00  0.00     0.017 A 
HETATM    5  C   UNL     1      40.230 -15.362   3.054  1.00  0.00     0.011 A 
HETATM    6  C   UNL     1      41.034 -16.418   3.533  1.00  0.00    -0.020 A 
ENDROOT
BRANCH   1   7
HETATM    7  C   UNL     1      42.780 -18.193   3.039  1.00  0.00    -0.024 A 
HETATM    8  C   UNL     1      43.469 -18.971   2.097  1.00  0.00     0.012 A 
HETATM    9  C   UNL     1      44.328 -19.995   2.506  1.00  0.00     0.002 A 
HETATM   10  C   UNL     1      44.524 -20.244   3.865  1.00  0.00     0.017 A 
HETATM   11  C   UNL     1      43.861 -19.470   4.823  1.00  0.00     0.040 A 
HETATM   12  C   UNL     1      42.989 -18.454   4.403  1.00  0.00     0.030 A 
BRANCH  11  13
HETATM   13  C   UNL     1      44.093 -19.759   6.265  1.00  0.00     0.293 C 
HETATM   14  O   UNL     1      43.769 -20.801   6.809  1.00  0.00    -0.259 OA
BRANCH  13  15
HETATM   15  O   UNL     1      44.708 -18.703   6.849  1.00  0.00    -0.317 OA
BRANCH  15  16
HETATM   16  C   UNL     1      44.205 -18.280   8.126  1.00  0.00     0.181 C 
BRANCH  16  17
HETATM   17  C   UNL     1      43.240 -17.110   7.967  1.00  0.00     0.053 C 
BRANCH  17  18
HETATM   18  C   UNL     1      43.824 -16.020   7.077  1.00  0.00     0.169 C 
BRANCH  18  19
HETATM   19  O   UNL     1      44.299 -14.947   7.884  1.00  0.00    -0.396 OA
HETATM   20  C   UNL     1      44.973 -13.963   7.110  1.00  0.00     0.201 C 
ENDBRANCH  18  19
ENDBRANCH  17  18
ENDBRANCH  16  17
ENDBRANCH  15  16
ENDBRANCH  13  15
ENDBRANCH  11  13
ENDBRANCH   1   7
BRANCH   6  21
HETATM   21  C   UNL     1      40.978 -16.724   5.015  1.00  0.00     0.306 C 
BRANCH  21  22
HETATM   22  N   UNL     1      40.128 -15.774   5.723  1.00  0.00     0.082 N 
HETATM   23  H   UNL     1      40.679 -14.954   5.968  1.00  0.00     0.313 HD
HETATM   24  H   UNL     1      39.398 -15.451   5.092  1.00  0.00     0.313 HD
ENDBRANCH  21  22
ENDBRANCH   6  21
BRANCH   3  25
HETATM   25  C   UNL     1      41.213 -15.133  -0.576  1.00  0.00     0.256 C 
HETATM   26  O   UNL     1      41.141 -15.951  -1.486  1.00  0.00    -0.267 OA
HETATM   27  N   UNL     1      41.396 -13.768  -0.708  1.00  0.00    -0.323 N 
HETATM   28  H   UNL     1      41.621 -13.251   0.133  1.00  0.00     0.169 HD
BRANCH  27  29
HETATM   29  C   UNL     1      41.363 -13.020  -1.906  1.00  0.00     0.037 A 
HETATM   30  C   UNL     1      42.500 -12.601  -2.589  1.00  0.00     0.049 A 
HETATM   31  C   UNL     1      42.338 -11.897  -3.772  1.00  0.00     0.118 A 
HETATM   32  N   UNL     1      41.138 -11.590  -4.310  1.00  0.00    -0.273 NA
HETATM   33  C   UNL     1      40.052 -12.005  -3.629  1.00  0.00     0.118 A 
HETATM   34  C   UNL     1      40.111 -12.718  -2.442  1.00  0.00     0.049 A 
ENDBRANCH  27  29
ENDBRANCH   3  25
TORSDOF 11
ENDMDL
MODEL 3
REMARK VINA RESULT:      -7.8      4.025      8.774
REMARK  11 active torsions:
REMARK  status: ('A' for Active; 'I' for Inactive)
REMARK    1  A    between atoms: O_2  and  C_3 
REMARK    2  A    between atoms: C_3  and  C_4 
REMARK    3  A    between atoms: C_4  and  C_5 
REMARK    4  A    between atoms: C_5  and  O_6 
REMARK    5  A    between atoms: O_6  and  C_7 
REMARK    6  A    between atoms: C_7  and  C_9 
REMARK    7  A    between atoms: C_13  and  C_15 
REMARK    8  A    between atoms: C_17  and  C_23 
REMARK    9  A    between atoms: C_20  and  C_21 
REMARK   10  A    between atoms: C_21  and  N_22 
REMARK       I    between atoms: C_23  and  N_25 
REMARK   11  A    between atoms: N_25  and  C_26 
ROOT
HETATM    1  C   UNL     1      41.025 -14.730   2.230  1.00  0.00    -0.017 A 
HETATM    2  C   UNL     1      41.353 -16.077   2.491  1.00  0.00     0.030 A 
HETATM    3  C   UNL     1      42.320 -16.422   3.444  1.00  0.00     0.033 A 
HETATM    4  C   UNL     1      42.976 -15.417   4.152  1.00  0.00     0.017 A 
HETATM    5  C   UNL     1      42.669 -14.080   3.903  1.00  0.00     0.011 A 
HETATM    6  C   UNL     1      41.686 -13.717   2.959  1.00  0.00    -0.020 A 
ENDROOT
BRANCH   1   7
HETATM    7  C   UNL     1      39.964 -14.456   1.246  1.00  0.00    -0.024 A 
HETATM    8  C   UNL     1      38.620 -14.333   1.627  1.00  0.00     0.012 A 
HETATM    9  C   UNL     1      37.630 -14.060   0.679  1.00  0.00     0.002 A 
HETATM   10  C   UNL     1      37.973 -13.890  -0.664  1.00  0.00     0.017 A 
HETATM   11  C   UNL     1      39.310 -13.991  -1.064  1.00  0.00     0.040 A 
HETATM   12  C   UNL     1      40.294 -14.280  -0.108  1.00  0.00     0.030 A 
BRANCH  11  13
HETATM   13  C   UNL     1      39.645 -13.801  -2.503  1.00  0.00     0.293 C 
HETATM   14  O   UNL     1      38.810 -13.677  -3.383  1.00  0.00    -0.259 OA
BRANCH  13  15
HETATM   15  O   UNL     1      40.989 -13.787  -2.660  1.00  0.00    -0.317 OA
BRANCH  15  16
HETATM   16  C   UNL     1      41.525 -12.852  -3.610  1.00  0.00     0.181 C 
BRANCH  16  17
HETATM   17  C   UNL     1      42.219 -11.695  -2.898  1.00  0.00     0.053 C 
BRANCH  17  18
HETATM   18  C   UNL     1      42.904 -12.157  -1.618  1.00  0.00     0.169 C 
BRANCH  18  19
HETATM   19  O   UNL     1      43.583 -11.059  -1.016  1.00  0.00    -0.396 OA
HETATM   20  C   UNL     1      43.096  -9.811  -1.493  1.00  0.00     0.201 C 
ENDBRANCH  18  19
ENDBRANCH  17  18
ENDBRANCH  16  17
ENDBRANCH  15  16
ENDBRANCH  13  15
ENDBRANCH  11  13
ENDBRANCH   1   7
BRANCH   6  21
HETATM   21  C   UNL     1      41.360 -12.245   2.818  1.00  0.00     0.306 C 
BRANCH  21  22
HETATM   22  N   UNL     1      42.077 -11.645   1.699  1.00  0.00     0.082 N 
HETATM   23  H   UNL     1      42.886 -11.141   2.055  1.00  0.00     0.313 HD
HETATM   24  H   UNL     1      42.442 -12.388   1.105  1.00  0.00     0.313 HD
ENDBRANCH  21  22
ENDBRANCH   6  21
BRANCH   3  25
HETATM   25  C   UNL     1      42.606 -17.846   3.780  1.00  0.00     0.256 C 
HETATM   26  O   UNL     1      41.984 -18.363   4.700  1.00  0.00    -0.267 OA
HETATM   27  N   UNL     1      43.585 -18.445   3.006  1.00  0.00    -0.323 N 
HETATM   28  H   UNL     1      44.137 -17.839   2.412  1.00  0.00     0.169 HD
BRANCH  27  29
HETATM   29  C   UNL     1      43.942 -19.812   3.002  1.00  0.00     0.037 A 
HETATM   30  C   UNL     1      44.568 -20.453   4.066  1.00  0.00     0.049 A 
HETATM   31  C   UNL     1      44.842 -21.807   3.954  1.00  0.00     0.118 A 
HETATM   32  N   UNL     1      44.537 -22.551   2.869  1.00  0.00    -0.273 NA
HETATM   33  C   UNL     1      43.933 -21.908   1.850  1.00  0.00     0.118 A 
HETATM   34  C   UNL     1      43.615 -20.559   1.870  1.00  0.00     0.049 A 
ENDBRANCH  27  29
ENDBRANCH   3  25
TORSDOF 11
ENDMDL
MODEL 4
REMARK VINA RESULT:      -7.7      3.939      6.324
REMARK  11 active torsions:
REMARK  status: ('A' for Active; 'I' for Inactive)
REMARK    1  A    between atoms: O_2  and  C_3 
REMARK    2  A    between atoms: C_3  and  C_4 
REMARK    3  A    between atoms: C_4  and  C_5 
REMARK    4  A    between atoms: C_5  and  O_6 
REMARK    5  A    between atoms: O_6  and  C_7 
REMARK    6  A    between atoms: C_7  and  C_9 
REMARK    7  A    between atoms: C_13  and  C_15 
REMARK    8  A    between atoms: C_17  and  C_23 
REMARK    9  A    between atoms: C_20  and  C_21 
REMARK   10  A    between atoms: C_21  and  N_22 
REMARK       I    between atoms: C_23  and  N_25 
REMARK   11  A    between atoms: N_25  and  C_26 
ROOT
HETATM    1  C   UNL     1      44.004 -14.701   6.485  1.00  0.00    -0.017 A 
HETATM    2  C   UNL     1      44.421 -16.047   6.403  1.00  0.00     0.030 A 
HETATM    3  C   UNL     1      43.750 -16.971   5.591  1.00  0.00     0.033 A 
HETATM    4  C   UNL     1      42.648 -16.559   4.846  1.00  0.00     0.017 A 
HETATM    5  C   UNL     1      42.219 -15.234   4.919  1.00  0.00     0.011 A 
HETATM    6  C   UNL     1      42.892 -14.287   5.719  1.00  0.00    -0.020 A 
ENDROOT
BRANCH   1   7
HETATM    7  C   UNL     1      44.792 -13.785   7.326  1.00  0.00    -0.024 A 
HETATM    8  C   UNL     1      46.012 -13.248   6.889  1.00  0.00     0.012 A 
HETATM    9  C   UNL     1      46.738 -12.369   7.698  1.00  0.00     0.002 A 
HETATM   10  C   UNL     1      46.245 -12.002   8.951  1.00  0.00     0.017 A 
HETATM   11  C   UNL     1      45.022 -12.511   9.402  1.00  0.00     0.040 A 
HETATM   12  C   UNL     1      44.308 -13.404   8.589  1.00  0.00     0.030 A 
BRANCH  11  13
HETATM   13  C   UNL     1      44.522 -12.098  10.742  1.00  0.00     0.293 C 
HETATM   14  O   UNL     1      44.342 -12.872  11.667  1.00  0.00    -0.259 OA
BRANCH  13  15
HETATM   15  O   UNL     1      44.312 -10.760  10.759  1.00  0.00    -0.317 OA
BRANCH  15  16
HETATM   16  C   UNL     1      42.954 -10.311  10.634  1.00  0.00     0.181 C 
BRANCH  16  17
HETATM   17  C   UNL     1      42.542  -9.489  11.850  1.00  0.00     0.053 C 
BRANCH  17  18
HETATM   18  C   UNL     1      43.473  -9.732  13.031  1.00  0.00     0.169 C 
BRANCH  18  19
HETATM   19  O   UNL     1      42.766 -10.406  14.067  1.00  0.00    -0.396 OA
HETATM   20  C   UNL     1      41.426  -9.943  14.179  1.00  0.00     0.201 C 
ENDBRANCH  18  19
ENDBRANCH  17  18
ENDBRANCH  16  17
ENDBRANCH  15  16
ENDBRANCH  13  15
ENDBRANCH  11  13
ENDBRANCH   1   7
BRANCH   6  21
HETATM   21  C   UNL     1      42.406 -12.854   5.668  1.00  0.00     0.306 C 
BRANCH  21  22
HETATM   22  N   UNL     1      41.206 -12.670   6.477  1.00  0.00     0.082 N 
HETATM   23  H   UNL     1      41.381 -11.944   7.168  1.00  0.00     0.313 HD
HETATM   24  H   UNL     1      40.457 -12.323   5.881  1.00  0.00     0.313 HD
ENDBRANCH  21  22
ENDBRANCH   6  21
BRANCH   3  25
HETATM   25  C   UNL     1      44.241 -18.370   5.440  1.00  0.00     0.256 C 
HETATM   26  O   UNL     1      44.773 -18.908   6.405  1.00  0.00    -0.267 OA
HETATM   27  N   UNL     1      44.055 -18.925   4.186  1.00  0.00    -0.323 N 
HETATM   28  H   UNL     1      43.772 -18.298   3.443  1.00  0.00     0.169 HD
BRANCH  27  29
HETATM   29  C   UNL     1      44.279 -20.268   3.812  1.00  0.00     0.037 A 
HETATM   30  C   UNL     1      44.192 -20.733   2.503  1.00  0.00     0.049 A 
HETATM   31  C   UNL     1      44.463 -22.070   2.257  1.00  0.00     0.118 A 
HETATM   32  N   UNL     1      44.811 -22.958   3.214  1.00  0.00    -0.273 NA
HETATM   33  C   UNL     1      44.887 -22.485   4.473  1.00  0.00     0.118 A 
HETATM   34  C   UNL     1      44.639 -21.165   4.818  1.00  0.00     0.049 A 
ENDBRANCH  27  29
ENDBRANCH   3  25
TORSDOF 11
ENDMDL
MODEL 5
REMARK VINA RESULT:      -7.6      1.638      2.734
REMARK  11 active torsions:
REMARK  status: ('A' for Active; 'I' for Inactive)
REMARK    1  A    between atoms: O_2  and  C_3 
REMARK    2  A    between atoms: C_3  and  C_4 
REMARK    3  A    between atoms: C_4  and  C_5 
REMARK    4  A    between atoms: C_5  and  O_6 
REMARK    5  A    between atoms: O_6  and  C_7 
REMARK    6  A    between atoms: C_7  and  C_9 
REMARK    7  A    between atoms: C_13  and  C_15 
REMARK    8  A    between atoms: C_17  and  C_23 
REMARK    9  A    between atoms: C_20  and  C_21 
REMARK   10  A    between atoms: C_21  and  N_22 
REMARK       I    between atoms: C_23  and  N_25 
REMARK   11  A    between atoms: N_25  and  C_26 
ROOT
HETATM    1  C   UNL     1      43.260 -17.929   3.978  1.00  0.00    -0.017 A 
HETATM    2  C   UNL     1      42.428 -17.190   3.110  1.00  0.00     0.030 A 
HETATM    3  C   UNL     1      42.235 -17.576   1.777  1.00  0.00     0.033 A 
HETATM    4  C   UNL     1      42.877 -18.714   1.292  1.00  0.00     0.017 A 
HETATM    5  C   UNL     1      43.707 -19.454   2.133  1.00  0.00     0.011 A 
HETATM    6  C   UNL     1      43.899 -19.087   3.482  1.00  0.00    -0.020 A 
ENDROOT
BRANCH   1   7
HETATM    7  C   UNL     1      43.371 -17.481   5.376  1.00  0.00    -0.024 A 
HETATM    8  C   UNL     1      43.184 -18.364   6.450  1.00  0.00     0.012 A 
HETATM    9  C   UNL     1      43.307 -17.921   7.770  1.00  0.00     0.002 A 
HETATM   10  C   UNL     1      43.634 -16.590   8.034  1.00  0.00     0.017 A 
HETATM   11  C   UNL     1      43.841 -15.695   6.979  1.00  0.00     0.040 A 
HETATM   12  C   UNL     1      43.702 -16.146   5.658  1.00  0.00     0.030 A 
BRANCH  11  13
HETATM   13  C   UNL     1      44.192 -14.283   7.294  1.00  0.00     0.293 C 
HETATM   14  O   UNL     1      44.728 -13.932   8.331  1.00  0.00    -0.259 OA
BRANCH  13  15
HETATM   15  O   UNL     1      43.830 -13.482   6.263  1.00  0.00    -0.317 OA
BRANCH  15  16
HETATM   16  C   UNL     1      42.517 -12.901   6.319  1.00  0.00     0.181 C 
BRANCH  16  17
HETATM   17  C   UNL     1      41.717 -13.251   5.069  1.00  0.00     0.053 C 
BRANCH  17  18
HETATM   18  C   UNL     1      40.584 -14.219   5.383  1.00  0.00     0.169 C 
BRANCH  18  19
HETATM   19  O   UNL     1      40.060 -14.754   4.171  1.00  0.00    -0.396 OA
HETATM   20  C   UNL     1      39.987 -13.769   3.149  1.00  0.00     0.201 C 
ENDBRANCH  18  19
ENDBRANCH  17  18
ENDBRANCH  16  17
ENDBRANCH  15  16
ENDBRANCH  13  15
ENDBRANCH  11  13
ENDBRANCH   1   7
BRANCH   6  21
HETATM   21  C   UNL     1      44.749 -19.999   4.341  1.00  0.00     0.306 C 
BRANCH  21  22
HETATM   22  N   UNL     1      44.720 -21.373   3.851  1.00  0.00     0.082 N 
HETATM   23  H   UNL     1      44.992 -22.000   4.605  1.00  0.00     0.313 HD
HETATM   24  H   UNL     1      43.761 -21.616   3.608  1.00  0.00     0.313 HD
ENDBRANCH  21  22
ENDBRANCH   6  21
BRANCH   3  25
HETATM   25  C   UNL     1      41.292 -16.844   0.886  1.00  0.00     0.256 C 
HETATM   26  O   UNL     1      40.115 -16.768   1.220  1.00  0.00    -0.267 OA
HETATM   27  N   UNL     1      41.856 -16.327  -0.268  1.00  0.00    -0.323 N 
HETATM   28  H   UNL     1      42.795 -16.630  -0.496  1.00  0.00     0.169 HD
BRANCH  27  29
HETATM   29  C   UNL     1      41.238 -15.467  -1.202  1.00  0.00     0.037 A 
HETATM   30  C   UNL     1      40.842 -15.862  -2.476  1.00  0.00     0.049 A 
HETATM   31  C   UNL     1      40.217 -14.932  -3.292  1.00  0.00     0.118 A 
HETATM   32  N   UNL     1      39.964 -13.656  -2.926  1.00  0.00    -0.273 NA
HETATM   33  C   UNL     1      40.358 -13.297  -1.689  1.00  0.00     0.118 A 
HETATM   34  C   UNL     1      40.986 -14.155  -0.799  1.00  0.00     0.049 A 
ENDBRANCH  27  29
ENDBRANCH   3  25
TORSDOF 11
ENDMDL
MODEL 6
REMARK VINA RESULT:      -7.5      4.094      8.722
REMARK  11 active torsions:
REMARK  status: ('A' for Active; 'I' for Inactive)
REMARK    1  A    between atoms: O_2  and  C_3 
REMARK    2  A    between atoms: C_3  and  C_4 
REMARK    3  A    between atoms: C_4  and  C_5 
REMARK    4  A    between atoms: C_5  and  O_6 
REMARK    5  A    between atoms: O_6  and  C_7 
REMARK    6  A    between atoms: C_7  and  C_9 
REMARK    7  A    between atoms: C_13  and  C_15 
REMARK    8  A    between atoms: C_17  and  C_23 
REMARK    9  A    between atoms: C_20  and  C_21 
REMARK   10  A    between atoms: C_21  and  N_22 
REMARK       I    between atoms: C_23  and  N_25 
REMARK   11  A    between atoms: N_25  and  C_26 
ROOT
HETATM    1  C   UNL     1      40.929 -15.309   3.794  1.00  0.00    -0.017 A 
HETATM    2  C   UNL     1      41.649 -16.521   3.723  1.00  0.00     0.030 A 
HETATM    3  C   UNL     1      42.114 -17.164   4.877  1.00  0.00     0.033 A 
HETATM    4  C   UNL     1      41.864 -16.600   6.126  1.00  0.00     0.017 A 
HETATM    5  C   UNL     1      41.159 -15.400   6.216  1.00  0.00     0.011 A 
HETATM    6  C   UNL     1      40.670 -14.748   5.065  1.00  0.00    -0.020 A 
ENDROOT
BRANCH   1   7
HETATM    7  C   UNL     1      40.436 -14.724   2.537  1.00  0.00    -0.024 A 
HETATM    8  C   UNL     1      39.120 -14.924   2.097  1.00  0.00     0.012 A 
HETATM    9  C   UNL     1      38.668 -14.348   0.906  1.00  0.00     0.002 A 
HETATM   10  C   UNL     1      39.524 -13.550   0.145  1.00  0.00     0.017 A 
HETATM   11  C   UNL     1      40.836 -13.322   0.572  1.00  0.00     0.040 A 
HETATM   12  C   UNL     1      41.285 -13.916   1.762  1.00  0.00     0.030 A 
BRANCH  11  13
HETATM   13  C   UNL     1      41.723 -12.463  -0.259  1.00  0.00     0.293 C 
HETATM   14  O   UNL     1      42.682 -11.851   0.181  1.00  0.00    -0.259 OA
BRANCH  13  15
HETATM   15  O   UNL     1      41.301 -12.481  -1.546  1.00  0.00    -0.317 OA
BRANCH  15  16
HETATM   16  C   UNL     1      42.204 -13.024  -2.522  1.00  0.00     0.181 C 
BRANCH  16  17
HETATM   17  C   UNL     1      41.618 -14.278  -3.162  1.00  0.00     0.053 C 
BRANCH  17  18
HETATM   18  C   UNL     1      40.169 -14.065  -3.584  1.00  0.00     0.169 C 
BRANCH  18  19
HETATM   19  O   UNL     1      39.366 -15.133  -3.091  1.00  0.00    -0.396 OA
HETATM   20  C   UNL     1      38.971 -16.020  -4.129  1.00  0.00     0.201 C 
ENDBRANCH  18  19
ENDBRANCH  17  18
ENDBRANCH  16  17
ENDBRANCH  15  16
ENDBRANCH  13  15
ENDBRANCH  11  13
ENDBRANCH   1   7
BRANCH   6  21
HETATM   21  C   UNL     1      39.843 -13.496   5.266  1.00  0.00     0.306 C 
BRANCH  21  22
HETATM   22  N   UNL     1      39.516 -13.295   6.673  1.00  0.00     0.082 N 
HETATM   23  H   UNL     1      38.837 -12.541   6.751  1.00  0.00     0.313 HD
HETATM   24  H   UNL     1      39.057 -14.132   7.028  1.00  0.00     0.313 HD
ENDBRANCH  21  22
ENDBRANCH   6  21
BRANCH   3  25
HETATM   25  C   UNL     1      42.800 -18.485   4.807  1.00  0.00     0.256 C 
HETATM   26  O   UNL     1      42.943 -19.123   5.843  1.00  0.00    -0.267 OA
HETATM   27  N   UNL     1      43.232 -18.855   3.545  1.00  0.00    -0.323 N 
HETATM   28  H   UNL     1      43.208 -18.144   2.824  1.00  0.00     0.169 HD
BRANCH  27  29
HETATM   29  C   UNL     1      43.765 -20.106   3.165  1.00  0.00     0.037 A 
HETATM   30  C   UNL     1      44.547 -20.901   3.997  1.00  0.00     0.049 A 
HETATM   31  C   UNL     1      44.988 -22.125   3.519  1.00  0.00     0.118 A 
HETATM   32  N   UNL     1      44.704 -22.602   2.288  1.00  0.00    -0.273 NA
HETATM   33  C   UNL     1      43.947 -21.814   1.500  1.00  0.00     0.118 A 
HETATM   34  C   UNL     1      43.456 -20.577   1.888  1.00  0.00     0.049 A 
ENDBRANCH  27  29
ENDBRANCH   3  25
TORSDOF 11
ENDMDL
MODEL 7
REMARK VINA RESULT:      -7.4      3.499      7.706
REMARK  11 active torsions:
REMARK  status: ('A' for Active; 'I' for Inactive)
REMARK    1  A    between atoms: O_2  and  C_3 
REMARK    2  A    between atoms: C_3  and  C_4 
REMARK    3  A    between atoms: C_4  and  C_5 
REMARK    4  A    between atoms: C_5  and  O_6 
REMARK    5  A    between atoms: O_6  and  C_7 
REMARK    6  A    between atoms: C_7  and  C_9 
REMARK    7  A    between atoms: C_13  and  C_15 
REMARK    8  A    between atoms: C_17  and  C_23 
REMARK    9  A    between atoms: C_20  and  C_21 
REMARK   10  A    between atoms: C_21  and  N_22 
REMARK       I    between atoms: C_23  and  N_25 
REMARK   11  A    between atoms: N_25  and  C_26 
ROOT
HETATM    1  C   UNL     1      42.828 -14.831   5.106  1.00  0.00    -0.017 A 
HETATM    2  C   UNL     1      42.912 -16.206   4.800  1.00  0.00     0.030 A 
HETATM    3  C   UNL     1      43.664 -17.086   5.590  1.00  0.00     0.033 A 
HETATM    4  C   UNL     1      44.346 -16.599   6.703  1.00  0.00     0.017 A 
HETATM    5  C   UNL     1      44.279 -15.242   7.018  1.00  0.00     0.011 A 
HETATM    6  C   UNL     1      43.513 -14.346   6.243  1.00  0.00    -0.020 A 
ENDROOT
BRANCH   1   7
HETATM    7  C   UNL     1      41.979 -13.984   4.253  1.00  0.00    -0.024 A 
HETATM    8  C   UNL     1      40.712 -13.552   4.670  1.00  0.00     0.012 A 
HETATM    9  C   UNL     1      39.927 -12.737   3.849  1.00  0.00     0.002 A 
HETATM   10  C   UNL     1      40.406 -12.330   2.603  1.00  0.00     0.017 A 
HETATM   11  C   UNL     1      41.674 -12.735   2.172  1.00  0.00     0.040 A 
HETATM   12  C   UNL     1      42.448 -13.564   2.997  1.00  0.00     0.030 A 
BRANCH  11  13
HETATM   13  C   UNL     1      42.158 -12.281   0.839  1.00  0.00     0.293 C 
HETATM   14  O   UNL     1      42.435 -11.123   0.576  1.00  0.00    -0.259 OA
BRANCH  13  15
HETATM   15  O   UNL     1      42.239 -13.340  -0.002  1.00  0.00    -0.317 OA
BRANCH  15  16
HETATM   16  C   UNL     1      41.077 -13.635  -0.793  1.00  0.00     0.181 C 
BRANCH  16  17
HETATM   17  C   UNL     1      40.394 -14.906  -0.299  1.00  0.00     0.053 C 
BRANCH  17  18
HETATM   18  C   UNL     1      41.402 -16.018  -0.040  1.00  0.00     0.169 C 
BRANCH  18  19
HETATM   19  O   UNL     1      41.417 -16.337   1.348  1.00  0.00    -0.396 OA
HETATM   20  C   UNL     1      40.119 -16.258   1.922  1.00  0.00     0.201 C 
ENDBRANCH  18  19
ENDBRANCH  17  18
ENDBRANCH  16  17
ENDBRANCH  15  16
ENDBRANCH  13  15
ENDBRANCH  11  13
ENDBRANCH   1   7
BRANCH   6  21
HETATM   21  C   UNL     1      43.431 -12.908   6.711  1.00  0.00     0.306 C 
BRANCH  21  22
HETATM   22  N   UNL     1      43.940 -12.761   8.070  1.00  0.00     0.082 N 
HETATM   23  H   UNL     1      44.479 -13.589   8.314  1.00  0.00     0.313 HD
HETATM   24  H   UNL     1      44.591 -11.978   8.095  1.00  0.00     0.313 HD
ENDBRANCH  21  22
ENDBRANCH   6  21
BRANCH   3  25
HETATM   25  C   UNL     1      43.685 -18.550   5.315  1.00  0.00     0.256 C 
HETATM   26  O   UNL     1      43.162 -19.303   6.129  1.00  0.00    -0.267 OA
HETATM   27  N   UNL     1      44.327 -18.919   4.145  1.00  0.00    -0.323 N 
HETATM   28  H   UNL     1      44.869 -18.205   3.674  1.00  0.00     0.169 HD
BRANCH  27  29
HETATM   29  C   UNL     1      44.360 -20.206   3.566  1.00  0.00     0.037 A 
HETATM   30  C   UNL     1      43.992 -20.474   2.251  1.00  0.00     0.049 A 
HETATM   31  C   UNL     1      44.096 -21.776   1.788  1.00  0.00     0.118 A 
HETATM   32  N   UNL     1      44.535 -22.811   2.536  1.00  0.00    -0.273 NA
HETATM   33  C   UNL     1      44.884 -22.527   3.807  1.00  0.00     0.118 A 
HETATM   34  C   UNL     1      44.819 -21.257   4.359  1.00  0.00     0.049 A 
ENDBRANCH  27  29
ENDBRANCH   3  25
TORSDOF 11
ENDMDL
MODEL 8
REMARK VINA RESULT:      -7.4      3.070      4.328
REMARK  11 active torsions:
REMARK  status: ('A' for Active; 'I' for Inactive)
REMARK    1  A    between atoms: O_2  and  C_3 
REMARK    2  A    between atoms: C_3  and  C_4 
REMARK    3  A    between atoms: C_4  and  C_5 
REMARK    4  A    between atoms: C_5  and  O_6 
REMARK    5  A    between atoms: O_6  and  C_7 
REMARK    6  A    between atoms: C_7  and  C_9 
REMARK    7  A    between atoms: C_13  and  C_15 
REMARK    8  A    between atoms: C_17  and  C_23 
REMARK    9  A    between atoms: C_20  and  C_21 
REMARK   10  A    between atoms: C_21  and  N_22 
REMARK       I    between atoms: C_23  and  N_25 
REMARK   11  A    between atoms: N_25  and  C_26 
ROOT
HETATM    1  C   UNL     1      40.820 -13.783   4.740  1.00  0.00    -0.017 A 
HETATM    2  C   UNL     1      40.659 -14.217   3.407  1.00  0.00     0.030 A 
HETATM    3  C   UNL     1      39.744 -13.602   2.543  1.00  0.00     0.033 A 
HETATM    4  C   UNL     1      38.972 -12.538   3.005  1.00  0.00     0.017 A 
HETATM    5  C   UNL     1      39.113 -12.098   4.321  1.00  0.00     0.011 A 
HETATM    6  C   UNL     1      40.041 -12.696   5.198  1.00  0.00    -0.020 A 
ENDROOT
BRANCH   1   7
HETATM    7  C   UNL     1      41.837 -14.453   5.567  1.00  0.00    -0.024 A 
HETATM    8  C   UNL     1      41.703 -15.793   5.958  1.00  0.00     0.012 A 
HETATM    9  C   UNL     1      42.687 -16.414   6.733  1.00  0.00     0.002 A 
HETATM   10  C   UNL     1      43.828 -15.706   7.115  1.00  0.00     0.017 A 
HETATM   11  C   UNL     1      43.992 -14.374   6.722  1.00  0.00     0.040 A 
HETATM   12  C   UNL     1      42.992 -13.755   5.957  1.00  0.00     0.030 A 
BRANCH  11  13
HETATM   13  C   UNL     1      45.221 -13.647   7.142  1.00  0.00     0.293 C 
HETATM   14  O   UNL     1      46.142 -13.380   6.389  1.00  0.00    -0.259 OA
BRANCH  13  15
HETATM   15  O   UNL     1      45.142 -13.339   8.459  1.00  0.00    -0.317 OA
BRANCH  15  16
HETATM   16  C   UNL     1      45.752 -12.108   8.879  1.00  0.00     0.181 C 
BRANCH  16  17
HETATM   17  C   UNL     1      44.883 -11.399   9.912  1.00  0.00     0.053 C 
BRANCH  17  18
HETATM   18  C   UNL     1      44.484 -12.336  11.045  1.00  0.00     0.169 C 
BRANCH  18  19
HETATM   19  O   UNL     1      43.367 -11.793  11.744  1.00  0.00    -0.396 OA
HETATM   20  C   UNL     1      42.544 -11.006  10.894  1.00  0.00     0.201 C 
ENDBRANCH  18  19
ENDBRANCH  17  18
ENDBRANCH  16  17
ENDBRANCH  15  16
ENDBRANCH  13  15
ENDBRANCH  11  13
ENDBRANCH   1   7
BRANCH   6  21
HETATM   21  C   UNL     1      40.185 -12.097   6.581  1.00  0.00     0.306 C 
BRANCH  21  22
HETATM   22  N   UNL     1      39.301 -12.751   7.540  1.00  0.00     0.082 N 
HETATM   23  H   UNL     1      39.420 -13.759   7.466  1.00  0.00     0.313 HD
HETATM   24  H   UNL     1      39.591 -12.497   8.482  1.00  0.00     0.313 HD
ENDBRANCH  21  22
ENDBRANCH   6  21
BRANCH   3  25
HETATM   25  C   UNL     1      39.635 -14.005   1.113  1.00  0.00     0.256 C 
HETATM   26  O   UNL     1      38.519 -14.202   0.647  1.00  0.00    -0.267 OA
HETATM   27  N   UNL     1      40.841 -14.137   0.447  1.00  0.00    -0.323 N 
HETATM   28  H   UNL     1      41.681 -14.123   1.012  1.00  0.00     0.169 HD
BRANCH  27  29
HETATM   29  C   UNL     1      41.027 -14.353  -0.936  1.00  0.00     0.037 A 
HETATM   30  C   UNL     1      40.930 -15.600  -1.546  1.00  0.00     0.049 A 
HETATM   31  C   UNL     1      41.103 -15.679  -2.919  1.00  0.00     0.118 A 
HETATM   32  N   UNL     1      41.362 -14.615  -3.710  1.00  0.00    -0.273 NA
HETATM   33  C   UNL     1      41.453 -13.419  -3.096  1.00  0.00     0.118 A 
HETATM   34  C   UNL     1      41.291 -13.238  -1.732  1.00  0.00     0.049 A 
ENDBRANCH  27  29
ENDBRANCH   3  25
TORSDOF 11
ENDMDL
MODEL 9
REMARK VINA RESULT:      -7.4      2.959      8.749
REMARK  11 active torsions:
REMARK  status: ('A' for Active; 'I' for Inactive)
REMARK    1  A    between atoms: O_2  and  C_3 
REMARK    2  A    between atoms: C_3  and  C_4 
REMARK    3  A    between atoms: C_4  and  C_5 
REMARK    4  A    between atoms: C_5  and  O_6 
REMARK    5  A    between atoms: O_6  and  C_7 
REMARK    6  A    between atoms: C_7  and  C_9 
REMARK    7  A    between atoms: C_13  and  C_15 
REMARK    8  A    between atoms: C_17  and  C_23 
REMARK    9  A    between atoms: C_20  and  C_21 
REMARK   10  A    between atoms: C_21  and  N_22 
REMARK       I    between atoms: C_23  and  N_25 
REMARK   11  A    between atoms: N_25  and  C_26 
ROOT
HETATM    1  C   UNL     1      43.544 -17.500   4.165  1.00  0.00    -0.017 A 
HETATM    2  C   UNL     1      43.595 -16.469   5.128  1.00  0.00     0.030 A 
HETATM    3  C   UNL     1      44.142 -16.684   6.400  1.00  0.00     0.033 A 
HETATM    4  C   UNL     1      44.647 -17.940   6.728  1.00  0.00     0.017 A 
HETATM    5  C   UNL     1      44.600 -18.973   5.791  1.00  0.00     0.011 A 
HETATM    6  C   UNL     1      44.068 -18.768   4.501  1.00  0.00    -0.020 A 
ENDROOT
BRANCH   1   7
HETATM    7  C   UNL     1      42.996 -17.178   2.837  1.00  0.00    -0.024 A 
HETATM    8  C   UNL     1      43.588 -17.656   1.659  1.00  0.00     0.012 A 
HETATM    9  C   UNL     1      43.045 -17.349   0.409  1.00  0.00     0.002 A 
HETATM   10  C   UNL     1      41.889 -16.570   0.320  1.00  0.00     0.017 A 
HETATM   11  C   UNL     1      41.271 -16.096   1.482  1.00  0.00     0.040 A 
HETATM   12  C   UNL     1      41.833 -16.398   2.732  1.00  0.00     0.030 A 
BRANCH  11  13
HETATM   13  C   UNL     1      40.038 -15.271   1.354  1.00  0.00     0.293 C 
HETATM   14  O   UNL     1      38.971 -15.562   1.867  1.00  0.00    -0.259 OA
BRANCH  13  15
HETATM   15  O   UNL     1      40.297 -14.178   0.598  1.00  0.00    -0.317 OA
BRANCH  15  16
HETATM   16  C   UNL     1      39.539 -14.027  -0.612  1.00  0.00     0.181 C 
BRANCH  16  17
HETATM   17  C   UNL     1      40.464 -13.838  -1.810  1.00  0.00     0.053 C 
BRANCH  17  18
HETATM   18  C   UNL     1      39.701 -13.927  -3.125  1.00  0.00     0.169 C 
BRANCH  18  19
HETATM   19  O   UNL     1      40.228 -14.989  -3.914  1.00  0.00    -0.396 OA
HETATM   20  C   UNL     1      39.530 -16.208  -3.693  1.00  0.00     0.201 C 
ENDBRANCH  18  19
ENDBRANCH  17  18
ENDBRANCH  16  17
ENDBRANCH  15  16
ENDBRANCH  13  15
ENDBRANCH  11  13
ENDBRANCH   1   7
BRANCH   6  21
HETATM   21  C   UNL     1      44.137 -19.923   3.524  1.00  0.00     0.306 C 
BRANCH  21  22
HETATM   22  N   UNL     1      45.086 -20.939   3.966  1.00  0.00     0.082 N 
HETATM   23  H   UNL     1      45.300 -20.786   4.950  1.00  0.00     0.313 HD
HETATM   24  H   UNL     1      44.641 -21.853   3.909  1.00  0.00     0.313 HD
ENDBRANCH  21  22
ENDBRANCH   6  21
BRANCH   3  25
HETATM   25  C   UNL     1      44.272 -15.574   7.386  1.00  0.00     0.256 C 
HETATM   26  O   UNL     1      43.895 -15.770   8.535  1.00  0.00    -0.267 OA
HETATM   27  N   UNL     1      44.803 -14.400   6.880  1.00  0.00    -0.323 N 
HETATM   28  H   UNL     1      44.892 -14.332   5.874  1.00  0.00     0.169 HD
BRANCH  27  29
HETATM   29  C   UNL     1      45.178 -13.254   7.616  1.00  0.00     0.037 A 
HETATM   30  C   UNL     1      44.346 -12.611   8.527  1.00  0.00     0.049 A 
HETATM   31  C   UNL     1      44.840 -11.512   9.211  1.00  0.00     0.118 A 
HETATM   32  N   UNL     1      46.087 -11.019   9.049  1.00  0.00    -0.273 NA
HETATM   33  C   UNL     1      46.873 -11.657   8.160  1.00  0.00     0.118 A 
HETATM   34  C   UNL     1      46.472 -12.767   7.432  1.00  0.00     0.049 A 
ENDBRANCH  27  29
ENDBRANCH   3  25
TORSDOF 11
ENDMDL
MODEL 10
REMARK VINA RESULT:      -7.4      3.934      9.274
REMARK  11 active torsions:
REMARK  status: ('A' for Active; 'I' for Inactive)
REMARK    1  A    between atoms: O_2  and  C_3 
REMARK    2  A    between atoms: C_3  and  C_4 
REMARK    3  A    between atoms: C_4  and  C_5 
REMARK    4  A    between atoms: C_5  and  O_6 
REMARK    5  A    between atoms: O_6  and  C_7 
REMARK    6  A    between atoms: C_7  and  C_9 
REMARK    7  A    between atoms: C_13  and  C_15 
REMARK    8  A    between atoms: C_17  and  C_23 
REMARK    9  A    between atoms: C_20  and  C_21 
REMARK   10  A    between atoms: C_21  and  N_22 
REMARK       I    between atoms: C_23  and  N_25 
REMARK   11  A    between atoms: N_25  and  C_26 
ROOT
HETATM    1  C   UNL     1      40.775 -14.769   2.893  1.00  0.00    -0.017 A 
HETATM    2  C   UNL     1      41.215 -16.107   2.980  1.00  0.00     0.030 A 
HETATM    3  C   UNL     1      42.017 -16.545   4.042  1.00  0.00     0.033 A 
HETATM    4  C   UNL     1      42.392 -15.644   5.037  1.00  0.00     0.017 A 
HETATM    5  C   UNL     1      41.970 -14.317   4.965  1.00  0.00     0.011 A 
HETATM    6  C   UNL     1      41.150 -13.864   3.911  1.00  0.00    -0.020 A 
ENDROOT
BRANCH   1   7
HETATM    7  C   UNL     1      39.896 -14.402   1.770  1.00  0.00    -0.024 A 
HETATM    8  C   UNL     1      38.504 -14.555   1.842  1.00  0.00     0.012 A 
HETATM    9  C   UNL     1      37.687 -14.189   0.769  1.00  0.00     0.002 A 
HETATM   10  C   UNL     1      38.251 -13.649  -0.388  1.00  0.00     0.017 A 
HETATM   11  C   UNL     1      39.636 -13.470  -0.477  1.00  0.00     0.040 A 
HETATM   12  C   UNL     1      40.449 -13.855   0.600  1.00  0.00     0.030 A 
BRANCH  11  13
HETATM   13  C   UNL     1      40.207 -12.889  -1.722  1.00  0.00     0.293 C 
HETATM   14  O   UNL     1      39.759 -11.898  -2.276  1.00  0.00    -0.259 OA
BRANCH  13  15
HETATM   15  O   UNL     1      41.275 -13.620  -2.120  1.00  0.00    -0.317 OA
BRANCH  15  16
HETATM   16  C   UNL     1      41.014 -14.947  -2.603  1.00  0.00     0.181 C 
BRANCH  16  17
HETATM   17  C   UNL     1      40.105 -14.908  -3.827  1.00  0.00     0.053 C 
BRANCH  17  18
HETATM   18  C   UNL     1      39.250 -16.164  -3.929  1.00  0.00     0.169 C 
BRANCH  18  19
HETATM   19  O   UNL     1      38.009 -15.849  -4.554  1.00  0.00    -0.396 OA
HETATM   20  C   UNL     1      37.339 -14.785  -3.892  1.00  0.00     0.201 C 
ENDBRANCH  18  19
ENDBRANCH  17  18
ENDBRANCH  16  17
ENDBRANCH  15  16
ENDBRANCH  13  15
ENDBRANCH  11  13
ENDBRANCH   1   7
BRANCH   6  21
HETATM   21  C   UNL     1      40.672 -12.428   3.963  1.00  0.00     0.306 C 
BRANCH  21  22
HETATM   22  N   UNL     1      41.705 -11.506   3.504  1.00  0.00     0.082 N 
HETATM   23  H   UNL     1      41.517 -10.581   3.884  1.00  0.00     0.313 HD
HETATM   24  H   UNL     1      42.601 -11.797   3.890  1.00  0.00     0.313 HD
ENDBRANCH  21  22
ENDBRANCH   6  21
BRANCH   3  25
HETATM   25  C   UNL     1      42.412 -17.975   4.177  1.00  0.00     0.256 C 
HETATM   26  O   UNL     1      41.971 -18.613   5.127  1.00  0.00    -0.267 OA
HETATM   27  N   UNL     1      43.273 -18.442   3.199  1.00  0.00    -0.323 N 
HETATM   28  H   UNL     1      43.694 -17.751   2.591  1.00  0.00     0.169 HD
BRANCH  27  29
HETATM   29  C   UNL     1      43.680 -19.778   2.995  1.00  0.00     0.037 A 
HETATM   30  C   UNL     1      43.359 -20.522   1.864  1.00  0.00     0.049 A 
HETATM   31  C   UNL     1      43.842 -21.817   1.765  1.00  0.00     0.118 A 
HETATM   32  N   UNL     1      44.612 -22.410   2.704  1.00  0.00    -0.273 NA
HETATM   33  C   UNL     1      44.908 -21.670   3.791  1.00  0.00     0.118 A 
HETATM   34  C   UNL     1      44.475 -20.367   3.979  1.00  0.00     0.049 A 
ENDBRANCH  27  29
ENDBRANCH   3  25
TORSDOF 11
ENDMDL
