MODEL 1
REMARK VINA RESULT:      -7.9      0.000      0.000
REMARK  7 active torsions:
REMARK  status: ('A' for Active; 'I' for Inactive)
REMARK    1  A    between atoms: C_4  and  C_5 
REMARK    2  A    between atoms: C_10  and  C_11 
REMARK       I    between atoms: C_11  and  N_12 
REMARK    3  A    between atoms: N_12  and  C_13 
REMARK    4  A    between atoms: C_13  and  C_14 
REMARK    5  A    between atoms: C_14  and  C_15 
REMARK    6  A    between atoms: C_15  and  N_16 
REMARK    7  A    between atoms: C_26  and  C_27 
ROOT
HETATM    1  C   UNL     1      41.245 -16.510   4.586  1.00  0.00     0.125 C 
HETATM    2  N   UNL     1      40.490 -15.612   3.708  1.00  0.00    -0.365 N 
HETATM    3  C   UNL     1      40.704 -15.545   2.373  1.00  0.00     0.141 A 
HETATM    4  N   UNL     1      41.542 -16.421   1.742  1.00  0.00    -0.238 N 
HETATM    5  N   UNL     1      41.550 -16.305   0.398  1.00  0.00    -0.163 NA
HETATM    6  C   UNL     1      40.762 -15.225   0.167  1.00  0.00     0.165 A 
HETATM    7  C   UNL     1      40.224 -14.730   1.380  1.00  0.00     0.092 A 
HETATM    8 BR   UNL     1      39.038 -13.295   1.580  1.00  0.00    -0.044 Br
HETATM    9  C   UNL     1      42.324 -17.435   2.427  1.00  0.00     0.221 C 
HETATM   10  C   UNL     1      41.689 -17.755   3.790  1.00  0.00     0.067 C 
HETATM   11  H   UNL     1      40.070 -14.817   4.193  1.00  0.00     0.162 HD
ENDROOT
BRANCH   6  12
HETATM   12  C   UNL     1      40.547 -14.758  -1.207  1.00  0.00     0.273 C 
HETATM   13  N   UNL     1      40.241 -15.770  -2.096  1.00  0.00    -0.355 N 
HETATM   14  H   UNL     1      40.302 -16.713  -1.703  1.00  0.00     0.162 HD
HETATM   15  O   UNL     1      40.577 -13.582  -1.574  1.00  0.00    -0.266 OA
BRANCH  13  16
HETATM   16  C   UNL     1      40.134 -15.575  -3.520  1.00  0.00     0.124 C 
BRANCH  16  17
HETATM   17  C   UNL     1      38.761 -15.932  -4.088  1.00  0.00     0.047 C 
BRANCH  17  18
HETATM   18  C   UNL     1      37.555 -15.179  -3.523  1.00  0.00     0.236 C 
BRANCH  18  19
HETATM   19  N   UNL     1      37.070 -14.049  -4.390  1.00  0.00    -0.067 N 
HETATM   20  H   UNL     1      37.736 -13.979  -5.190  1.00  0.00     0.280 HD
HETATM   21  C   UNL     1      35.661 -14.209  -4.931  1.00  0.00     0.261 C 
HETATM   22  C   UNL     1      35.295 -13.000  -5.800  1.00  0.00     0.195 C 
HETATM   23  O   UNL     1      35.423 -11.778  -5.065  1.00  0.00    -0.388 OA
HETATM   24  C   UNL     1      36.771 -11.576  -4.624  1.00  0.00     0.195 C 
HETATM   25  C   UNL     1      37.208 -12.702  -3.681  1.00  0.00     0.261 C 
ENDBRANCH  18  19
ENDBRANCH  17  18
ENDBRANCH  16  17
ENDBRANCH  13  16
ENDBRANCH   6  12
BRANCH   9  26
HETATM   26  C   UNL     1      43.770 -16.998   2.500  1.00  0.00     0.409 C 
HETATM   27  F   UNL     1      43.929 -15.670   2.647  1.00  0.00    -0.169 F 
HETATM   28  F   UNL     1      44.391 -17.603   3.543  1.00  0.00    -0.169 F 
HETATM   29  F   UNL     1      44.451 -17.363   1.387  1.00  0.00    -0.169 F 
ENDBRANCH   9  26
BRANCH   1  30
HETATM   30  C   UNL     1      42.357 -15.884   5.404  1.00  0.00     0.005 A 
HETATM   31  S   UNL     1      42.642 -14.187   5.370  1.00  0.00    -0.104 SA
HETATM   32  C   UNL     1      43.918 -14.303   6.500  1.00  0.00     0.050 A 
HETATM   33  C   UNL     1      44.111 -15.595   6.929  1.00  0.00     0.008 A 
HETATM   34  C   UNL     1      43.205 -16.503   6.310  1.00  0.00     0.017 A 
ENDBRANCH   1  30
TORSDOF 7
ENDMDL
MODEL 2
REMARK VINA RESULT:      -7.6      2.723      3.853
REMARK  7 active torsions:
REMARK  status: ('A' for Active; 'I' for Inactive)
REMARK    1  A    between atoms: C_4  and  C_5 
REMARK    2  A    between atoms: C_10  and  C_11 
REMARK       I    between atoms: C_11  and  N_12 
REMARK    3  A    between atoms: N_12  and  C_13 
REMARK    4  A    between atoms: C_13  and  C_14 
REMARK    5  A    between atoms: C_14  and  C_15 
REMARK    6  A    between atoms: C_15  and  N_16 
REMARK    7  A    between atoms: C_26  and  C_27 
ROOT
HETATM    1  C   UNL     1      41.313 -16.458   4.838  1.00  0.00     0.125 C 
HETATM    2  N   UNL     1      40.546 -15.542   3.988  1.00  0.00    -0.365 N 
HETATM    3  C   UNL     1      40.684 -15.507   2.641  1.00  0.00     0.141 A 
HETATM    4  N   UNL     1      41.445 -16.431   1.980  1.00  0.00    -0.238 N 
HETATM    5  N   UNL     1      41.378 -16.337   0.636  1.00  0.00    -0.163 NA
HETATM    6  C   UNL     1      40.626 -15.229   0.430  1.00  0.00     0.165 A 
HETATM    7  C   UNL     1      40.182 -14.689   1.662  1.00  0.00     0.092 A 
HETATM    8 BR   UNL     1      39.073 -13.199   1.904  1.00  0.00    -0.044 Br
HETATM    9  C   UNL     1      42.221 -17.466   2.638  1.00  0.00     0.221 C 
HETATM   10  C   UNL     1      41.655 -17.735   4.042  1.00  0.00     0.067 C 
HETATM   11  H   UNL     1      40.191 -14.721   4.481  1.00  0.00     0.162 HD
ENDROOT
BRANCH   6  12
HETATM   12  C   UNL     1      40.350 -14.776  -0.938  1.00  0.00     0.273 C 
HETATM   13  N   UNL     1      41.412 -14.946  -1.804  1.00  0.00    -0.355 N 
HETATM   14  H   UNL     1      42.275 -15.269  -1.358  1.00  0.00     0.162 HD
HETATM   15  O   UNL     1      39.274 -14.326  -1.338  1.00  0.00    -0.266 OA
BRANCH  13  16
HETATM   16  C   UNL     1      41.430 -14.442  -3.154  1.00  0.00     0.124 C 
BRANCH  16  17
HETATM   17  C   UNL     1      41.901 -12.992  -3.263  1.00  0.00     0.047 C 
BRANCH  17  18
HETATM   18  C   UNL     1      42.846 -12.482  -2.173  1.00  0.00     0.236 C 
BRANCH  18  19
HETATM   19  N   UNL     1      42.416 -11.187  -1.540  1.00  0.00    -0.067 N 
HETATM   20  H   UNL     1      41.802 -10.704  -2.231  1.00  0.00     0.280 HD
HETATM   21  C   UNL     1      41.669 -11.327  -0.226  1.00  0.00     0.261 C 
HETATM   22  C   UNL     1      41.284  -9.942   0.306  1.00  0.00     0.195 C 
HETATM   23  O   UNL     1      42.438  -9.110   0.463  1.00  0.00    -0.388 OA
HETATM   24  C   UNL     1      43.103  -8.901  -0.789  1.00  0.00     0.195 C 
HETATM   25  C   UNL     1      43.596 -10.230  -1.370  1.00  0.00     0.261 C 
ENDBRANCH  18  19
ENDBRANCH  17  18
ENDBRANCH  16  17
ENDBRANCH  13  16
ENDBRANCH   6  12
BRANCH   9  26
HETATM   26  C   UNL     1      43.687 -17.092   2.618  1.00  0.00     0.409 C 
HETATM   27  F   UNL     1      43.912 -15.772   2.746  1.00  0.00    -0.169 F 
HETATM   28  F   UNL     1      44.345 -17.719   3.625  1.00  0.00    -0.169 F 
HETATM   29  F   UNL     1      44.280 -17.492   1.468  1.00  0.00    -0.169 F 
ENDBRANCH   9  26
BRANCH   1  30
HETATM   30  C   UNL     1      42.498 -15.868   5.577  1.00  0.00     0.005 A 
HETATM   31  S   UNL     1      42.850 -14.185   5.498  1.00  0.00    -0.104 SA
HETATM   32  C   UNL     1      44.185 -14.339   6.551  1.00  0.00     0.050 A 
HETATM   33  C   UNL     1      44.350 -15.632   6.989  1.00  0.00     0.008 A 
HETATM   34  C   UNL     1      43.372 -16.509   6.441  1.00  0.00     0.017 A 
ENDBRANCH   1  30
TORSDOF 7
ENDMDL
MODEL 3
REMARK VINA RESULT:      -7.5      1.925      2.852
REMARK  7 active torsions:
REMARK  status: ('A' for Active; 'I' for Inactive)
REMARK    1  A    between atoms: C_4  and  C_5 
REMARK    2  A    between atoms: C_10  and  C_11 
REMARK       I    between atoms: C_11  and  N_12 
REMARK    3  A    between atoms: N_12  and  C_13 
REMARK    4  A    between atoms: C_13  and  C_14 
REMARK    5  A    between atoms: C_14  and  C_15 
REMARK    6  A    between atoms: C_15  and  N_16 
REMARK    7  A    between atoms: C_26  and  C_27 
ROOT
HETATM    1  C   UNL     1      41.320 -16.441   4.763  1.00  0.00     0.125 C 
HETATM    2  N   UNL     1      40.594 -15.499   3.907  1.00  0.00    -0.365 N 
HETATM    3  C   UNL     1      40.760 -15.453   2.564  1.00  0.00     0.141 A 
HETATM    4  N   UNL     1      41.512 -16.388   1.908  1.00  0.00    -0.238 N 
HETATM    5  N   UNL     1      41.476 -16.280   0.565  1.00  0.00    -0.163 NA
HETATM    6  C   UNL     1      40.755 -15.151   0.355  1.00  0.00     0.165 A 
HETATM    7  C   UNL     1      40.298 -14.614   1.583  1.00  0.00     0.092 A 
HETATM    8 BR   UNL     1      39.221 -13.100   1.817  1.00  0.00    -0.044 Br
HETATM    9  C   UNL     1      42.249 -17.449   2.572  1.00  0.00     0.221 C 
HETATM   10  C   UNL     1      41.647 -17.718   3.961  1.00  0.00     0.067 C 
HETATM   11  H   UNL     1      40.248 -14.674   4.401  1.00  0.00     0.162 HD
ENDROOT
BRANCH   6  12
HETATM   12  C   UNL     1      40.519 -14.678  -1.014  1.00  0.00     0.273 C 
HETATM   13  N   UNL     1      39.189 -14.690  -1.384  1.00  0.00    -0.355 N 
HETATM   14  H   UNL     1      38.562 -15.117  -0.698  1.00  0.00     0.162 HD
HETATM   15  O   UNL     1      41.386 -14.254  -1.781  1.00  0.00    -0.266 OA
BRANCH  13  16
HETATM   16  C   UNL     1      38.731 -14.413  -2.722  1.00  0.00     0.124 C 
BRANCH  16  17
HETATM   17  C   UNL     1      37.937 -13.112  -2.843  1.00  0.00     0.047 C 
BRANCH  17  18
HETATM   18  C   UNL     1      38.648 -11.919  -3.486  1.00  0.00     0.236 C 
BRANCH  18  19
HETATM   19  N   UNL     1      40.103 -11.800  -3.127  1.00  0.00    -0.067 N 
HETATM   20  H   UNL     1      40.395 -12.726  -2.747  1.00  0.00     0.280 HD
HETATM   21  C   UNL     1      41.024 -11.423  -4.273  1.00  0.00     0.261 C 
HETATM   22  C   UNL     1      42.471 -11.343  -3.777  1.00  0.00     0.195 C 
HETATM   23  O   UNL     1      42.596 -10.411  -2.697  1.00  0.00    -0.388 OA
HETATM   24  C   UNL     1      41.796 -10.806  -1.575  1.00  0.00     0.195 C 
HETATM   25  C   UNL     1      40.312 -10.843  -1.954  1.00  0.00     0.261 C 
ENDBRANCH  18  19
ENDBRANCH  17  18
ENDBRANCH  16  17
ENDBRANCH  13  16
ENDBRANCH   6  12
BRANCH   9  26
HETATM   26  C   UNL     1      43.724 -17.111   2.586  1.00  0.00     0.409 C 
HETATM   27  F   UNL     1      43.978 -15.799   2.737  1.00  0.00    -0.169 F 
HETATM   28  F   UNL     1      44.345 -17.767   3.597  1.00  0.00    -0.169 F 
HETATM   29  F   UNL     1      44.330 -17.509   1.442  1.00  0.00    -0.169 F 
ENDBRANCH   9  26
BRANCH   1  30
HETATM   30  C   UNL     1      42.502 -15.888   5.533  1.00  0.00     0.005 A 
HETATM   31  S   UNL     1      42.888 -14.211   5.490  1.00  0.00    -0.104 SA
HETATM   32  C   UNL     1      44.202 -14.409   6.563  1.00  0.00     0.050 A 
HETATM   33  C   UNL     1      44.335 -15.713   6.980  1.00  0.00     0.008 A 
HETATM   34  C   UNL     1      43.349 -16.561   6.399  1.00  0.00     0.017 A 
ENDBRANCH   1  30
TORSDOF 7
ENDMDL
MODEL 4
REMARK VINA RESULT:      -7.5      5.503     10.007
REMARK  7 active torsions:
REMARK  status: ('A' for Active; 'I' for Inactive)
REMARK    1  A    between atoms: C_4  and  C_5 
REMARK    2  A    between atoms: C_10  and  C_11 
REMARK       I    between atoms: C_11  and  N_12 
REMARK    3  A    between atoms: N_12  and  C_13 
REMARK    4  A    between atoms: C_13  and  C_14 
REMARK    5  A    between atoms: C_14  and  C_15 
REMARK    6  A    between atoms: C_15  and  N_16 
REMARK    7  A    between atoms: C_26  and  C_27 
ROOT
HETATM    1  C   UNL     1      42.809 -14.138   2.450  1.00  0.00     0.125 C 
HETATM    2  N   UNL     1      41.706 -13.202   2.686  1.00  0.00    -0.365 N 
HETATM    3  C   UNL     1      41.356 -12.783   3.926  1.00  0.00     0.141 A 
HETATM    4  N   UNL     1      42.108 -13.100   5.023  1.00  0.00    -0.238 N 
HETATM    5  N   UNL     1      41.698 -12.504   6.161  1.00  0.00    -0.163 NA
HETATM    6  C   UNL     1      40.561 -11.864   5.795  1.00  0.00     0.165 A 
HETATM    7  C   UNL     1      40.322 -12.023   4.408  1.00  0.00     0.092 A 
HETATM    8 BR   UNL     1      38.914 -11.285   3.417  1.00  0.00    -0.044 Br
HETATM    9  C   UNL     1      43.282 -13.953   4.985  1.00  0.00     0.221 C 
HETATM   10  C   UNL     1      43.866 -13.979   3.563  1.00  0.00     0.067 C 
HETATM   11  H   UNL     1      41.020 -13.173   1.931  1.00  0.00     0.162 HD
ENDROOT
BRANCH   6  12
HETATM   12  C   UNL     1      39.793 -11.110   6.792  1.00  0.00     0.273 C 
HETATM   13  N   UNL     1      40.050 -11.489   8.094  1.00  0.00    -0.355 N 
HETATM   14  H   UNL     1      40.661 -12.305   8.186  1.00  0.00     0.162 HD
HETATM   15  O   UNL     1      39.017 -10.184   6.544  1.00  0.00    -0.266 OA
BRANCH  13  16
HETATM   16  C   UNL     1      39.311 -10.997   9.230  1.00  0.00     0.124 C 
BRANCH  16  17
HETATM   17  C   UNL     1      40.112 -10.995  10.531  1.00  0.00     0.047 C 
BRANCH  17  18
HETATM   18  C   UNL     1      41.532 -10.427  10.475  1.00  0.00     0.236 C 
BRANCH  18  19
HETATM   19  N   UNL     1      42.609 -11.468  10.341  1.00  0.00    -0.067 N 
HETATM   20  H   UNL     1      42.127 -12.386  10.225  1.00  0.00     0.280 HD
HETATM   21  C   UNL     1      43.567 -11.262   9.182  1.00  0.00     0.261 C 
HETATM   22  C   UNL     1      44.604 -12.390   9.154  1.00  0.00     0.195 C 
HETATM   23  O   UNL     1      45.316 -12.467  10.394  1.00  0.00    -0.388 OA
HETATM   24  C   UNL     1      44.430 -12.749  11.484  1.00  0.00     0.195 C 
HETATM   25  C   UNL     1      43.393 -11.632  11.643  1.00  0.00     0.261 C 
ENDBRANCH  18  19
ENDBRANCH  17  18
ENDBRANCH  16  17
ENDBRANCH  13  16
ENDBRANCH   6  12
BRANCH   9  26
HETATM   26  C   UNL     1      42.937 -15.316   5.542  1.00  0.00     0.409 C 
HETATM   27  F   UNL     1      41.656 -15.675   5.345  1.00  0.00    -0.169 F 
HETATM   28  F   UNL     1      43.721 -16.267   4.975  1.00  0.00    -0.169 F 
HETATM   29  F   UNL     1      43.170 -15.375   6.875  1.00  0.00    -0.169 F 
ENDBRANCH   9  26
BRANCH   1  30
HETATM   30  C   UNL     1      42.429 -15.579   2.174  1.00  0.00     0.005 A 
HETATM   31  S   UNL     1      43.627 -16.765   1.823  1.00  0.00    -0.104 SA
HETATM   32  C   UNL     1      42.465 -18.011   1.701  1.00  0.00     0.050 A 
HETATM   33  C   UNL     1      41.192 -17.555   1.954  1.00  0.00     0.008 A 
HETATM   34  C   UNL     1      41.173 -16.160   2.240  1.00  0.00     0.017 A 
ENDBRANCH   1  30
TORSDOF 7
ENDMDL
MODEL 5
REMARK VINA RESULT:      -7.3      1.911      2.693
REMARK  7 active torsions:
REMARK  status: ('A' for Active; 'I' for Inactive)
REMARK    1  A    between atoms: C_4  and  C_5 
REMARK    2  A    between atoms: C_10  and  C_11 
REMARK       I    between atoms: C_11  and  N_12 
REMARK    3  A    between atoms: N_12  and  C_13 
REMARK    4  A    between atoms: C_13  and  C_14 
REMARK    5  A    between atoms: C_14  and  C_15 
REMARK    6  A    between atoms: C_15  and  N_16 
REMARK    7  A    between atoms: C_26  and  C_27 
ROOT
HETATM    1  C   UNL     1      41.352 -17.347   4.375  1.00  0.00     0.125 C 
HETATM    2  N   UNL     1      40.765 -16.043   4.058  1.00  0.00    -0.365 N 
HETATM    3  C   UNL     1      41.003 -15.399   2.891  1.00  0.00     0.141 A 
HETATM    4  N   UNL     1      41.691 -15.999   1.874  1.00  0.00    -0.238 N 
HETATM    5  N   UNL     1      41.733 -15.277   0.736  1.00  0.00    -0.163 NA
HETATM    6  C   UNL     1      41.137 -14.108   1.077  1.00  0.00     0.165 A 
HETATM    7  C   UNL     1      40.674 -14.155   2.415  1.00  0.00     0.092 A 
HETATM    8 BR   UNL     1      39.740 -12.814   3.330  1.00  0.00    -0.044 Br
HETATM    9  C   UNL     1      42.287 -17.320   1.965  1.00  0.00     0.221 C 
HETATM   10  C   UNL     1      41.593 -18.134   3.069  1.00  0.00     0.067 C 
HETATM   11  H   UNL     1      40.478 -15.509   4.880  1.00  0.00     0.162 HD
ENDROOT
BRANCH   6  12
HETATM   12  C   UNL     1      41.017 -13.032   0.088  1.00  0.00     0.273 C 
HETATM   13  N   UNL     1      42.126 -12.898  -0.724  1.00  0.00    -0.355 N 
HETATM   14  H   UNL     1      42.916 -13.494  -0.464  1.00  0.00     0.162 HD
HETATM   15  O   UNL     1      40.023 -12.321  -0.077  1.00  0.00    -0.266 OA
BRANCH  13  16
HETATM   16  C   UNL     1      42.300 -11.821  -1.666  1.00  0.00     0.124 C 
BRANCH  16  17
HETATM   17  C   UNL     1      42.191 -12.258  -3.126  1.00  0.00     0.047 C 
BRANCH  17  18
HETATM   18  C   UNL     1      40.937 -11.828  -3.891  1.00  0.00     0.236 C 
BRANCH  18  19
HETATM   19  N   UNL     1      39.874 -12.889  -3.979  1.00  0.00    -0.067 N 
HETATM   20  H   UNL     1      39.557 -12.914  -4.972  1.00  0.00     0.280 HD
HETATM   21  C   UNL     1      40.314 -14.281  -3.563  1.00  0.00     0.261 C 
HETATM   22  C   UNL     1      39.146 -15.262  -3.706  1.00  0.00     0.195 C 
HETATM   23  O   UNL     1      38.016 -14.836  -2.937  1.00  0.00    -0.388 OA
HETATM   24  C   UNL     1      37.539 -13.559  -3.380  1.00  0.00     0.195 C 
HETATM   25  C   UNL     1      38.618 -12.486  -3.206  1.00  0.00     0.261 C 
ENDBRANCH  18  19
ENDBRANCH  17  18
ENDBRANCH  16  17
ENDBRANCH  13  16
ENDBRANCH   6  12
BRANCH   9  26
HETATM   26  C   UNL     1      43.785 -17.191   2.133  1.00  0.00     0.409 C 
HETATM   27  F   UNL     1      44.458 -17.132   0.971  1.00  0.00    -0.169 F 
HETATM   28  F   UNL     1      44.083 -16.071   2.837  1.00  0.00    -0.169 F 
HETATM   29  F   UNL     1      44.292 -18.231   2.838  1.00  0.00    -0.169 F 
ENDBRANCH   9  26
BRANCH   1  30
HETATM   30  C   UNL     1      42.544 -17.347   5.312  1.00  0.00     0.005 A 
HETATM   31  S   UNL     1      43.104 -15.893   6.042  1.00  0.00    -0.104 SA
HETATM   32  C   UNL     1      44.331 -16.710   6.904  1.00  0.00     0.050 A 
HETATM   33  C   UNL     1      44.305 -18.066   6.678  1.00  0.00     0.008 A 
HETATM   34  C   UNL     1      43.269 -18.435   5.773  1.00  0.00     0.017 A 
ENDBRANCH   1  30
TORSDOF 7
ENDMDL
MODEL 6
REMARK VINA RESULT:      -7.3      1.754      2.426
REMARK  7 active torsions:
REMARK  status: ('A' for Active; 'I' for Inactive)
REMARK    1  A    between atoms: C_4  and  C_5 
REMARK    2  A    between atoms: C_10  and  C_11 
REMARK       I    between atoms: C_11  and  N_12 
REMARK    3  A    between atoms: N_12  and  C_13 
REMARK    4  A    between atoms: C_13  and  C_14 
REMARK    5  A    between atoms: C_14  and  C_15 
REMARK    6  A    between atoms: C_15  and  N_16 
REMARK    7  A    between atoms: C_26  and  C_27 
ROOT
HETATM    1  C   UNL     1      41.242 -16.496   4.732  1.00  0.00     0.125 C 
HETATM    2  N   UNL     1      40.472 -15.591   3.874  1.00  0.00    -0.365 N 
HETATM    3  C   UNL     1      40.640 -15.539   2.531  1.00  0.00     0.141 A 
HETATM    4  N   UNL     1      41.439 -16.436   1.878  1.00  0.00    -0.238 N 
HETATM    5  N   UNL     1      41.400 -16.330   0.534  1.00  0.00    -0.163 NA
HETATM    6  C   UNL     1      40.625 -15.238   0.322  1.00  0.00     0.165 A 
HETATM    7  C   UNL     1      40.139 -14.723   1.549  1.00  0.00     0.092 A 
HETATM    8 BR   UNL     1      38.988 -13.264   1.780  1.00  0.00    -0.044 Br
HETATM    9  C   UNL     1      42.225 -17.458   2.544  1.00  0.00     0.221 C 
HETATM   10  C   UNL     1      41.634 -17.756   3.931  1.00  0.00     0.067 C 
HETATM   11  H   UNL     1      40.085 -14.785   4.367  1.00  0.00     0.162 HD
ENDROOT
BRANCH   6  12
HETATM   12  C   UNL     1      40.369 -14.778  -1.047  1.00  0.00     0.273 C 
HETATM   13  N   UNL     1      41.472 -14.857  -1.874  1.00  0.00    -0.355 N 
HETATM   14  H   UNL     1      42.338 -15.128  -1.402  1.00  0.00     0.162 HD
HETATM   15  O   UNL     1      39.280 -14.395  -1.480  1.00  0.00    -0.266 OA
BRANCH  13  16
HETATM   16  C   UNL     1      41.504 -14.326  -3.214  1.00  0.00     0.124 C 
BRANCH  16  17
HETATM   17  C   UNL     1      41.889 -12.848  -3.281  1.00  0.00     0.047 C 
BRANCH  17  18
HETATM   18  C   UNL     1      40.826 -11.873  -3.793  1.00  0.00     0.236 C 
BRANCH  18  19
HETATM   19  N   UNL     1      39.557 -11.862  -2.986  1.00  0.00    -0.067 N 
HETATM   20  H   UNL     1      39.466 -12.809  -2.558  1.00  0.00     0.280 HD
HETATM   21  C   UNL     1      39.497 -10.815  -1.889  1.00  0.00     0.261 C 
HETATM   22  C   UNL     1      38.163 -10.916  -1.142  1.00  0.00     0.195 C 
HETATM   23  O   UNL     1      37.057 -10.776  -2.040  1.00  0.00    -0.388 OA
HETATM   24  C   UNL     1      37.055 -11.814  -3.028  1.00  0.00     0.195 C 
HETATM   25  C   UNL     1      38.325 -11.749  -3.884  1.00  0.00     0.261 C 
ENDBRANCH  18  19
ENDBRANCH  17  18
ENDBRANCH  16  17
ENDBRANCH  13  16
ENDBRANCH   6  12
BRANCH   9  26
HETATM   26  C   UNL     1      43.681 -17.048   2.561  1.00  0.00     0.409 C 
HETATM   27  F   UNL     1      44.364 -17.424   1.465  1.00  0.00    -0.169 F 
HETATM   28  F   UNL     1      43.788 -15.700   2.668  1.00  0.00    -0.169 F 
HETATM   29  F   UNL     1      44.325 -17.568   3.634  1.00  0.00    -0.169 F 
ENDBRANCH   9  26
BRANCH   1  30
HETATM   30  C   UNL     1      42.394 -15.885   5.504  1.00  0.00     0.005 A 
HETATM   31  S   UNL     1      43.304 -16.814   6.633  1.00  0.00    -0.104 SA
HETATM   32  C   UNL     1      44.343 -15.506   6.987  1.00  0.00     0.050 A 
HETATM   33  C   UNL     1      44.037 -14.389   6.244  1.00  0.00     0.008 A 
HETATM   34  C   UNL     1      42.926 -14.611   5.381  1.00  0.00     0.017 A 
ENDBRANCH   1  30
TORSDOF 7
ENDMDL
MODEL 7
REMARK VINA RESULT:      -7.2      2.881      4.164
REMARK  7 active torsions:
REMARK  status: ('A' for Active; 'I' for Inactive)
REMARK    1  A    between atoms: C_4  and  C_5 
REMARK    2  A    between atoms: C_10  and  C_11 
REMARK       I    between atoms: C_11  and  N_12 
REMARK    3  A    between atoms: N_12  and  C_13 
REMARK    4  A    between atoms: C_13  and  C_14 
REMARK    5  A    between atoms: C_14  and  C_15 
REMARK    6  A    between atoms: C_15  and  N_16 
REMARK    7  A    between atoms: C_26  and  C_27 
ROOT
HETATM    1  C   UNL     1      44.005 -16.233   4.801  1.00  0.00     0.125 C 
HETATM    2  N   UNL     1      43.462 -15.634   3.579  1.00  0.00    -0.365 N 
HETATM    3  C   UNL     1      42.183 -15.198   3.485  1.00  0.00     0.141 A 
HETATM    4  N   UNL     1      41.362 -15.158   4.578  1.00  0.00    -0.238 N 
HETATM    5  N   UNL     1      40.166 -14.580   4.346  1.00  0.00    -0.163 NA
HETATM    6  C   UNL     1      40.179 -14.341   3.011  1.00  0.00     0.165 A 
HETATM    7  C   UNL     1      41.423 -14.718   2.449  1.00  0.00     0.092 A 
HETATM    8 BR   UNL     1      41.951 -14.535   0.661  1.00  0.00    -0.044 Br
HETATM    9  C   UNL     1      41.740 -15.635   5.895  1.00  0.00     0.221 C 
HETATM   10  C   UNL     1      43.272 -15.652   6.029  1.00  0.00     0.067 C 
HETATM   11  H   UNL     1      43.972 -15.890   2.732  1.00  0.00     0.162 HD
ENDROOT
BRANCH   6  12
HETATM   12  C   UNL     1      39.011 -13.733   2.365  1.00  0.00     0.273 C 
HETATM   13  N   UNL     1      38.435 -14.530   1.396  1.00  0.00    -0.355 N 
HETATM   14  H   UNL     1      38.954 -15.387   1.188  1.00  0.00     0.162 HD
HETATM   15  O   UNL     1      38.521 -12.640   2.659  1.00  0.00    -0.266 OA
BRANCH  13  16
HETATM   16  C   UNL     1      37.374 -14.087   0.527  1.00  0.00     0.124 C 
BRANCH  16  17
HETATM   17  C   UNL     1      37.756 -12.900  -0.356  1.00  0.00     0.047 C 
BRANCH  17  18
HETATM   18  C   UNL     1      37.691 -13.107  -1.871  1.00  0.00     0.236 C 
BRANCH  18  19
HETATM   19  N   UNL     1      38.393 -14.346  -2.355  1.00  0.00    -0.067 N 
HETATM   20  H   UNL     1      38.349 -15.039  -1.577  1.00  0.00     0.280 HD
HETATM   21  C   UNL     1      37.809 -14.972  -3.609  1.00  0.00     0.261 C 
HETATM   22  C   UNL     1      38.607 -16.223  -3.989  1.00  0.00     0.195 C 
HETATM   23  O   UNL     1      39.993 -15.916  -4.172  1.00  0.00    -0.388 OA
HETATM   24  C   UNL     1      40.576 -15.405  -2.966  1.00  0.00     0.195 C 
HETATM   25  C   UNL     1      39.890 -14.102  -2.542  1.00  0.00     0.261 C 
ENDBRANCH  18  19
ENDBRANCH  17  18
ENDBRANCH  16  17
ENDBRANCH  13  16
ENDBRANCH   6  12
BRANCH   9  26
HETATM   26  C   UNL     1      41.077 -16.967   6.163  1.00  0.00     0.409 C 
HETATM   27  F   UNL     1      41.755 -17.749   7.022  1.00  0.00    -0.169 F 
HETATM   28  F   UNL     1      39.835 -16.779   6.674  1.00  0.00    -0.169 F 
HETATM   29  F   UNL     1      40.915 -17.674   5.018  1.00  0.00    -0.169 F 
ENDBRANCH   9  26
BRANCH   1  30
HETATM   30  C   UNL     1      44.122 -17.744   4.824  1.00  0.00     0.005 A 
HETATM   31  S   UNL     1      43.774 -18.687   3.426  1.00  0.00    -0.104 SA
HETATM   32  C   UNL     1      44.166 -20.146   4.221  1.00  0.00     0.050 A 
HETATM   33  C   UNL     1      44.588 -19.933   5.512  1.00  0.00     0.008 A 
HETATM   34  C   UNL     1      44.576 -18.551   5.855  1.00  0.00     0.017 A 
ENDBRANCH   1  30
TORSDOF 7
ENDMDL
MODEL 8
REMARK VINA RESULT:      -7.2      4.598      9.308
REMARK  7 active torsions:
REMARK  status: ('A' for Active; 'I' for Inactive)
REMARK    1  A    between atoms: C_4  and  C_5 
REMARK    2  A    between atoms: C_10  and  C_11 
REMARK       I    between atoms: C_11  and  N_12 
REMARK    3  A    between atoms: N_12  and  C_13 
REMARK    4  A    between atoms: C_13  and  C_14 
REMARK    5  A    between atoms: C_14  and  C_15 
REMARK    6  A    between atoms: C_15  and  N_16 
REMARK    7  A    between atoms: C_26  and  C_27 
ROOT
HETATM    1  C   UNL     1      39.960 -14.504  -1.300  1.00  0.00     0.125 C 
HETATM    2  N   UNL     1      40.841 -15.464  -0.627  1.00  0.00    -0.365 N 
HETATM    3  C   UNL     1      41.212 -15.331   0.668  1.00  0.00     0.141 A 
HETATM    4  N   UNL     1      40.667 -14.366   1.470  1.00  0.00    -0.238 N 
HETATM    5  N   UNL     1      41.046 -14.446   2.762  1.00  0.00    -0.163 NA
HETATM    6  C   UNL     1      41.966 -15.442   2.764  1.00  0.00     0.165 A 
HETATM    7  C   UNL     1      42.091 -16.010   1.472  1.00  0.00     0.092 A 
HETATM    8 BR   UNL     1      43.187 -17.446   0.977  1.00  0.00    -0.044 Br
HETATM    9  C   UNL     1      39.719 -13.368   1.010  1.00  0.00     0.221 C 
HETATM   10  C   UNL     1      39.014 -13.861  -0.264  1.00  0.00     0.067 C 
HETATM   11  H   UNL     1      41.422 -16.009  -1.266  1.00  0.00     0.162 HD
ENDROOT
BRANCH   6  12
HETATM   12  C   UNL     1      42.641 -15.811   4.013  1.00  0.00     0.273 C 
HETATM   13  N   UNL     1      42.182 -16.991   4.565  1.00  0.00    -0.355 N 
HETATM   14  H   UNL     1      41.373 -17.395   4.088  1.00  0.00     0.162 HD
HETATM   15  O   UNL     1      43.568 -15.187   4.534  1.00  0.00    -0.266 OA
BRANCH  13  16
HETATM   16  C   UNL     1      42.588 -17.476   5.860  1.00  0.00     0.124 C 
BRANCH  16  17
HETATM   17  C   UNL     1      43.220 -18.868   5.825  1.00  0.00     0.047 C 
BRANCH  17  18
HETATM   18  C   UNL     1      44.661 -18.966   5.319  1.00  0.00     0.236 C 
BRANCH  18  19
HETATM   19  N   UNL     1      44.964 -20.230   4.561  1.00  0.00    -0.067 N 
HETATM   20  H   UNL     1      45.984 -20.211   4.344  1.00  0.00     0.280 HD
HETATM   21  C   UNL     1      44.637 -21.517   5.295  1.00  0.00     0.261 C 
HETATM   22  C   UNL     1      44.999 -22.723   4.420  1.00  0.00     0.195 C 
HETATM   23  O   UNL     1      44.321 -22.669   3.161  1.00  0.00    -0.388 OA
HETATM   24  C   UNL     1      44.690 -21.498   2.422  1.00  0.00     0.195 C 
HETATM   25  C   UNL     1      44.298 -20.229   3.186  1.00  0.00     0.261 C 
ENDBRANCH  18  19
ENDBRANCH  17  18
ENDBRANCH  16  17
ENDBRANCH  13  16
ENDBRANCH   6  12
BRANCH   9  26
HETATM   26  C   UNL     1      40.419 -12.035   0.859  1.00  0.00     0.409 C 
HETATM   27  F   UNL     1      40.368 -11.268   1.962  1.00  0.00    -0.169 F 
HETATM   28  F   UNL     1      41.726 -12.223   0.551  1.00  0.00    -0.169 F 
HETATM   29  F   UNL     1      39.887 -11.313  -0.157  1.00  0.00    -0.169 F 
ENDBRANCH   9  26
BRANCH   1  30
HETATM   30  C   UNL     1      40.626 -13.501  -2.220  1.00  0.00     0.005 A 
HETATM   31  S   UNL     1      39.697 -12.367  -3.123  1.00  0.00    -0.104 SA
HETATM   32  C   UNL     1      41.092 -11.647  -3.796  1.00  0.00     0.050 A 
HETATM   33  C   UNL     1      42.248 -12.225  -3.326  1.00  0.00     0.008 A 
HETATM   34  C   UNL     1      41.981 -13.281  -2.409  1.00  0.00     0.017 A 
ENDBRANCH   1  30
TORSDOF 7
ENDMDL
MODEL 9
REMARK VINA RESULT:      -6.9      8.244     11.049
REMARK  7 active torsions:
REMARK  status: ('A' for Active; 'I' for Inactive)
REMARK    1  A    between atoms: C_4  and  C_5 
REMARK    2  A    between atoms: C_10  and  C_11 
REMARK       I    between atoms: C_11  and  N_12 
REMARK    3  A    between atoms: N_12  and  C_13 
REMARK    4  A    between atoms: C_13  and  C_14 
REMARK    5  A    between atoms: C_14  and  C_15 
REMARK    6  A    between atoms: C_15  and  N_16 
REMARK    7  A    between atoms: C_26  and  C_27 
ROOT
HETATM    1  C   UNL     1      41.123  -8.231  10.249  1.00  0.00     0.125 C 
HETATM    2  N   UNL     1      42.246  -9.105  10.599  1.00  0.00    -0.365 N 
HETATM    3  C   UNL     1      42.690 -10.088   9.780  1.00  0.00     0.141 A 
HETATM    4  N   UNL     1      42.206 -10.228   8.509  1.00  0.00    -0.238 N 
HETATM    5  N   UNL     1      42.839 -11.171   7.781  1.00  0.00    -0.163 NA
HETATM    6  C   UNL     1      43.694 -11.738   8.667  1.00  0.00     0.165 A 
HETATM    7  C   UNL     1      43.621 -11.084   9.921  1.00  0.00     0.092 A 
HETATM    8 BR   UNL     1      44.641 -11.460  11.447  1.00  0.00    -0.044 Br
HETATM    9  C   UNL     1      41.145  -9.411   7.949  1.00  0.00     0.221 C 
HETATM   10  C   UNL     1      41.046  -8.082   8.714  1.00  0.00     0.067 C 
HETATM   11  H   UNL     1      42.425  -9.163  11.603  1.00  0.00     0.162 HD
ENDROOT
BRANCH   6  12
HETATM   12  C   UNL     1      44.554 -12.848   8.244  1.00  0.00     0.273 C 
HETATM   13  N   UNL     1      43.968 -13.681   7.312  1.00  0.00    -0.355 N 
HETATM   14  H   UNL     1      42.986 -13.473   7.116  1.00  0.00     0.162 HD
HETATM   15  O   UNL     1      45.714 -13.035   8.618  1.00  0.00    -0.266 OA
BRANCH  13  16
HETATM   16  C   UNL     1      44.559 -14.916   6.861  1.00  0.00     0.124 C 
BRANCH  16  17
HETATM   17  C   UNL     1      43.578 -16.087   6.816  1.00  0.00     0.047 C 
BRANCH  17  18
HETATM   18  C   UNL     1      44.157 -17.491   7.007  1.00  0.00     0.236 C 
BRANCH  18  19
HETATM   19  N   UNL     1      44.479 -18.206   5.724  1.00  0.00    -0.067 N 
HETATM   20  H   UNL     1      45.412 -17.860   5.413  1.00  0.00     0.280 HD
HETATM   21  C   UNL     1      44.518 -19.720   5.820  1.00  0.00     0.261 C 
HETATM   22  C   UNL     1      44.862 -20.321   4.452  1.00  0.00     0.195 C 
HETATM   23  O   UNL     1      43.927 -19.899   3.453  1.00  0.00    -0.388 OA
HETATM   24  C   UNL     1      43.946 -18.475   3.294  1.00  0.00     0.195 C 
HETATM   25  C   UNL     1      43.539 -17.778   4.596  1.00  0.00     0.261 C 
ENDBRANCH  18  19
ENDBRANCH  17  18
ENDBRANCH  16  17
ENDBRANCH  13  16
ENDBRANCH   6  12
BRANCH   9  26
HETATM   26  C   UNL     1      39.859 -10.206   7.910  1.00  0.00     0.409 C 
HETATM   27  F   UNL     1      38.750  -9.445   7.943  1.00  0.00    -0.169 F 
HETATM   28  F   UNL     1      39.806 -10.958   6.782  1.00  0.00    -0.169 F 
HETATM   29  F   UNL     1      39.784 -11.071   8.950  1.00  0.00    -0.169 F 
ENDBRANCH   9  26
BRANCH   1  30
HETATM   30  C   UNL     1      39.788  -8.546  10.895  1.00  0.00     0.005 A 
HETATM   31  S   UNL     1      39.655  -9.739  12.129  1.00  0.00    -0.104 SA
HETATM   32  C   UNL     1      37.982  -9.458  12.325  1.00  0.00     0.050 A 
HETATM   33  C   UNL     1      37.528  -8.456  11.499  1.00  0.00     0.008 A 
HETATM   34  C   UNL     1      38.568  -7.922  10.686  1.00  0.00     0.017 A 
ENDBRANCH   1  30
TORSDOF 7
ENDMDL
MODEL 10
REMARK VINA RESULT:      -6.8      1.949      2.555
REMARK  7 active torsions:
REMARK  status: ('A' for Active; 'I' for Inactive)
REMARK    1  A    between atoms: C_4  and  C_5 
REMARK    2  A    between atoms: C_10  and  C_11 
REMARK       I    between atoms: C_11  and  N_12 
REMARK    3  A    between atoms: N_12  and  C_13 
REMARK    4  A    between atoms: C_13  and  C_14 
REMARK    5  A    between atoms: C_14  and  C_15 
REMARK    6  A    between atoms: C_15  and  N_16 
REMARK    7  A    between atoms: C_26  and  C_27 
ROOT
HETATM    1  C   UNL     1      41.213 -17.075   4.269  1.00  0.00     0.125 C 
HETATM    2  N   UNL     1      40.475 -16.112   3.447  1.00  0.00    -0.365 N 
HETATM    3  C   UNL     1      40.776 -15.879   2.147  1.00  0.00     0.141 A 
HETATM    4  N   UNL     1      41.698 -16.639   1.483  1.00  0.00    -0.238 N 
HETATM    5  N   UNL     1      41.791 -16.365   0.166  1.00  0.00    -0.163 NA
HETATM    6  C   UNL     1      40.968 -15.300   0.002  1.00  0.00     0.165 A 
HETATM    7  C   UNL     1      40.324 -14.974   1.221  1.00  0.00     0.092 A 
HETATM    8 BR   UNL     1      39.057 -13.623   1.498  1.00  0.00    -0.044 Br
HETATM    9  C   UNL     1      42.481 -17.693   2.103  1.00  0.00     0.221 C 
HETATM   10  C   UNL     1      41.771 -18.198   3.370  1.00  0.00     0.067 C 
HETATM   11  H   UNL     1      39.984 -15.398   3.988  1.00  0.00     0.162 HD
ENDROOT
BRANCH   6  12
HETATM   12  C   UNL     1      40.824 -14.684  -1.321  1.00  0.00     0.273 C 
HETATM   13  N   UNL     1      39.620 -14.964  -1.936  1.00  0.00    -0.355 N 
HETATM   14  H   UNL     1      39.035 -15.638  -1.436  1.00  0.00     0.162 HD
HETATM   15  O   UNL     1      41.649 -13.939  -1.855  1.00  0.00    -0.266 OA
BRANCH  13  16
HETATM   16  C   UNL     1      39.313 -14.594  -3.295  1.00  0.00     0.124 C 
BRANCH  16  17
HETATM   17  C   UNL     1      38.381 -13.388  -3.408  1.00  0.00     0.047 C 
BRANCH  17  18
HETATM   18  C   UNL     1      37.700 -12.909  -2.123  1.00  0.00     0.236 C 
BRANCH  18  19
HETATM   19  N   UNL     1      38.049 -11.501  -1.727  1.00  0.00    -0.067 N 
HETATM   20  H   UNL     1      37.792 -11.400  -0.722  1.00  0.00     0.280 HD
HETATM   21  C   UNL     1      39.507 -11.122  -1.907  1.00  0.00     0.261 C 
HETATM   22  C   UNL     1      39.728  -9.671  -1.463  1.00  0.00     0.195 C 
HETATM   23  O   UNL     1      38.877  -8.775  -2.184  1.00  0.00    -0.388 OA
HETATM   24  C   UNL     1      37.494  -9.071  -1.951  1.00  0.00     0.195 C 
HETATM   25  C   UNL     1      37.153 -10.484  -2.435  1.00  0.00     0.261 C 
ENDBRANCH  18  19
ENDBRANCH  17  18
ENDBRANCH  16  17
ENDBRANCH  13  16
ENDBRANCH   6  12
BRANCH   9  26
HETATM   26  C   UNL     1      43.895 -17.208   2.332  1.00  0.00     0.409 C 
HETATM   27  F   UNL     1      44.493 -17.763   3.400  1.00  0.00    -0.169 F 
HETATM   28  F   UNL     1      44.664 -17.475   1.247  1.00  0.00    -0.169 F 
HETATM   29  F   UNL     1      43.932 -15.864   2.504  1.00  0.00    -0.169 F 
ENDBRANCH   9  26
BRANCH   1  30
HETATM   30  C   UNL     1      42.234 -16.504   5.233  1.00  0.00     0.005 A 
HETATM   31  S   UNL     1      43.057 -17.511   6.360  1.00  0.00    -0.104 SA
HETATM   32  C   UNL     1      43.976 -16.207   6.969  1.00  0.00     0.050 A 
HETATM   33  C   UNL     1      43.698 -15.030   6.314  1.00  0.00     0.008 A 
HETATM   34  C   UNL     1      42.706 -15.203   5.306  1.00  0.00     0.017 A 
ENDBRANCH   1  30
TORSDOF 7
ENDMDL
