MODEL 1
REMARK VINA RESULT:      -9.5      0.000      0.000
REMARK  4 active torsions:
REMARK  status: ('A' for Active; 'I' for Inactive)
REMARK    1  A    between atoms: C_8  and  C_9 
REMARK    2  A    between atoms: C_12  and  N_13 
REMARK       I    between atoms: N_13  and  C_14 
REMARK    3  A    between atoms: C_14  and  C_15 
REMARK    4  A    between atoms: C_17  and  N_18 
ROOT
HETATM    1  C   UNL     1      42.234 -15.593   4.774  1.00  0.00     0.010 A 
HETATM    2  C   UNL     1      42.968 -14.402   4.805  1.00  0.00     0.017 A 
HETATM    3  C   UNL     1      42.438 -13.245   5.391  1.00  0.00     0.030 A 
HETATM    4  C   UNL     1      41.164 -13.251   5.957  1.00  0.00     0.035 A 
HETATM    5  C   UNL     1      40.395 -14.416   5.860  1.00  0.00     0.030 A 
HETATM    6  C   UNL     1      40.926 -15.575   5.277  1.00  0.00     0.017 A 
ENDROOT
BRANCH   4   7
HETATM    7  N   UNL     1      40.618 -12.161   6.672  1.00  0.00    -0.323 N 
HETATM    8  C   UNL     1      39.549 -11.378   6.272  1.00  0.00     0.256 C 
HETATM    9  O   UNL     1      38.818 -11.553   5.305  1.00  0.00    -0.267 OA
HETATM   10  H   UNL     1      41.164 -11.832   7.460  1.00  0.00     0.169 HD
BRANCH   8  11
HETATM   11  C   UNL     1      39.348 -10.139   7.066  1.00  0.00     0.034 A 
HETATM   12  C   UNL     1      39.499 -10.119   8.462  1.00  0.00     0.047 A 
HETATM   13  C   UNL     1      39.296  -8.934   9.195  1.00  0.00     0.046 A 
HETATM   14  C   UNL     1      38.950  -7.780   8.467  1.00  0.00     0.030 A 
HETATM   15  C   UNL     1      38.791  -7.802   7.077  1.00  0.00     0.003 A 
HETATM   16  C   UNL     1      38.981  -8.984   6.376  1.00  0.00     0.017 A 
BRANCH  13  17
HETATM   17  N   UNL     1      39.421  -8.902  10.622  1.00  0.00    -0.252 N 
HETATM   18  C   UNL     1      38.358  -8.927  11.501  1.00  0.00     0.231 C 
HETATM   19  O   UNL     1      37.169  -9.101  11.271  1.00  0.00    -0.273 OA
HETATM   20  C   UNL     1      38.868  -8.693  12.891  1.00  0.00     0.113 C 
HETATM   21  C   UNL     1      40.344  -8.962  12.778  1.00  0.00     0.113 C 
HETATM   22  C   UNL     1      40.618  -8.852  11.308  1.00  0.00     0.231 C 
HETATM   23  O   UNL     1      41.760  -8.751  10.881  1.00  0.00    -0.273 OA
ENDBRANCH  13  17
ENDBRANCH   8  11
ENDBRANCH   4   7
BRANCH   1  24
HETATM   24  C   UNL     1      42.808 -16.848   4.279  1.00  0.00     0.139 A 
HETATM   25  N   UNL     1      43.701 -17.613   5.000  1.00  0.00    -0.338 N 
HETATM   26  C   UNL     1      43.969 -18.761   4.305  1.00  0.00     0.063 A 
HETATM   27  H   UNL     1      44.053 -17.390   5.917  1.00  0.00     0.167 HD
HETATM   28  C   UNL     1      43.220 -18.636   3.143  1.00  0.00     0.086 A 
HETATM   29  C   UNL     1      44.767 -19.868   4.592  1.00  0.00     0.032 A 
HETATM   30  C   UNL     1      43.263 -19.664   2.189  1.00  0.00     0.040 A 
HETATM   31  N   UNL     1      42.511 -17.457   3.144  1.00  0.00    -0.228 NA
HETATM   32  C   UNL     1      44.064 -20.794   2.437  1.00  0.00    -0.060 A 
HETATM   33  C   UNL     1      44.107 -21.925   1.451  1.00  0.00     0.048 C 
HETATM   34  C   UNL     1      44.794 -20.887   3.632  1.00  0.00     0.009 A 
ENDBRANCH   1  24
TORSDOF 4
ENDMDL
MODEL 2
REMARK VINA RESULT:      -9.4      3.793     11.699
REMARK  4 active torsions:
REMARK  status: ('A' for Active; 'I' for Inactive)
REMARK    1  A    between atoms: C_8  and  C_9 
REMARK    2  A    between atoms: C_12  and  N_13 
REMARK       I    between atoms: N_13  and  C_14 
REMARK    3  A    between atoms: C_14  and  C_15 
REMARK    4  A    between atoms: C_17  and  N_18 
ROOT
HETATM    1  C   UNL     1      43.350 -12.206   7.800  1.00  0.00     0.010 A 
HETATM    2  C   UNL     1      42.475 -12.131   6.711  1.00  0.00     0.017 A 
HETATM    3  C   UNL     1      42.574 -13.033   5.644  1.00  0.00     0.030 A 
HETATM    4  C   UNL     1      43.551 -14.029   5.640  1.00  0.00     0.035 A 
HETATM    5  C   UNL     1      44.477 -14.060   6.688  1.00  0.00     0.030 A 
HETATM    6  C   UNL     1      44.375 -13.160   7.758  1.00  0.00     0.017 A 
ENDROOT
BRANCH   4   7
HETATM    7  N   UNL     1      43.630 -15.046   4.661  1.00  0.00    -0.323 N 
HETATM    8  C   UNL     1      42.726 -16.078   4.485  1.00  0.00     0.256 C 
HETATM    9  O   UNL     1      41.651 -16.232   5.052  1.00  0.00    -0.267 OA
HETATM   10  H   UNL     1      44.509 -15.109   4.160  1.00  0.00     0.169 HD
BRANCH   8  11
HETATM   11  C   UNL     1      43.177 -17.157   3.571  1.00  0.00     0.034 A 
HETATM   12  C   UNL     1      43.521 -18.434   4.042  1.00  0.00     0.047 A 
HETATM   13  C   UNL     1      43.954 -19.441   3.157  1.00  0.00     0.046 A 
HETATM   14  C   UNL     1      44.014 -19.111   1.790  1.00  0.00     0.030 A 
HETATM   15  C   UNL     1      43.680 -17.836   1.321  1.00  0.00     0.003 A 
HETATM   16  C   UNL     1      43.270 -16.855   2.212  1.00  0.00     0.017 A 
BRANCH  13  17
HETATM   17  N   UNL     1      44.332 -20.741   3.624  1.00  0.00    -0.252 N 
HETATM   18  C   UNL     1      44.692 -21.031   4.925  1.00  0.00     0.231 C 
HETATM   19  O   UNL     1      44.642 -20.317   5.918  1.00  0.00    -0.273 OA
HETATM   20  C   UNL     1      45.196 -22.440   4.990  1.00  0.00     0.113 C 
HETATM   21  C   UNL     1      44.692 -23.058   3.713  1.00  0.00     0.113 C 
HETATM   22  C   UNL     1      44.380 -21.878   2.843  1.00  0.00     0.231 C 
HETATM   23  O   UNL     1      44.197 -22.008   1.639  1.00  0.00    -0.273 OA
ENDBRANCH  13  17
ENDBRANCH   8  11
ENDBRANCH   4   7
BRANCH   1  24
HETATM   24  C   UNL     1      43.192 -11.356   8.984  1.00  0.00     0.139 A 
HETATM   25  N   UNL     1      42.290 -10.316   9.059  1.00  0.00    -0.338 N 
HETATM   26  C   UNL     1      42.321  -9.787  10.321  1.00  0.00     0.063 A 
HETATM   27  H   UNL     1      41.666 -10.030   8.321  1.00  0.00     0.167 HD
HETATM   28  C   UNL     1      43.285 -10.537  10.978  1.00  0.00     0.086 A 
HETATM   29  C   UNL     1      41.600  -8.758  10.926  1.00  0.00     0.032 A 
HETATM   30  C   UNL     1      43.572 -10.254  12.322  1.00  0.00     0.040 A 
HETATM   31  N   UNL     1      43.809 -11.498  10.145  1.00  0.00    -0.228 NA
HETATM   32  C   UNL     1      42.873  -9.216  12.966  1.00  0.00    -0.060 A 
HETATM   33  C   UNL     1      43.134  -8.908  14.413  1.00  0.00     0.048 C 
HETATM   34  C   UNL     1      41.895  -8.492  12.268  1.00  0.00     0.009 A 
ENDBRANCH   1  24
TORSDOF 4
ENDMDL
MODEL 3
REMARK VINA RESULT:      -9.2      6.518     10.957
REMARK  4 active torsions:
REMARK  status: ('A' for Active; 'I' for Inactive)
REMARK    1  A    between atoms: C_8  and  C_9 
REMARK    2  A    between atoms: C_12  and  N_13 
REMARK       I    between atoms: N_13  and  C_14 
REMARK    3  A    between atoms: C_14  and  C_15 
REMARK    4  A    between atoms: C_17  and  N_18 
ROOT
HETATM    1  C   UNL     1      39.672 -14.463  -0.176  1.00  0.00     0.010 A 
HETATM    2  C   UNL     1      41.037 -14.727  -0.338  1.00  0.00     0.017 A 
HETATM    3  C   UNL     1      41.784 -15.312   0.693  1.00  0.00     0.030 A 
HETATM    4  C   UNL     1      41.186 -15.643   1.908  1.00  0.00     0.035 A 
HETATM    5  C   UNL     1      39.841 -15.310   2.104  1.00  0.00     0.030 A 
HETATM    6  C   UNL     1      39.093 -14.729   1.071  1.00  0.00     0.017 A 
ENDROOT
BRANCH   4   7
HETATM    7  N   UNL     1      41.847 -16.345   2.942  1.00  0.00    -0.323 N 
HETATM    8  C   UNL     1      42.395 -15.788   4.084  1.00  0.00     0.256 C 
HETATM    9  O   UNL     1      42.307 -14.626   4.461  1.00  0.00    -0.267 OA
HETATM   10  H   UNL     1      42.077 -17.312   2.742  1.00  0.00     0.169 HD
BRANCH   8  11
HETATM   11  C   UNL     1      43.263 -16.699   4.872  1.00  0.00     0.034 A 
HETATM   12  C   UNL     1      43.428 -18.050   4.527  1.00  0.00     0.047 A 
HETATM   13  C   UNL     1      44.251 -18.899   5.293  1.00  0.00     0.046 A 
HETATM   14  C   UNL     1      44.901 -18.329   6.404  1.00  0.00     0.030 A 
HETATM   15  C   UNL     1      44.729 -16.985   6.753  1.00  0.00     0.003 A 
HETATM   16  C   UNL     1      43.903 -16.171   5.993  1.00  0.00     0.017 A 
BRANCH  13  17
HETATM   17  N   UNL     1      44.411 -20.284   4.969  1.00  0.00    -0.252 N 
HETATM   18  C   UNL     1      44.232 -21.322   5.860  1.00  0.00     0.231 C 
HETATM   19  O   UNL     1      43.800 -21.292   7.005  1.00  0.00    -0.273 OA
HETATM   20  C   UNL     1      44.665 -22.602   5.213  1.00  0.00     0.113 C 
HETATM   21  C   UNL     1      44.698 -22.266   3.747  1.00  0.00     0.113 C 
HETATM   22  C   UNL     1      44.755 -20.769   3.723  1.00  0.00     0.231 C 
HETATM   23  O   UNL     1      45.058 -20.162   2.704  1.00  0.00    -0.273 OA
ENDBRANCH  13  17
ENDBRANCH   8  11
ENDBRANCH   4   7
BRANCH   1  24
HETATM   24  C   UNL     1      38.841 -13.967  -1.277  1.00  0.00     0.139 A 
HETATM   25  N   UNL     1      38.353 -14.772  -2.284  1.00  0.00    -0.338 N 
HETATM   26  C   UNL     1      37.539 -14.029  -3.096  1.00  0.00     0.063 A 
HETATM   27  H   UNL     1      38.522 -15.762  -2.375  1.00  0.00     0.167 HD
HETATM   28  C   UNL     1      37.580 -12.757  -2.543  1.00  0.00     0.086 A 
HETATM   29  C   UNL     1      36.783 -14.356  -4.221  1.00  0.00     0.032 A 
HETATM   30  C   UNL     1      36.837 -11.728  -3.141  1.00  0.00     0.040 A 
HETATM   31  N   UNL     1      38.382 -12.736  -1.426  1.00  0.00    -0.228 NA
HETATM   32  C   UNL     1      36.069 -12.015  -4.285  1.00  0.00    -0.060 A 
HETATM   33  C   UNL     1      35.237 -10.944  -4.929  1.00  0.00     0.048 C 
HETATM   34  C   UNL     1      36.043 -13.319  -4.802  1.00  0.00     0.009 A 
ENDBRANCH   1  24
TORSDOF 4
ENDMDL
MODEL 4
REMARK VINA RESULT:      -9.2      6.525     11.003
REMARK  4 active torsions:
REMARK  status: ('A' for Active; 'I' for Inactive)
REMARK    1  A    between atoms: C_8  and  C_9 
REMARK    2  A    between atoms: C_12  and  N_13 
REMARK       I    between atoms: N_13  and  C_14 
REMARK    3  A    between atoms: C_14  and  C_15 
REMARK    4  A    between atoms: C_17  and  N_18 
ROOT
HETATM    1  C   UNL     1      39.678 -14.468  -0.186  1.00  0.00     0.010 A 
HETATM    2  C   UNL     1      41.037 -14.753  -0.355  1.00  0.00     0.017 A 
HETATM    3  C   UNL     1      41.783 -15.341   0.675  1.00  0.00     0.030 A 
HETATM    4  C   UNL     1      41.189 -15.654   1.897  1.00  0.00     0.035 A 
HETATM    5  C   UNL     1      39.851 -15.300   2.100  1.00  0.00     0.030 A 
HETATM    6  C   UNL     1      39.103 -14.715   1.068  1.00  0.00     0.017 A 
ENDROOT
BRANCH   4   7
HETATM    7  N   UNL     1      41.847 -16.358   2.932  1.00  0.00    -0.323 N 
HETATM    8  C   UNL     1      42.410 -15.801   4.066  1.00  0.00     0.256 C 
HETATM    9  O   UNL     1      42.340 -14.635   4.436  1.00  0.00    -0.267 OA
HETATM   10  H   UNL     1      42.062 -17.329   2.737  1.00  0.00     0.169 HD
BRANCH   8  11
HETATM   11  C   UNL     1      43.270 -16.718   4.855  1.00  0.00     0.034 A 
HETATM   12  C   UNL     1      43.436 -18.067   4.502  1.00  0.00     0.047 A 
HETATM   13  C   UNL     1      44.252 -18.922   5.269  1.00  0.00     0.046 A 
HETATM   14  C   UNL     1      44.894 -18.360   6.389  1.00  0.00     0.030 A 
HETATM   15  C   UNL     1      44.721 -17.018   6.746  1.00  0.00     0.003 A 
HETATM   16  C   UNL     1      43.901 -16.199   5.984  1.00  0.00     0.017 A 
BRANCH  13  17
HETATM   17  N   UNL     1      44.413 -20.305   4.937  1.00  0.00    -0.252 N 
HETATM   18  C   UNL     1      44.760 -20.775   3.687  1.00  0.00     0.231 C 
HETATM   19  O   UNL     1      45.109 -20.148   2.696  1.00  0.00    -0.273 OA
HETATM   20  C   UNL     1      44.650 -22.269   3.678  1.00  0.00     0.113 C 
HETATM   21  C   UNL     1      44.629 -22.633   5.138  1.00  0.00     0.113 C 
HETATM   22  C   UNL     1      44.251 -21.353   5.821  1.00  0.00     0.231 C 
HETATM   23  O   UNL     1      43.884 -21.342   6.989  1.00  0.00    -0.273 OA
ENDBRANCH  13  17
ENDBRANCH   8  11
ENDBRANCH   4   7
BRANCH   1  24
HETATM   24  C   UNL     1      38.846 -13.967  -1.284  1.00  0.00     0.139 A 
HETATM   25  N   UNL     1      38.348 -14.771  -2.288  1.00  0.00    -0.338 N 
HETATM   26  C   UNL     1      37.536 -14.024  -3.098  1.00  0.00     0.063 A 
HETATM   27  H   UNL     1      38.510 -15.762  -2.378  1.00  0.00     0.167 HD
HETATM   28  C   UNL     1      37.589 -12.751  -2.548  1.00  0.00     0.086 A 
HETATM   29  C   UNL     1      36.774 -14.347  -4.220  1.00  0.00     0.032 A 
HETATM   30  C   UNL     1      36.851 -11.718  -3.145  1.00  0.00     0.040 A 
HETATM   31  N   UNL     1      38.395 -12.734  -1.434  1.00  0.00    -0.228 NA
HETATM   32  C   UNL     1      36.077 -12.001  -4.285  1.00  0.00    -0.060 A 
HETATM   33  C   UNL     1      35.250 -10.925  -4.928  1.00  0.00     0.048 C 
HETATM   34  C   UNL     1      36.040 -13.306  -4.800  1.00  0.00     0.009 A 
ENDBRANCH   1  24
TORSDOF 4
ENDMDL
MODEL 5
REMARK VINA RESULT:      -9.1      3.343     11.727
REMARK  4 active torsions:
REMARK  status: ('A' for Active; 'I' for Inactive)
REMARK    1  A    between atoms: C_8  and  C_9 
REMARK    2  A    between atoms: C_12  and  N_13 
REMARK       I    between atoms: N_13  and  C_14 
REMARK    3  A    between atoms: C_14  and  C_15 
REMARK    4  A    between atoms: C_17  and  N_18 
ROOT
HETATM    1  C   UNL     1      40.312 -11.862   6.696  1.00  0.00     0.010 A 
HETATM    2  C   UNL     1      39.419 -12.814   6.190  1.00  0.00     0.017 A 
HETATM    3  C   UNL     1      39.852 -13.805   5.300  1.00  0.00     0.030 A 
HETATM    4  C   UNL     1      41.184 -13.866   4.893  1.00  0.00     0.035 A 
HETATM    5  C   UNL     1      42.063 -12.872   5.333  1.00  0.00     0.030 A 
HETATM    6  C   UNL     1      41.632 -11.882   6.227  1.00  0.00     0.017 A 
ENDROOT
BRANCH   4   7
HETATM    7  N   UNL     1      41.714 -14.908   4.098  1.00  0.00    -0.323 N 
HETATM    8  C   UNL     1      41.628 -16.263   4.368  1.00  0.00     0.256 C 
HETATM    9  O   UNL     1      40.988 -16.804   5.262  1.00  0.00    -0.267 OA
HETATM   10  H   UNL     1      42.347 -14.622   3.360  1.00  0.00     0.169 HD
BRANCH   8  11
HETATM   11  C   UNL     1      42.493 -17.126   3.526  1.00  0.00     0.034 A 
HETATM   12  C   UNL     1      42.925 -18.391   3.956  1.00  0.00     0.047 A 
HETATM   13  C   UNL     1      43.753 -19.190   3.143  1.00  0.00     0.046 A 
HETATM   14  C   UNL     1      44.112 -18.668   1.887  1.00  0.00     0.030 A 
HETATM   15  C   UNL     1      43.689 -17.404   1.461  1.00  0.00     0.003 A 
HETATM   16  C   UNL     1      42.887 -16.628   2.284  1.00  0.00     0.017 A 
BRANCH  13  17
HETATM   17  N   UNL     1      44.222 -20.471   3.578  1.00  0.00    -0.252 N 
HETATM   18  C   UNL     1      44.309 -21.587   2.771  1.00  0.00     0.231 C 
HETATM   19  O   UNL     1      44.140 -21.682   1.563  1.00  0.00    -0.273 OA
HETATM   20  C   UNL     1      44.663 -22.773   3.615  1.00  0.00     0.113 C 
HETATM   21  C   UNL     1      45.188 -22.162   4.886  1.00  0.00     0.113 C 
HETATM   22  C   UNL     1      44.658 -20.760   4.855  1.00  0.00     0.231 C 
HETATM   23  O   UNL     1      44.668 -20.056   5.856  1.00  0.00    -0.273 OA
ENDBRANCH  13  17
ENDBRANCH   8  11
ENDBRANCH   4   7
BRANCH   1  24
HETATM   24  C   UNL     1      39.915 -10.892   7.721  1.00  0.00     0.139 A 
HETATM   25  N   UNL     1      39.572  -9.586   7.439  1.00  0.00    -0.338 N 
HETATM   26  C   UNL     1      39.160  -8.973   8.592  1.00  0.00     0.063 A 
HETATM   27  H   UNL     1      39.569  -9.167   6.523  1.00  0.00     0.167 HD
HETATM   28  C   UNL     1      39.292  -9.957   9.563  1.00  0.00     0.086 A 
HETATM   29  C   UNL     1      38.687  -7.689   8.855  1.00  0.00     0.032 A 
HETATM   30  C   UNL     1      38.944  -9.658  10.889  1.00  0.00     0.040 A 
HETATM   31  N   UNL     1      39.754 -11.129   9.011  1.00  0.00    -0.228 NA
HETATM   32  C   UNL     1      38.471  -8.369  11.198  1.00  0.00    -0.060 A 
HETATM   33  C   UNL     1      38.060  -8.027  12.601  1.00  0.00     0.048 C 
HETATM   34  C   UNL     1      38.339  -7.409  10.182  1.00  0.00     0.009 A 
ENDBRANCH   1  24
TORSDOF 4
ENDMDL
MODEL 6
REMARK VINA RESULT:      -8.7      5.406     11.188
REMARK  4 active torsions:
REMARK  status: ('A' for Active; 'I' for Inactive)
REMARK    1  A    between atoms: C_8  and  C_9 
REMARK    2  A    between atoms: C_12  and  N_13 
REMARK       I    between atoms: N_13  and  C_14 
REMARK    3  A    between atoms: C_14  and  C_15 
REMARK    4  A    between atoms: C_17  and  N_18 
ROOT
HETATM    1  C   UNL     1      41.011 -11.190   6.546  1.00  0.00     0.010 A 
HETATM    2  C   UNL     1      40.702 -12.486   6.119  1.00  0.00     0.017 A 
HETATM    3  C   UNL     1      40.582 -12.785   4.755  1.00  0.00     0.030 A 
HETATM    4  C   UNL     1      40.764 -11.796   3.790  1.00  0.00     0.035 A 
HETATM    5  C   UNL     1      40.995 -10.483   4.213  1.00  0.00     0.030 A 
HETATM    6  C   UNL     1      41.120 -10.184   5.577  1.00  0.00     0.017 A 
ENDROOT
BRANCH   4   7
HETATM    7  N   UNL     1      40.780 -12.051   2.399  1.00  0.00    -0.323 N 
HETATM    8  C   UNL     1      41.838 -12.580   1.680  1.00  0.00     0.256 C 
HETATM    9  O   UNL     1      42.890 -13.026   2.123  1.00  0.00    -0.267 OA
HETATM   10  H   UNL     1      40.010 -11.659   1.870  1.00  0.00     0.169 HD
BRANCH   8  11
HETATM   11  C   UNL     1      41.698 -12.496   0.205  1.00  0.00     0.034 A 
HETATM   12  C   UNL     1      40.807 -13.317  -0.504  1.00  0.00     0.047 A 
HETATM   13  C   UNL     1      40.695 -13.225  -1.905  1.00  0.00     0.046 A 
HETATM   14  C   UNL     1      41.504 -12.272  -2.552  1.00  0.00     0.030 A 
HETATM   15  C   UNL     1      42.398 -11.459  -1.846  1.00  0.00     0.003 A 
HETATM   16  C   UNL     1      42.503 -11.577  -0.468  1.00  0.00     0.017 A 
BRANCH  13  17
HETATM   17  N   UNL     1      39.810 -14.072  -2.646  1.00  0.00    -0.252 N 
HETATM   18  C   UNL     1      38.449 -13.872  -2.761  1.00  0.00     0.231 C 
HETATM   19  O   UNL     1      37.774 -12.921  -2.391  1.00  0.00    -0.273 OA
HETATM   20  C   UNL     1      37.838 -15.054  -3.450  1.00  0.00     0.113 C 
HETATM   21  C   UNL     1      39.014 -15.738  -4.094  1.00  0.00     0.113 C 
HETATM   22  C   UNL     1      40.196 -15.195  -3.350  1.00  0.00     0.231 C 
HETATM   23  O   UNL     1      41.295 -15.728  -3.430  1.00  0.00    -0.273 OA
ENDBRANCH  13  17
ENDBRANCH   8  11
ENDBRANCH   4   7
BRANCH   1  24
HETATM   24  C   UNL     1      41.263 -10.875   7.956  1.00  0.00     0.139 A 
HETATM   25  N   UNL     1      40.386 -11.187   8.973  1.00  0.00    -0.338 N 
HETATM   26  C   UNL     1      40.954 -10.852  10.173  1.00  0.00     0.063 A 
HETATM   27  H   UNL     1      39.494 -11.642   8.857  1.00  0.00     0.167 HD
HETATM   28  C   UNL     1      42.186 -10.315   9.824  1.00  0.00     0.086 A 
HETATM   29  C   UNL     1      40.515 -10.981  11.489  1.00  0.00     0.032 A 
HETATM   30  C   UNL     1      43.045  -9.863  10.838  1.00  0.00     0.040 A 
HETATM   31  N   UNL     1      42.361 -10.339   8.461  1.00  0.00    -0.228 NA
HETATM   32  C   UNL     1      42.633  -9.967  12.179  1.00  0.00    -0.060 A 
HETATM   33  C   UNL     1      43.542  -9.523  13.289  1.00  0.00     0.048 C 
HETATM   34  C   UNL     1      41.386 -10.531  12.488  1.00  0.00     0.009 A 
ENDBRANCH   1  24
TORSDOF 4
ENDMDL
MODEL 7
REMARK VINA RESULT:      -8.3      5.776     11.130
REMARK  4 active torsions:
REMARK  status: ('A' for Active; 'I' for Inactive)
REMARK    1  A    between atoms: C_8  and  C_9 
REMARK    2  A    between atoms: C_12  and  N_13 
REMARK       I    between atoms: N_13  and  C_14 
REMARK    3  A    between atoms: C_14  and  C_15 
REMARK    4  A    between atoms: C_17  and  N_18 
ROOT
HETATM    1  C   UNL     1      38.384 -13.193   1.425  1.00  0.00     0.010 A 
HETATM    2  C   UNL     1      38.219 -14.581   1.350  1.00  0.00     0.017 A 
HETATM    3  C   UNL     1      39.146 -15.449   1.943  1.00  0.00     0.030 A 
HETATM    4  C   UNL     1      40.258 -14.950   2.620  1.00  0.00     0.035 A 
HETATM    5  C   UNL     1      40.469 -13.568   2.632  1.00  0.00     0.030 A 
HETATM    6  C   UNL     1      39.540 -12.699   2.042  1.00  0.00     0.017 A 
ENDROOT
BRANCH   4   7
HETATM    7  N   UNL     1      41.162 -15.760   3.345  1.00  0.00    -0.323 N 
HETATM    8  C   UNL     1      41.183 -15.929   4.718  1.00  0.00     0.256 C 
HETATM    9  O   UNL     1      40.367 -15.513   5.532  1.00  0.00    -0.267 OA
HETATM   10  H   UNL     1      41.957 -16.110   2.823  1.00  0.00     0.169 HD
BRANCH   8  11
HETATM   11  C   UNL     1      42.391 -16.611   5.247  1.00  0.00     0.034 A 
HETATM   12  C   UNL     1      42.701 -17.939   4.913  1.00  0.00     0.047 A 
HETATM   13  C   UNL     1      43.849 -18.568   5.432  1.00  0.00     0.046 A 
HETATM   14  C   UNL     1      44.668 -17.805   6.286  1.00  0.00     0.030 A 
HETATM   15  C   UNL     1      44.354 -16.484   6.626  1.00  0.00     0.003 A 
HETATM   16  C   UNL     1      43.211 -15.889   6.115  1.00  0.00     0.017 A 
BRANCH  13  17
HETATM   17  N   UNL     1      44.167 -19.929   5.120  1.00  0.00    -0.252 N 
HETATM   18  C   UNL     1      44.135 -20.968   6.028  1.00  0.00     0.231 C 
HETATM   19  O   UNL     1      43.730 -20.972   7.184  1.00  0.00    -0.273 OA
HETATM   20  C   UNL     1      44.703 -22.197   5.386  1.00  0.00     0.113 C 
HETATM   21  C   UNL     1      44.660 -21.881   3.915  1.00  0.00     0.113 C 
HETATM   22  C   UNL     1      44.537 -20.388   3.872  1.00  0.00     0.231 C 
HETATM   23  O   UNL     1      44.740 -19.764   2.839  1.00  0.00    -0.273 OA
ENDBRANCH  13  17
ENDBRANCH   8  11
ENDBRANCH   4   7
BRANCH   1  24
HETATM   24  C   UNL     1      37.370 -12.262   0.922  1.00  0.00     0.139 A 
HETATM   25  N   UNL     1      36.641 -11.419   1.734  1.00  0.00    -0.338 N 
HETATM   26  C   UNL     1      35.854 -10.615   0.954  1.00  0.00     0.063 A 
HETATM   27  H   UNL     1      36.718 -11.364   2.738  1.00  0.00     0.167 HD
HETATM   28  C   UNL     1      36.131 -11.027  -0.342  1.00  0.00     0.086 A 
HETATM   29  C   UNL     1      34.965  -9.587   1.263  1.00  0.00     0.032 A 
HETATM   30  C   UNL     1      35.483 -10.393  -1.413  1.00  0.00     0.040 A 
HETATM   31  N   UNL     1      37.065 -12.036  -0.345  1.00  0.00    -0.228 NA
HETATM   32  C   UNL     1      34.569  -9.357  -1.143  1.00  0.00    -0.060 A 
HETATM   33  C   UNL     1      33.883  -8.637  -2.268  1.00  0.00     0.048 C 
HETATM   34  C   UNL     1      34.331  -8.962   0.182  1.00  0.00     0.009 A 
ENDBRANCH   1  24
TORSDOF 4
ENDMDL
MODEL 8
REMARK VINA RESULT:      -8.3      7.815     10.634
REMARK  4 active torsions:
REMARK  status: ('A' for Active; 'I' for Inactive)
REMARK    1  A    between atoms: C_8  and  C_9 
REMARK    2  A    between atoms: C_12  and  N_13 
REMARK       I    between atoms: N_13  and  C_14 
REMARK    3  A    between atoms: C_14  and  C_15 
REMARK    4  A    between atoms: C_17  and  N_18 
ROOT
HETATM    1  C   UNL     1      41.448 -16.270   1.582  1.00  0.00     0.010 A 
HETATM    2  C   UNL     1      40.349 -15.615   2.148  1.00  0.00     0.017 A 
HETATM    3  C   UNL     1      39.475 -14.858   1.355  1.00  0.00     0.030 A 
HETATM    4  C   UNL     1      39.683 -14.737  -0.018  1.00  0.00     0.035 A 
HETATM    5  C   UNL     1      40.823 -15.324  -0.576  1.00  0.00     0.030 A 
HETATM    6  C   UNL     1      41.694 -16.085   0.215  1.00  0.00     0.017 A 
ENDROOT
BRANCH   4   7
HETATM    7  N   UNL     1      38.777 -14.095  -0.894  1.00  0.00    -0.323 N 
HETATM    8  C   UNL     1      38.856 -12.785  -1.331  1.00  0.00     0.256 C 
HETATM    9  O   UNL     1      39.769 -11.990  -1.140  1.00  0.00    -0.267 OA
HETATM   10  H   UNL     1      37.914 -14.594  -1.080  1.00  0.00     0.169 HD
BRANCH   8  11
HETATM   11  C   UNL     1      37.643 -12.280  -2.022  1.00  0.00     0.034 A 
HETATM   12  C   UNL     1      37.352 -12.618  -3.354  1.00  0.00     0.047 A 
HETATM   13  C   UNL     1      36.199 -12.122  -3.992  1.00  0.00     0.046 A 
HETATM   14  C   UNL     1      35.356 -11.288  -3.235  1.00  0.00     0.030 A 
HETATM   15  C   UNL     1      35.650 -10.943  -1.911  1.00  0.00     0.003 A 
HETATM   16  C   UNL     1      36.799 -11.432  -1.307  1.00  0.00     0.017 A 
BRANCH  13  17
HETATM   17  N   UNL     1      35.901 -12.437  -5.357  1.00  0.00    -0.252 N 
HETATM   18  C   UNL     1      35.395 -13.647  -5.788  1.00  0.00     0.231 C 
HETATM   19  O   UNL     1      34.996 -14.597  -5.128  1.00  0.00    -0.273 OA
HETATM   20  C   UNL     1      35.389 -13.668  -7.286  1.00  0.00     0.113 C 
HETATM   21  C   UNL     1      35.530 -12.218  -7.663  1.00  0.00     0.113 C 
HETATM   22  C   UNL     1      36.070 -11.575  -6.422  1.00  0.00     0.231 C 
HETATM   23  O   UNL     1      36.553 -10.451  -6.448  1.00  0.00    -0.273 OA
ENDBRANCH  13  17
ENDBRANCH   8  11
ENDBRANCH   4   7
BRANCH   1  24
HETATM   24  C   UNL     1      42.306 -17.166   2.364  1.00  0.00     0.139 A 
HETATM   25  N   UNL     1      42.812 -16.842   3.604  1.00  0.00    -0.338 N 
HETATM   26  C   UNL     1      43.489 -17.921   4.107  1.00  0.00     0.063 A 
HETATM   27  H   UNL     1      42.661 -15.971   4.089  1.00  0.00     0.167 HD
HETATM   28  C   UNL     1      43.379 -18.882   3.112  1.00  0.00     0.086 A 
HETATM   29  C   UNL     1      44.153 -18.135   5.314  1.00  0.00     0.032 A 
HETATM   30  C   UNL     1      43.970 -20.139   3.308  1.00  0.00     0.040 A 
HETATM   31  N   UNL     1      42.648 -18.403   2.050  1.00  0.00    -0.228 NA
HETATM   32  C   UNL     1      44.658 -20.391   4.509  1.00  0.00    -0.060 A 
HETATM   33  C   UNL     1      45.274 -21.736   4.764  1.00  0.00     0.048 C 
HETATM   34  C   UNL     1      44.732 -19.396   5.496  1.00  0.00     0.009 A 
ENDBRANCH   1  24
TORSDOF 4
ENDMDL
MODEL 9
REMARK VINA RESULT:      -8.1      7.363      9.828
REMARK  4 active torsions:
REMARK  status: ('A' for Active; 'I' for Inactive)
REMARK    1  A    between atoms: C_8  and  C_9 
REMARK    2  A    between atoms: C_12  and  N_13 
REMARK       I    between atoms: N_13  and  C_14 
REMARK    3  A    between atoms: C_14  and  C_15 
REMARK    4  A    between atoms: C_17  and  N_18 
ROOT
HETATM    1  C   UNL     1      42.629 -16.443   1.738  1.00  0.00     0.010 A 
HETATM    2  C   UNL     1      42.566 -15.096   2.114  1.00  0.00     0.017 A 
HETATM    3  C   UNL     1      41.962 -14.144   1.282  1.00  0.00     0.030 A 
HETATM    4  C   UNL     1      41.411 -14.515   0.056  1.00  0.00     0.035 A 
HETATM    5  C   UNL     1      41.540 -15.844  -0.360  1.00  0.00     0.030 A 
HETATM    6  C   UNL     1      42.140 -16.798   0.474  1.00  0.00     0.017 A 
ENDROOT
BRANCH   4   7
HETATM    7  N   UNL     1      40.679 -13.634  -0.773  1.00  0.00    -0.323 N 
HETATM    8  C   UNL     1      39.301 -13.536  -0.842  1.00  0.00     0.256 C 
HETATM    9  O   UNL     1      38.478 -14.096  -0.127  1.00  0.00    -0.267 OA
HETATM   10  H   UNL     1      41.214 -13.157  -1.490  1.00  0.00     0.169 HD
BRANCH   8  11
HETATM   11  C   UNL     1      38.786 -12.732  -1.978  1.00  0.00     0.034 A 
HETATM   12  C   UNL     1      37.420 -12.691  -2.301  1.00  0.00     0.047 A 
HETATM   13  C   UNL     1      36.954 -11.927  -3.389  1.00  0.00     0.046 A 
HETATM   14  C   UNL     1      37.914 -11.206  -4.122  1.00  0.00     0.030 A 
HETATM   15  C   UNL     1      39.276 -11.253  -3.807  1.00  0.00     0.003 A 
HETATM   16  C   UNL     1      39.714 -12.024  -2.740  1.00  0.00     0.017 A 
BRANCH  13  17
HETATM   17  N   UNL     1      35.567 -11.895  -3.745  1.00  0.00    -0.252 N 
HETATM   18  C   UNL     1      34.662 -10.964  -3.281  1.00  0.00     0.231 C 
HETATM   19  O   UNL     1      34.861  -9.957  -2.614  1.00  0.00    -0.273 OA
HETATM   20  C   UNL     1      33.285 -11.358  -3.721  1.00  0.00     0.113 C 
HETATM   21  C   UNL     1      33.536 -12.347  -4.828  1.00  0.00     0.113 C 
HETATM   22  C   UNL     1      34.953 -12.782  -4.606  1.00  0.00     0.231 C 
HETATM   23  O   UNL     1      35.406 -13.775  -5.160  1.00  0.00    -0.273 OA
ENDBRANCH  13  17
ENDBRANCH   8  11
ENDBRANCH   4   7
BRANCH   1  24
HETATM   24  C   UNL     1      43.144 -17.478   2.639  1.00  0.00     0.139 A 
HETATM   25  N   UNL     1      42.991 -17.438   4.009  1.00  0.00    -0.338 N 
HETATM   26  C   UNL     1      43.493 -18.591   4.549  1.00  0.00     0.063 A 
HETATM   27  H   UNL     1      42.530 -16.705   4.525  1.00  0.00     0.167 HD
HETATM   28  C   UNL     1      43.964 -19.300   3.453  1.00  0.00     0.086 A 
HETATM   29  C   UNL     1      43.561 -19.064   5.859  1.00  0.00     0.032 A 
HETATM   30  C   UNL     1      44.553 -20.558   3.655  1.00  0.00     0.040 A 
HETATM   31  N   UNL     1      43.740 -18.605   2.288  1.00  0.00    -0.228 NA
HETATM   32  C   UNL     1      44.649 -21.066   4.964  1.00  0.00    -0.060 A 
HETATM   33  C   UNL     1      45.244 -22.422   5.210  1.00  0.00     0.048 C 
HETATM   34  C   UNL     1      44.146 -20.322   6.042  1.00  0.00     0.009 A 
ENDBRANCH   1  24
TORSDOF 4
ENDMDL
MODEL 10
REMARK VINA RESULT:      -8.1      2.785     11.085
REMARK  4 active torsions:
REMARK  status: ('A' for Active; 'I' for Inactive)
REMARK    1  A    between atoms: C_8  and  C_9 
REMARK    2  A    between atoms: C_12  and  N_13 
REMARK       I    between atoms: N_13  and  C_14 
REMARK    3  A    between atoms: C_14  and  C_15 
REMARK    4  A    between atoms: C_17  and  N_18 
ROOT
HETATM    1  C   UNL     1      40.600 -10.635   9.126  1.00  0.00     0.010 A 
HETATM    2  C   UNL     1      39.455 -11.319   8.704  1.00  0.00     0.017 A 
HETATM    3  C   UNL     1      39.449 -12.040   7.503  1.00  0.00     0.030 A 
HETATM    4  C   UNL     1      40.585 -12.091   6.696  1.00  0.00     0.035 A 
HETATM    5  C   UNL     1      41.707 -11.346   7.074  1.00  0.00     0.030 A 
HETATM    6  C   UNL     1      41.715 -10.628   8.277  1.00  0.00     0.017 A 
ENDROOT
BRANCH   4   7
HETATM    7  N   UNL     1      40.689 -12.897   5.539  1.00  0.00    -0.323 N 
HETATM    8  C   UNL     1      39.857 -12.848   4.435  1.00  0.00     0.256 C 
HETATM    9  O   UNL     1      38.968 -12.035   4.208  1.00  0.00    -0.267 OA
HETATM   10  H   UNL     1      41.327 -13.681   5.604  1.00  0.00     0.169 HD
BRANCH   8  11
HETATM   11  C   UNL     1      40.014 -13.974   3.481  1.00  0.00     0.034 A 
HETATM   12  C   UNL     1      40.953 -14.998   3.688  1.00  0.00     0.047 A 
HETATM   13  C   UNL     1      41.090 -16.053   2.765  1.00  0.00     0.046 A 
HETATM   14  C   UNL     1      40.241 -16.038   1.643  1.00  0.00     0.030 A 
HETATM   15  C   UNL     1      39.312 -15.013   1.431  1.00  0.00     0.003 A 
HETATM   16  C   UNL     1      39.204 -13.976   2.346  1.00  0.00     0.017 A 
BRANCH  13  17
HETATM   17  N   UNL     1      42.059 -17.091   2.949  1.00  0.00    -0.252 N 
HETATM   18  C   UNL     1      42.100 -17.939   4.037  1.00  0.00     0.231 C 
HETATM   19  O   UNL     1      41.295 -18.065   4.950  1.00  0.00    -0.273 OA
HETATM   20  C   UNL     1      43.352 -18.761   3.969  1.00  0.00     0.113 C 
HETATM   21  C   UNL     1      43.797 -18.613   2.539  1.00  0.00     0.113 C 
HETATM   22  C   UNL     1      43.075 -17.389   2.063  1.00  0.00     0.231 C 
HETATM   23  O   UNL     1      43.401 -16.822   1.029  1.00  0.00    -0.273 OA
ENDBRANCH  13  17
ENDBRANCH   8  11
ENDBRANCH   4   7
BRANCH   1  24
HETATM   24  C   UNL     1      40.674  -9.976  10.434  1.00  0.00     0.139 A 
HETATM   25  N   UNL     1      39.757  -9.043  10.868  1.00  0.00    -0.338 N 
HETATM   26  C   UNL     1      40.050  -8.694  12.159  1.00  0.00     0.063 A 
HETATM   27  H   UNL     1      38.963  -8.714  10.341  1.00  0.00     0.167 HD
HETATM   28  C   UNL     1      41.181  -9.439  12.461  1.00  0.00     0.086 A 
HETATM   29  C   UNL     1      39.432  -7.829  13.062  1.00  0.00     0.032 A 
HETATM   30  C   UNL     1      41.755  -9.321  13.736  1.00  0.00     0.040 A 
HETATM   31  N   UNL     1      41.550 -10.222  11.393  1.00  0.00    -0.228 NA
HETATM   32  C   UNL     1      41.168  -8.450  14.673  1.00  0.00    -0.060 A 
HETATM   33  C   UNL     1      41.739  -8.326  16.056  1.00  0.00     0.048 C 
HETATM   34  C   UNL     1      40.015  -7.728  14.331  1.00  0.00     0.009 A 
ENDBRANCH   1  24
TORSDOF 4
ENDMDL
