MODEL 1
REMARK VINA RESULT:      -9.7      0.000      0.000
REMARK  6 active torsions:
REMARK  status: ('A' for Active; 'I' for Inactive)
REMARK    1  A    between atoms: C_2  and  N_3 
REMARK    2  A    between atoms: C_2  and  C_32 
REMARK       I    between atoms: N_3  and  C_4 
REMARK    3  A    between atoms: C_4  and  C_5 
REMARK    4  A    between atoms: C_6  and  N_7 
REMARK       I    between atoms: N_7  and  C_8 
REMARK    5  A    between atoms: C_8  and  C_9 
REMARK    6  A    between atoms: C_9  and  N_10 
ROOT
HETATM    1  N   UNL     1      44.474 -18.933   2.510  1.00  0.00    -0.325 N 
HETATM    2  C   UNL     1      43.330 -18.168   2.307  1.00  0.00     0.240 C 
HETATM    3  O   UNL     1      42.277 -18.331   2.923  1.00  0.00    -0.271 OA
HETATM    4  H   UNL     1      45.074 -19.015   1.687  1.00  0.00     0.169 HD
ENDROOT
BRANCH   1   5
HETATM    5  C   UNL     1      44.463 -20.041   3.386  1.00  0.00     0.050 A 
HETATM    6  C   UNL     1      44.448 -19.941   4.791  1.00  0.00     0.058 A 
HETATM    7  C   UNL     1      44.473 -21.113   5.568  1.00  0.00     0.019 A 
HETATM    8  C   UNL     1      44.502 -22.370   4.962  1.00  0.00     0.001 A 
HETATM    9  C   UNL     1      44.549 -22.466   3.575  1.00  0.00     0.002 A 
HETATM   10  C   UNL     1      44.549 -21.310   2.792  1.00  0.00     0.030 A 
BRANCH   6  11
HETATM   11  C   UNL     1      44.635 -18.678   5.551  1.00  0.00     0.254 C 
HETATM   12  N   UNL     1      43.511 -17.960   5.866  1.00  0.00    -0.349 N 
HETATM   13  H   UNL     1      42.605 -18.385   5.679  1.00  0.00     0.163 HD
HETATM   14  O   UNL     1      45.765 -18.358   5.910  1.00  0.00    -0.268 OA
BRANCH  12  15
HETATM   15  C   UNL     1      43.566 -16.766   6.691  1.00  0.00     0.114 C 
HETATM   16  C   UNL     1      43.392 -17.118   8.168  1.00  0.00     0.037 C 
BRANCH  15  17
HETATM   17  C   UNL     1      42.543 -15.739   6.236  1.00  0.00    -0.036 A 
HETATM   18  C   UNL     1      42.888 -14.377   6.212  1.00  0.00     0.009 A 
HETATM   19  C   UNL     1      41.956 -13.411   5.824  1.00  0.00     0.001 A 
HETATM   20  C   UNL     1      40.671 -13.792   5.450  1.00  0.00     0.000 A 
HETATM   21  C   UNL     1      40.314 -15.139   5.464  1.00  0.00     0.001 A 
HETATM   22  C   UNL     1      41.241 -16.105   5.858  1.00  0.00     0.009 A 
ENDBRANCH  15  17
ENDBRANCH  12  15
ENDBRANCH   6  11
ENDBRANCH   1   5
BRANCH   2  23
HETATM   23  C   UNL     1      43.503 -17.054   1.280  1.00  0.00     0.240 C 
BRANCH  23  24
HETATM   24  N   UNL     1      42.669 -15.906   1.574  1.00  0.00    -0.259 N 
HETATM   25  C   UNL     1      42.994 -14.897   2.423  1.00  0.00     0.326 C 
HETATM   26  O   UNL     1      44.006 -14.776   3.089  1.00  0.00    -0.247 OA
HETATM   27  N   UNL     1      41.971 -13.973   2.408  1.00  0.00    -0.324 N 
HETATM   28  C   UNL     1      41.020 -14.225   1.337  1.00  0.00     0.120 C 
HETATM   29  H   UNL     1      42.092 -13.089   2.889  1.00  0.00     0.165 HD
HETATM   30  C   UNL     1      41.318 -13.314   0.137  1.00  0.00     0.080 C 
HETATM   31  C   UNL     1      39.578 -14.090   1.805  1.00  0.00     0.046 C 
HETATM   32  C   UNL     1      41.448 -15.668   1.012  1.00  0.00     0.257 C 
HETATM   33  C   UNL     1      40.258 -13.361  -0.933  1.00  0.00    -0.049 A 
HETATM   34  C   UNL     1      38.960 -13.827  -0.660  1.00  0.00    -0.052 A 
HETATM   35  C   UNL     1      40.572 -12.900  -2.220  1.00  0.00     0.007 A 
HETATM   36  C   UNL     1      38.572 -14.377   0.689  1.00  0.00     0.042 C 
HETATM   37  C   UNL     1      38.012 -13.851  -1.696  1.00  0.00     0.007 A 
HETATM   38  C   UNL     1      38.341 -13.405  -2.975  1.00  0.00     0.001 A 
HETATM   39  C   UNL     1      39.621 -12.927  -3.238  1.00  0.00     0.001 A 
HETATM   40  O   UNL     1      40.831 -16.485   0.341  1.00  0.00    -0.270 OA
ENDBRANCH  23  24
ENDBRANCH   2  23
TORSDOF 6
ENDMDL
MODEL 2
REMARK VINA RESULT:      -9.3      3.678      7.100
REMARK  6 active torsions:
REMARK  status: ('A' for Active; 'I' for Inactive)
REMARK    1  A    between atoms: C_2  and  N_3 
REMARK    2  A    between atoms: C_2  and  C_32 
REMARK       I    between atoms: N_3  and  C_4 
REMARK    3  A    between atoms: C_4  and  C_5 
REMARK    4  A    between atoms: C_6  and  N_7 
REMARK       I    between atoms: N_7  and  C_8 
REMARK    5  A    between atoms: C_8  and  C_9 
REMARK    6  A    between atoms: C_9  and  N_10 
ROOT
HETATM    1  N   UNL     1      42.199 -11.393   7.939  1.00  0.00    -0.325 N 
HETATM    2  C   UNL     1      41.805 -10.285   7.198  1.00  0.00     0.240 C 
HETATM    3  O   UNL     1      42.079  -9.123   7.500  1.00  0.00    -0.271 OA
HETATM    4  H   UNL     1      41.568 -12.194   7.864  1.00  0.00     0.169 HD
ENDROOT
BRANCH   1   5
HETATM    5  C   UNL     1      42.869 -11.243   9.174  1.00  0.00     0.050 A 
HETATM    6  C   UNL     1      44.180 -11.693   9.425  1.00  0.00     0.058 A 
HETATM    7  C   UNL     1      44.736 -11.521  10.705  1.00  0.00     0.019 A 
HETATM    8  C   UNL     1      44.010 -10.901  11.722  1.00  0.00     0.001 A 
HETATM    9  C   UNL     1      42.704 -10.485  11.481  1.00  0.00     0.002 A 
HETATM   10  C   UNL     1      42.130 -10.672  10.222  1.00  0.00     0.030 A 
BRANCH   6  11
HETATM   11  C   UNL     1      44.970 -12.552   8.505  1.00  0.00     0.254 C 
HETATM   12  N   UNL     1      44.333 -13.630   7.948  1.00  0.00    -0.349 N 
HETATM   13  H   UNL     1      43.328 -13.716   8.087  1.00  0.00     0.163 HD
HETATM   14  O   UNL     1      46.127 -12.239   8.241  1.00  0.00    -0.268 OA
BRANCH  12  15
HETATM   15  C   UNL     1      44.977 -14.477   6.959  1.00  0.00     0.114 C 
HETATM   16  C   UNL     1      44.813 -13.895   5.555  1.00  0.00     0.037 C 
BRANCH  15  17
HETATM   17  C   UNL     1      44.458 -15.903   7.038  1.00  0.00    -0.036 A 
HETATM   18  C   UNL     1      44.943 -16.871   6.144  1.00  0.00     0.009 A 
HETATM   19  C   UNL     1      44.461 -18.182   6.179  1.00  0.00     0.001 A 
HETATM   20  C   UNL     1      43.492 -18.544   7.110  1.00  0.00     0.000 A 
HETATM   21  C   UNL     1      43.002 -17.597   8.007  1.00  0.00     0.001 A 
HETATM   22  C   UNL     1      43.478 -16.285   7.969  1.00  0.00     0.009 A 
ENDBRANCH  15  17
ENDBRANCH  12  15
ENDBRANCH   6  11
ENDBRANCH   1   5
BRANCH   2  23
HETATM   23  C   UNL     1      41.036 -10.630   5.926  1.00  0.00     0.240 C 
BRANCH  23  24
HETATM   24  N   UNL     1      40.728 -12.043   5.840  1.00  0.00    -0.259 N 
HETATM   25  C   UNL     1      39.788 -12.688   6.578  1.00  0.00     0.326 C 
HETATM   26  O   UNL     1      39.059 -12.221   7.434  1.00  0.00    -0.247 OA
HETATM   27  N   UNL     1      39.761 -14.009   6.185  1.00  0.00    -0.324 N 
HETATM   28  C   UNL     1      40.533 -14.237   4.974  1.00  0.00     0.120 C 
HETATM   29  H   UNL     1      39.033 -14.619   6.541  1.00  0.00     0.165 HD
HETATM   30  C   UNL     1      39.605 -14.274   3.752  1.00  0.00     0.080 C 
HETATM   31  C   UNL     1      41.396 -15.487   5.068  1.00  0.00     0.046 C 
HETATM   32  C   UNL     1      41.328 -12.917   4.981  1.00  0.00     0.257 C 
HETATM   33  C   UNL     1      40.294 -14.712   2.485  1.00  0.00    -0.049 A 
HETATM   34  C   UNL     1      41.507 -15.421   2.516  1.00  0.00    -0.052 A 
HETATM   35  C   UNL     1      39.690 -14.427   1.251  1.00  0.00     0.007 A 
HETATM   36  C   UNL     1      42.228 -15.720   3.806  1.00  0.00     0.042 C 
HETATM   37  C   UNL     1      42.107 -15.802   1.305  1.00  0.00     0.007 A 
HETATM   38  C   UNL     1      41.505 -15.499   0.084  1.00  0.00     0.001 A 
HETATM   39  C   UNL     1      40.295 -14.813   0.056  1.00  0.00     0.001 A 
HETATM   40  O   UNL     1      42.323 -12.654   4.317  1.00  0.00    -0.270 OA
ENDBRANCH  23  24
ENDBRANCH   2  23
TORSDOF 6
ENDMDL
MODEL 3
REMARK VINA RESULT:      -9.2      1.651      3.375
REMARK  6 active torsions:
REMARK  status: ('A' for Active; 'I' for Inactive)
REMARK    1  A    between atoms: C_2  and  N_3 
REMARK    2  A    between atoms: C_2  and  C_32 
REMARK       I    between atoms: N_3  and  C_4 
REMARK    3  A    between atoms: C_4  and  C_5 
REMARK    4  A    between atoms: C_6  and  N_7 
REMARK       I    between atoms: N_7  and  C_8 
REMARK    5  A    between atoms: C_8  and  C_9 
REMARK    6  A    between atoms: C_9  and  N_10 
ROOT
HETATM    1  N   UNL     1      44.427 -18.665   2.542  1.00  0.00    -0.325 N 
HETATM    2  C   UNL     1      43.359 -17.790   2.708  1.00  0.00     0.240 C 
HETATM    3  O   UNL     1      42.429 -17.982   3.492  1.00  0.00    -0.271 OA
HETATM    4  H   UNL     1      44.848 -18.640   1.611  1.00  0.00     0.169 HD
ENDROOT
BRANCH   1   5
HETATM    5  C   UNL     1      44.458 -19.911   3.207  1.00  0.00     0.050 A 
HETATM    6  C   UNL     1      44.624 -20.064   4.597  1.00  0.00     0.058 A 
HETATM    7  C   UNL     1      44.674 -21.357   5.149  1.00  0.00     0.019 A 
HETATM    8  C   UNL     1      44.551 -22.485   4.337  1.00  0.00     0.001 A 
HETATM    9  C   UNL     1      44.418 -22.332   2.960  1.00  0.00     0.002 A 
HETATM   10  C   UNL     1      44.391 -21.055   2.396  1.00  0.00     0.030 A 
BRANCH   6  11
HETATM   11  C   UNL     1      44.981 -18.966   5.532  1.00  0.00     0.254 C 
HETATM   12  N   UNL     1      43.967 -18.413   6.270  1.00  0.00    -0.349 N 
HETATM   13  H   UNL     1      43.053 -18.860   6.237  1.00  0.00     0.163 HD
HETATM   14  O   UNL     1      46.159 -18.638   5.647  1.00  0.00    -0.268 OA
BRANCH  12  15
HETATM   15  C   UNL     1      44.216 -17.405   7.285  1.00  0.00     0.114 C 
HETATM   16  C   UNL     1      43.480 -17.746   8.581  1.00  0.00     0.037 C 
BRANCH  15  17
HETATM   17  C   UNL     1      43.851 -16.019   6.782  1.00  0.00    -0.036 A 
HETATM   18  C   UNL     1      44.658 -14.920   7.122  1.00  0.00     0.009 A 
HETATM   19  C   UNL     1      44.327 -13.632   6.694  1.00  0.00     0.001 A 
HETATM   20  C   UNL     1      43.191 -13.424   5.918  1.00  0.00     0.000 A 
HETATM   21  C   UNL     1      42.382 -14.504   5.568  1.00  0.00     0.001 A 
HETATM   22  C   UNL     1      42.707 -15.791   6.001  1.00  0.00     0.009 A 
ENDBRANCH  15  17
ENDBRANCH  12  15
ENDBRANCH   6  11
ENDBRANCH   1   5
BRANCH   2  23
HETATM   23  C   UNL     1      43.458 -16.522   1.865  1.00  0.00     0.240 C 
BRANCH  23  24
HETATM   24  N   UNL     1      42.158 -15.943   1.594  1.00  0.00    -0.259 N 
HETATM   25  C   UNL     1      41.105 -16.601   1.043  1.00  0.00     0.326 C 
HETATM   26  O   UNL     1      41.058 -17.759   0.671  1.00  0.00    -0.247 OA
HETATM   27  N   UNL     1      40.036 -15.731   0.982  1.00  0.00    -0.324 N 
HETATM   28  C   UNL     1      40.279 -14.509   1.732  1.00  0.00     0.120 C 
HETATM   29  H   UNL     1      39.124 -16.083   0.712  1.00  0.00     0.165 HD
HETATM   30  C   UNL     1      39.613 -14.592   3.113  1.00  0.00     0.080 C 
HETATM   31  C   UNL     1      39.843 -13.269   0.967  1.00  0.00     0.046 C 
HETATM   32  C   UNL     1      41.805 -14.656   1.883  1.00  0.00     0.257 C 
HETATM   33  C   UNL     1      39.639 -13.291   3.873  1.00  0.00    -0.049 A 
HETATM   34  C   UNL     1      39.839 -12.064   3.220  1.00  0.00    -0.052 A 
HETATM   35  C   UNL     1      39.426 -13.312   5.260  1.00  0.00     0.007 A 
HETATM   36  C   UNL     1      40.117 -11.978   1.741  1.00  0.00     0.042 C 
HETATM   37  C   UNL     1      39.856 -10.882   3.978  1.00  0.00     0.007 A 
HETATM   38  C   UNL     1      39.659 -10.916   5.359  1.00  0.00     0.001 A 
HETATM   39  C   UNL     1      39.442 -12.131   6.000  1.00  0.00     0.001 A 
HETATM   40  O   UNL     1      42.598 -13.789   2.228  1.00  0.00    -0.270 OA
ENDBRANCH  23  24
ENDBRANCH   2  23
TORSDOF 6
ENDMDL
MODEL 4
REMARK VINA RESULT:      -9.0      2.950      4.228
REMARK  6 active torsions:
REMARK  status: ('A' for Active; 'I' for Inactive)
REMARK    1  A    between atoms: C_2  and  N_3 
REMARK    2  A    between atoms: C_2  and  C_32 
REMARK       I    between atoms: N_3  and  C_4 
REMARK    3  A    between atoms: C_4  and  C_5 
REMARK    4  A    between atoms: C_6  and  N_7 
REMARK       I    between atoms: N_7  and  C_8 
REMARK    5  A    between atoms: C_8  and  C_9 
REMARK    6  A    between atoms: C_9  and  N_10 
ROOT
HETATM    1  N   UNL     1      41.323 -15.620   5.452  1.00  0.00    -0.325 N 
HETATM    2  C   UNL     1      41.080 -15.294   4.122  1.00  0.00     0.240 C 
HETATM    3  O   UNL     1      41.738 -15.729   3.177  1.00  0.00    -0.271 OA
HETATM    4  H   UNL     1      41.048 -14.895   6.118  1.00  0.00     0.169 HD
ENDROOT
BRANCH   1   5
HETATM    5  C   UNL     1      42.437 -16.409   5.817  1.00  0.00     0.050 A 
HETATM    6  C   UNL     1      43.614 -15.899   6.398  1.00  0.00     0.058 A 
HETATM    7  C   UNL     1      44.676 -16.774   6.690  1.00  0.00     0.019 A 
HETATM    8  C   UNL     1      44.571 -18.138   6.419  1.00  0.00     0.001 A 
HETATM    9  C   UNL     1      43.420 -18.636   5.816  1.00  0.00     0.002 A 
HETATM   10  C   UNL     1      42.368 -17.774   5.498  1.00  0.00     0.030 A 
BRANCH   6  11
HETATM   11  C   UNL     1      43.933 -14.455   6.534  1.00  0.00     0.254 C 
HETATM   12  N   UNL     1      44.369 -14.018   7.758  1.00  0.00    -0.349 N 
HETATM   13  H   UNL     1      44.575 -14.718   8.469  1.00  0.00     0.163 HD
HETATM   14  O   UNL     1      43.847 -13.728   5.548  1.00  0.00    -0.268 OA
BRANCH  12  15
HETATM   15  C   UNL     1      44.804 -12.650   7.977  1.00  0.00     0.114 C 
HETATM   16  C   UNL     1      46.328 -12.575   8.078  1.00  0.00     0.037 C 
BRANCH  15  17
HETATM   17  C   UNL     1      44.132 -12.051   9.200  1.00  0.00    -0.036 A 
HETATM   18  C   UNL     1      43.171 -11.039   9.041  1.00  0.00     0.009 A 
HETATM   19  C   UNL     1      42.558 -10.453  10.151  1.00  0.00     0.001 A 
HETATM   20  C   UNL     1      42.893 -10.874  11.435  1.00  0.00     0.000 A 
HETATM   21  C   UNL     1      43.841 -11.880  11.611  1.00  0.00     0.001 A 
HETATM   22  C   UNL     1      44.459 -12.461  10.503  1.00  0.00     0.009 A 
ENDBRANCH  15  17
ENDBRANCH  12  15
ENDBRANCH   6  11
ENDBRANCH   1   5
BRANCH   2  23
HETATM   23  C   UNL     1      39.876 -14.381   3.917  1.00  0.00     0.240 C 
BRANCH  23  24
HETATM   24  N   UNL     1      40.053 -13.488   2.789  1.00  0.00    -0.259 N 
HETATM   25  C   UNL     1      40.903 -12.430   2.752  1.00  0.00     0.326 C 
HETATM   26  O   UNL     1      41.644 -12.034   3.633  1.00  0.00    -0.247 OA
HETATM   27  N   UNL     1      40.819 -11.852   1.503  1.00  0.00    -0.324 N 
HETATM   28  C   UNL     1      40.070 -12.675   0.567  1.00  0.00     0.120 C 
HETATM   29  H   UNL     1      41.475 -11.121   1.248  1.00  0.00     0.165 HD
HETATM   30  C   UNL     1      41.031 -13.483  -0.317  1.00  0.00     0.080 C 
HETATM   31  C   UNL     1      39.092 -11.856  -0.263  1.00  0.00     0.046 C 
HETATM   32  C   UNL     1      39.403 -13.607   1.595  1.00  0.00     0.257 C 
HETATM   33  C   UNL     1      40.347 -14.202  -1.450  1.00  0.00    -0.049 A 
HETATM   34  C   UNL     1      39.073 -13.817  -1.901  1.00  0.00    -0.052 A 
HETATM   35  C   UNL     1      41.015 -15.260  -2.085  1.00  0.00     0.007 A 
HETATM   36  C   UNL     1      38.284 -12.719  -1.234  1.00  0.00     0.042 C 
HETATM   37  C   UNL     1      38.480 -14.523  -2.960  1.00  0.00     0.007 A 
HETATM   38  C   UNL     1      39.148 -15.584  -3.573  1.00  0.00     0.001 A 
HETATM   39  C   UNL     1      40.417 -15.951  -3.137  1.00  0.00     0.001 A 
HETATM   40  O   UNL     1      38.459 -14.363   1.400  1.00  0.00    -0.270 OA
ENDBRANCH  23  24
ENDBRANCH   2  23
TORSDOF 6
ENDMDL
MODEL 5
REMARK VINA RESULT:      -9.0      4.532      9.433
REMARK  6 active torsions:
REMARK  status: ('A' for Active; 'I' for Inactive)
REMARK    1  A    between atoms: C_2  and  N_3 
REMARK    2  A    between atoms: C_2  and  C_32 
REMARK       I    between atoms: N_3  and  C_4 
REMARK    3  A    between atoms: C_4  and  C_5 
REMARK    4  A    between atoms: C_6  and  N_7 
REMARK       I    between atoms: N_7  and  C_8 
REMARK    5  A    between atoms: C_8  and  C_9 
REMARK    6  A    between atoms: C_9  and  N_10 
ROOT
HETATM    1  N   UNL     1      40.747 -13.324   4.611  1.00  0.00    -0.325 N 
HETATM    2  C   UNL     1      41.343 -12.125   4.988  1.00  0.00     0.240 C 
HETATM    3  O   UNL     1      41.404 -11.130   4.264  1.00  0.00    -0.271 OA
HETATM    4  H   UNL     1      41.143 -14.149   5.065  1.00  0.00     0.169 HD
ENDROOT
BRANCH   1   5
HETATM    5  C   UNL     1      40.254 -13.511   3.300  1.00  0.00     0.050 A 
HETATM    6  C   UNL     1      40.878 -14.312   2.325  1.00  0.00     0.058 A 
HETATM    7  C   UNL     1      40.316 -14.400   1.039  1.00  0.00     0.019 A 
HETATM    8  C   UNL     1      39.145 -13.711   0.723  1.00  0.00     0.001 A 
HETATM    9  C   UNL     1      38.546 -12.895   1.678  1.00  0.00     0.002 A 
HETATM   10  C   UNL     1      39.108 -12.780   2.952  1.00  0.00     0.030 A 
BRANCH   6  11
HETATM   11  C   UNL     1      42.229 -14.915   2.464  1.00  0.00     0.254 C 
HETATM   12  N   UNL     1      42.331 -16.274   2.316  1.00  0.00    -0.349 N 
HETATM   13  H   UNL     1      41.509 -16.783   1.996  1.00  0.00     0.163 HD
HETATM   14  O   UNL     1      43.196 -14.181   2.649  1.00  0.00    -0.268 OA
BRANCH  12  15
HETATM   15  C   UNL     1      43.613 -16.956   2.332  1.00  0.00     0.114 C 
HETATM   16  C   UNL     1      43.854 -17.690   1.013  1.00  0.00     0.037 C 
BRANCH  15  17
HETATM   17  C   UNL     1      43.719 -17.895   3.522  1.00  0.00    -0.036 A 
HETATM   18  C   UNL     1      43.290 -17.464   4.789  1.00  0.00     0.009 A 
HETATM   19  C   UNL     1      43.403 -18.299   5.903  1.00  0.00     0.001 A 
HETATM   20  C   UNL     1      43.940 -19.576   5.767  1.00  0.00     0.000 A 
HETATM   21  C   UNL     1      44.366 -20.020   4.517  1.00  0.00     0.001 A 
HETATM   22  C   UNL     1      44.261 -19.185   3.403  1.00  0.00     0.009 A 
ENDBRANCH  15  17
ENDBRANCH  12  15
ENDBRANCH   6  11
ENDBRANCH   1   5
BRANCH   2  23
HETATM   23  C   UNL     1      41.879 -12.120   6.416  1.00  0.00     0.240 C 
BRANCH  23  24
HETATM   24  N   UNL     1      41.019 -11.383   7.319  1.00  0.00    -0.259 N 
HETATM   25  C   UNL     1      39.667 -11.493   7.382  1.00  0.00     0.326 C 
HETATM   26  O   UNL     1      38.942 -12.198   6.704  1.00  0.00    -0.247 OA
HETATM   27  N   UNL     1      39.212 -10.666   8.387  1.00  0.00    -0.324 N 
HETATM   28  C   UNL     1      40.296 -10.150   9.207  1.00  0.00     0.120 C 
HETATM   29  H   UNL     1      38.237 -10.710   8.663  1.00  0.00     0.165 HD
HETATM   30  C   UNL     1      40.426 -10.975  10.495  1.00  0.00     0.080 C 
HETATM   31  C   UNL     1      40.140  -8.665   9.499  1.00  0.00     0.046 C 
HETATM   32  C   UNL     1      41.458 -10.490   8.254  1.00  0.00     0.257 C 
HETATM   33  C   UNL     1      41.386 -10.383  11.495  1.00  0.00    -0.049 A 
HETATM   34  C   UNL     1      41.760  -9.029  11.440  1.00  0.00    -0.052 A 
HETATM   35  C   UNL     1      41.889 -11.200  12.519  1.00  0.00     0.007 A 
HETATM   36  C   UNL     1      41.290  -8.111  10.341  1.00  0.00     0.042 C 
HETATM   37  C   UNL     1      42.660  -8.530  12.396  1.00  0.00     0.007 A 
HETATM   38  C   UNL     1      43.166  -9.356  13.400  1.00  0.00     0.001 A 
HETATM   39  C   UNL     1      42.779 -10.691  13.463  1.00  0.00     0.001 A 
HETATM   40  O   UNL     1      42.606 -10.068   8.313  1.00  0.00    -0.270 OA
ENDBRANCH  23  24
ENDBRANCH   2  23
TORSDOF 6
ENDMDL
MODEL 6
REMARK VINA RESULT:      -9.0      2.284      5.996
REMARK  6 active torsions:
REMARK  status: ('A' for Active; 'I' for Inactive)
REMARK    1  A    between atoms: C_2  and  N_3 
REMARK    2  A    between atoms: C_2  and  C_32 
REMARK       I    between atoms: N_3  and  C_4 
REMARK    3  A    between atoms: C_4  and  C_5 
REMARK    4  A    between atoms: C_6  and  N_7 
REMARK       I    between atoms: N_7  and  C_8 
REMARK    5  A    between atoms: C_8  and  C_9 
REMARK    6  A    between atoms: C_9  and  N_10 
ROOT
HETATM    1  N   UNL     1      41.282 -12.536   2.915  1.00  0.00    -0.325 N 
HETATM    2  C   UNL     1      39.894 -12.606   2.933  1.00  0.00     0.240 C 
HETATM    3  O   UNL     1      39.240 -13.043   3.880  1.00  0.00    -0.271 OA
HETATM    4  H   UNL     1      41.693 -12.597   1.981  1.00  0.00     0.169 HD
ENDROOT
BRANCH   1   5
HETATM    5  C   UNL     1      42.052 -13.075   3.970  1.00  0.00     0.050 A 
HETATM    6  C   UNL     1      42.807 -14.260   3.876  1.00  0.00     0.058 A 
HETATM    7  C   UNL     1      43.510 -14.723   5.002  1.00  0.00     0.019 A 
HETATM    8  C   UNL     1      43.476 -14.017   6.205  1.00  0.00     0.001 A 
HETATM    9  C   UNL     1      42.705 -12.863   6.306  1.00  0.00     0.002 A 
HETATM   10  C   UNL     1      41.982 -12.405   5.202  1.00  0.00     0.030 A 
BRANCH   6  11
HETATM   11  C   UNL     1      42.752 -15.209   2.734  1.00  0.00     0.254 C 
HETATM   12  N   UNL     1      42.954 -16.537   3.008  1.00  0.00    -0.349 N 
HETATM   13  H   UNL     1      43.003 -16.821   3.985  1.00  0.00     0.163 HD
HETATM   14  O   UNL     1      42.479 -14.783   1.615  1.00  0.00    -0.268 OA
BRANCH  12  15
HETATM   15  C   UNL     1      42.824 -17.562   1.988  1.00  0.00     0.114 C 
HETATM   16  C   UNL     1      41.363 -17.727   1.568  1.00  0.00     0.037 C 
BRANCH  15  17
HETATM   17  C   UNL     1      43.424 -18.877   2.453  1.00  0.00    -0.036 A 
HETATM   18  C   UNL     1      44.069 -18.946   3.699  1.00  0.00     0.009 A 
HETATM   19  C   UNL     1      44.654 -20.137   4.137  1.00  0.00     0.001 A 
HETATM   20  C   UNL     1      44.597 -21.276   3.339  1.00  0.00     0.000 A 
HETATM   21  C   UNL     1      43.957 -21.226   2.103  1.00  0.00     0.001 A 
HETATM   22  C   UNL     1      43.379 -20.035   1.660  1.00  0.00     0.009 A 
ENDBRANCH  15  17
ENDBRANCH  12  15
ENDBRANCH   6  11
ENDBRANCH   1   5
BRANCH   2  23
HETATM   23  C   UNL     1      39.227 -12.036   1.685  1.00  0.00     0.240 C 
BRANCH  23  24
HETATM   24  N   UNL     1      39.441 -12.871   0.521  1.00  0.00    -0.259 N 
HETATM   25  C   UNL     1      38.727 -13.985   0.212  1.00  0.00     0.326 C 
HETATM   26  O   UNL     1      37.811 -14.484   0.839  1.00  0.00    -0.247 OA
HETATM   27  N   UNL     1      39.198 -14.481  -0.985  1.00  0.00    -0.324 N 
HETATM   28  C   UNL     1      40.100 -13.553  -1.648  1.00  0.00     0.120 C 
HETATM   29  H   UNL     1      38.702 -15.241  -1.437  1.00  0.00     0.165 HD
HETATM   30  C   UNL     1      39.351 -12.766  -2.732  1.00  0.00     0.080 C 
HETATM   31  C   UNL     1      41.334 -14.248  -2.204  1.00  0.00     0.046 C 
HETATM   32  C   UNL     1      40.380 -12.636  -0.442  1.00  0.00     0.257 C 
HETATM   33  C   UNL     1      40.254 -11.935  -3.606  1.00  0.00    -0.049 A 
HETATM   34  C   UNL     1      41.630 -12.199  -3.701  1.00  0.00    -0.052 A 
HETATM   35  C   UNL     1      39.695 -10.893  -4.362  1.00  0.00     0.007 A 
HETATM   36  C   UNL     1      42.299 -13.274  -2.882  1.00  0.00     0.042 C 
HETATM   37  C   UNL     1      42.426 -11.391  -4.528  1.00  0.00     0.007 A 
HETATM   38  C   UNL     1      41.862 -10.348  -5.263  1.00  0.00     0.001 A 
HETATM   39  C   UNL     1      40.495 -10.100  -5.182  1.00  0.00     0.001 A 
HETATM   40  O   UNL     1      41.272 -11.804  -0.341  1.00  0.00    -0.270 OA
ENDBRANCH  23  24
ENDBRANCH   2  23
TORSDOF 6
ENDMDL
MODEL 7
REMARK VINA RESULT:      -8.9      3.039      8.610
REMARK  6 active torsions:
REMARK  status: ('A' for Active; 'I' for Inactive)
REMARK    1  A    between atoms: C_2  and  N_3 
REMARK    2  A    between atoms: C_2  and  C_32 
REMARK       I    between atoms: N_3  and  C_4 
REMARK    3  A    between atoms: C_4  and  C_5 
REMARK    4  A    between atoms: C_6  and  N_7 
REMARK       I    between atoms: N_7  and  C_8 
REMARK    5  A    between atoms: C_8  and  C_9 
REMARK    6  A    between atoms: C_9  and  N_10 
ROOT
HETATM    1  N   UNL     1      38.995 -11.154   3.982  1.00  0.00    -0.325 N 
HETATM    2  C   UNL     1      40.349 -10.980   3.717  1.00  0.00     0.240 C 
HETATM    3  O   UNL     1      40.790 -10.532   2.659  1.00  0.00    -0.271 OA
HETATM    4  H   UNL     1      38.790 -11.908   4.640  1.00  0.00     0.169 HD
ENDROOT
BRANCH   1   5
HETATM    5  C   UNL     1      38.022 -10.917   2.985  1.00  0.00     0.050 A 
HETATM    6  C   UNL     1      37.809 -11.751   1.871  1.00  0.00     0.058 A 
HETATM    7  C   UNL     1      36.834 -11.399   0.921  1.00  0.00     0.019 A 
HETATM    8  C   UNL     1      36.071 -10.241   1.075  1.00  0.00     0.001 A 
HETATM    9  C   UNL     1      36.304  -9.402   2.160  1.00  0.00     0.002 A 
HETATM   10  C   UNL     1      37.287  -9.727   3.098  1.00  0.00     0.030 A 
BRANCH   6  11
HETATM   11  C   UNL     1      38.690 -12.882   1.480  1.00  0.00     0.254 C 
HETATM   12  N   UNL     1      39.529 -12.687   0.413  1.00  0.00    -0.349 N 
HETATM   13  H   UNL     1      39.600 -11.748   0.027  1.00  0.00     0.163 HD
HETATM   14  O   UNL     1      38.673 -13.912   2.148  1.00  0.00    -0.268 OA
BRANCH  12  15
HETATM   15  C   UNL     1      40.502 -13.685   0.008  1.00  0.00     0.114 C 
HETATM   16  C   UNL     1      41.901 -13.075  -0.081  1.00  0.00     0.037 C 
BRANCH  15  17
HETATM   17  C   UNL     1      40.096 -14.347  -1.298  1.00  0.00    -0.036 A 
HETATM   18  C   UNL     1      40.945 -15.296  -1.892  1.00  0.00     0.009 A 
HETATM   19  C   UNL     1      40.607 -15.897  -3.106  1.00  0.00     0.001 A 
HETATM   20  C   UNL     1      39.415 -15.563  -3.742  1.00  0.00     0.000 A 
HETATM   21  C   UNL     1      38.559 -14.627  -3.165  1.00  0.00     0.001 A 
HETATM   22  C   UNL     1      38.898 -14.020  -1.955  1.00  0.00     0.009 A 
ENDBRANCH  15  17
ENDBRANCH  12  15
ENDBRANCH   6  11
ENDBRANCH   1   5
BRANCH   2  23
HETATM   23  C   UNL     1      41.262 -11.345   4.884  1.00  0.00     0.240 C 
BRANCH  23  24
HETATM   24  N   UNL     1      41.141 -12.740   5.256  1.00  0.00    -0.259 N 
HETATM   25  C   UNL     1      40.139 -13.269   6.004  1.00  0.00     0.326 C 
HETATM   26  O   UNL     1      39.190 -12.690   6.500  1.00  0.00    -0.247 OA
HETATM   27  N   UNL     1      40.349 -14.628   6.109  1.00  0.00    -0.324 N 
HETATM   28  C   UNL     1      41.392 -15.093   5.209  1.00  0.00     0.120 C 
HETATM   29  H   UNL     1      39.633 -15.210   6.530  1.00  0.00     0.165 HD
HETATM   30  C   UNL     1      40.769 -15.696   3.942  1.00  0.00     0.080 C 
HETATM   31  C   UNL     1      42.346 -16.065   5.888  1.00  0.00     0.046 C 
HETATM   32  C   UNL     1      42.012 -13.722   4.880  1.00  0.00     0.257 C 
HETATM   33  C   UNL     1      41.767 -16.389   3.051  1.00  0.00    -0.049 A 
HETATM   34  C   UNL     1      43.014 -16.816   3.539  1.00  0.00    -0.052 A 
HETATM   35  C   UNL     1      41.425 -16.637   1.713  1.00  0.00     0.007 A 
HETATM   36  C   UNL     1      43.459 -16.540   4.953  1.00  0.00     0.042 C 
HETATM   37  C   UNL     1      43.908 -17.455   2.664  1.00  0.00     0.007 A 
HETATM   38  C   UNL     1      43.563 -17.682   1.332  1.00  0.00     0.001 A 
HETATM   39  C   UNL     1      42.320 -17.275   0.856  1.00  0.00     0.001 A 
HETATM   40  O   UNL     1      43.093 -13.513   4.346  1.00  0.00    -0.270 OA
ENDBRANCH  23  24
ENDBRANCH   2  23
TORSDOF 6
ENDMDL
MODEL 8
REMARK VINA RESULT:      -8.8      2.759      8.662
REMARK  6 active torsions:
REMARK  status: ('A' for Active; 'I' for Inactive)
REMARK    1  A    between atoms: C_2  and  N_3 
REMARK    2  A    between atoms: C_2  and  C_32 
REMARK       I    between atoms: N_3  and  C_4 
REMARK    3  A    between atoms: C_4  and  C_5 
REMARK    4  A    between atoms: C_6  and  N_7 
REMARK       I    between atoms: N_7  and  C_8 
REMARK    5  A    between atoms: C_8  and  C_9 
REMARK    6  A    between atoms: C_9  and  N_10 
ROOT
HETATM    1  N   UNL     1      40.797 -13.954   2.095  1.00  0.00    -0.325 N 
HETATM    2  C   UNL     1      41.875 -13.282   2.661  1.00  0.00     0.240 C 
HETATM    3  O   UNL     1      42.839 -12.867   2.018  1.00  0.00    -0.271 OA
HETATM    4  H   UNL     1      40.333 -14.610   2.727  1.00  0.00     0.169 HD
ENDROOT
BRANCH   1   5
HETATM    5  C   UNL     1      40.792 -14.302   0.726  1.00  0.00     0.050 A 
HETATM    6  C   UNL     1      40.265 -13.490  -0.297  1.00  0.00     0.058 A 
HETATM    7  C   UNL     1      40.282 -13.951  -1.625  1.00  0.00     0.019 A 
HETATM    8  C   UNL     1      40.824 -15.197  -1.940  1.00  0.00     0.001 A 
HETATM    9  C   UNL     1      41.317 -16.012  -0.925  1.00  0.00     0.002 A 
HETATM   10  C   UNL     1      41.283 -15.576   0.401  1.00  0.00     0.030 A 
BRANCH   6  11
HETATM   11  C   UNL     1      39.472 -12.253  -0.071  1.00  0.00     0.254 C 
HETATM   12  N   UNL     1      38.153 -12.274  -0.441  1.00  0.00    -0.349 N 
HETATM   13  H   UNL     1      37.752 -13.164  -0.730  1.00  0.00     0.163 HD
HETATM   14  O   UNL     1      40.005 -11.293   0.479  1.00  0.00    -0.268 OA
BRANCH  12  15
HETATM   15  C   UNL     1      37.261 -11.159  -0.175  1.00  0.00     0.114 C 
HETATM   16  C   UNL     1      36.710 -11.233   1.249  1.00  0.00     0.037 C 
BRANCH  15  17
HETATM   17  C   UNL     1      36.146 -11.092  -1.204  1.00  0.00    -0.036 A 
HETATM   18  C   UNL     1      34.847 -10.736  -0.802  1.00  0.00     0.009 A 
HETATM   19  C   UNL     1      33.800 -10.695  -1.725  1.00  0.00     0.001 A 
HETATM   20  C   UNL     1      34.035 -11.003  -3.062  1.00  0.00     0.000 A 
HETATM   21  C   UNL     1      35.317 -11.354  -3.478  1.00  0.00     0.001 A 
HETATM   22  C   UNL     1      36.364 -11.403  -2.556  1.00  0.00     0.009 A 
ENDBRANCH  15  17
ENDBRANCH  12  15
ENDBRANCH   6  11
ENDBRANCH   1   5
BRANCH   2  23
HETATM   23  C   UNL     1      41.742 -13.047   4.162  1.00  0.00     0.240 C 
BRANCH  23  24
HETATM   24  N   UNL     1      41.431 -14.266   4.880  1.00  0.00    -0.259 N 
HETATM   25  C   UNL     1      40.204 -14.610   5.349  1.00  0.00     0.326 C 
HETATM   26  O   UNL     1      39.168 -13.975   5.271  1.00  0.00    -0.247 OA
HETATM   27  N   UNL     1      40.299 -15.854   5.938  1.00  0.00    -0.324 N 
HETATM   28  C   UNL     1      41.572 -16.498   5.658  1.00  0.00     0.120 C 
HETATM   29  H   UNL     1      39.453 -16.328   6.236  1.00  0.00     0.165 HD
HETATM   30  C   UNL     1      41.417 -17.501   4.507  1.00  0.00     0.080 C 
HETATM   31  C   UNL     1      42.173 -17.146   6.896  1.00  0.00     0.046 C 
HETATM   32  C   UNL     1      42.332 -15.253   5.162  1.00  0.00     0.257 C 
HETATM   33  C   UNL     1      42.635 -18.362   4.290  1.00  0.00    -0.049 A 
HETATM   34  C   UNL     1      43.603 -18.530   5.294  1.00  0.00    -0.052 A 
HETATM   35  C   UNL     1      42.784 -19.031   3.065  1.00  0.00     0.007 A 
HETATM   36  C   UNL     1      43.524 -17.805   6.614  1.00  0.00     0.042 C 
HETATM   37  C   UNL     1      44.720 -19.342   5.038  1.00  0.00     0.007 A 
HETATM   38  C   UNL     1      44.865 -19.989   3.811  1.00  0.00     0.001 A 
HETATM   39  C   UNL     1      43.896 -19.836   2.825  1.00  0.00     0.001 A 
HETATM   40  O   UNL     1      43.541 -15.141   5.009  1.00  0.00    -0.270 OA
ENDBRANCH  23  24
ENDBRANCH   2  23
TORSDOF 6
ENDMDL
MODEL 9
REMARK VINA RESULT:      -8.8      2.205      5.358
REMARK  6 active torsions:
REMARK  status: ('A' for Active; 'I' for Inactive)
REMARK    1  A    between atoms: C_2  and  N_3 
REMARK    2  A    between atoms: C_2  and  C_32 
REMARK       I    between atoms: N_3  and  C_4 
REMARK    3  A    between atoms: C_4  and  C_5 
REMARK    4  A    between atoms: C_6  and  N_7 
REMARK       I    between atoms: N_7  and  C_8 
REMARK    5  A    between atoms: C_8  and  C_9 
REMARK    6  A    between atoms: C_9  and  N_10 
ROOT
HETATM    1  N   UNL     1      43.200 -17.666   4.954  1.00  0.00    -0.325 N 
HETATM    2  C   UNL     1      41.877 -17.295   5.169  1.00  0.00     0.240 C 
HETATM    3  O   UNL     1      40.942 -17.632   4.442  1.00  0.00    -0.271 OA
HETATM    4  H   UNL     1      43.886 -16.998   5.311  1.00  0.00     0.169 HD
ENDROOT
BRANCH   1   5
HETATM    5  C   UNL     1      43.576 -18.386   3.798  1.00  0.00     0.050 A 
HETATM    6  C   UNL     1      43.558 -17.857   2.494  1.00  0.00     0.058 A 
HETATM    7  C   UNL     1      43.921 -18.676   1.410  1.00  0.00     0.019 A 
HETATM    8  C   UNL     1      44.306 -20.001   1.615  1.00  0.00     0.001 A 
HETATM    9  C   UNL     1      44.293 -20.532   2.901  1.00  0.00     0.002 A 
HETATM   10  C   UNL     1      43.911 -19.737   3.983  1.00  0.00     0.030 A 
BRANCH   6  11
HETATM   11  C   UNL     1      42.967 -16.545   2.121  1.00  0.00     0.254 C 
HETATM   12  N   UNL     1      41.807 -16.562   1.391  1.00  0.00    -0.349 N 
HETATM   13  H   UNL     1      41.343 -17.457   1.252  1.00  0.00     0.163 HD
HETATM   14  O   UNL     1      43.500 -15.514   2.520  1.00  0.00    -0.268 OA
BRANCH  12  15
HETATM   15  C   UNL     1      41.089 -15.344   1.059  1.00  0.00     0.114 C 
HETATM   16  C   UNL     1      39.617 -15.456   1.453  1.00  0.00     0.037 C 
BRANCH  15  17
HETATM   17  C   UNL     1      41.251 -14.997  -0.411  1.00  0.00    -0.036 A 
HETATM   18  C   UNL     1      41.720 -13.725  -0.780  1.00  0.00     0.009 A 
HETATM   19  C   UNL     1      41.851 -13.373  -2.125  1.00  0.00     0.001 A 
HETATM   20  C   UNL     1      41.520 -14.288  -3.121  1.00  0.00     0.000 A 
HETATM   21  C   UNL     1      41.057 -15.556  -2.773  1.00  0.00     0.001 A 
HETATM   22  C   UNL     1      40.919 -15.907  -1.429  1.00  0.00     0.009 A 
ENDBRANCH  15  17
ENDBRANCH  12  15
ENDBRANCH   6  11
ENDBRANCH   1   5
BRANCH   2  23
HETATM   23  C   UNL     1      41.662 -16.467   6.432  1.00  0.00     0.240 C 
BRANCH  23  24
HETATM   24  N   UNL     1      42.001 -15.072   6.234  1.00  0.00    -0.259 N 
HETATM   25  C   UNL     1      43.262 -14.568   6.201  1.00  0.00     0.326 C 
HETATM   26  O   UNL     1      44.312 -15.169   6.340  1.00  0.00    -0.247 OA
HETATM   27  N   UNL     1      43.180 -13.214   5.953  1.00  0.00    -0.324 N 
HETATM   28  C   UNL     1      41.839 -12.808   5.564  1.00  0.00     0.120 C 
HETATM   29  H   UNL     1      44.029 -12.690   5.771  1.00  0.00     0.165 HD
HETATM   30  C   UNL     1      41.744 -12.682   4.037  1.00  0.00     0.080 C 
HETATM   31  C   UNL     1      41.399 -11.531   6.265  1.00  0.00     0.046 C 
HETATM   32  C   UNL     1      41.094 -14.074   6.028  1.00  0.00     0.257 C 
HETATM   33  C   UNL     1      40.454 -12.066   3.562  1.00  0.00    -0.049 A 
HETATM   34  C   UNL     1      39.648 -11.299   4.420  1.00  0.00    -0.052 A 
HETATM   35  C   UNL     1      40.070 -12.242   2.224  1.00  0.00     0.007 A 
HETATM   36  C   UNL     1      39.980 -11.110   5.878  1.00  0.00     0.042 C 
HETATM   37  C   UNL     1      38.453 -10.750   3.925  1.00  0.00     0.007 A 
HETATM   38  C   UNL     1      38.075 -10.944   2.597  1.00  0.00     0.001 A 
HETATM   39  C   UNL     1      38.884 -11.688   1.745  1.00  0.00     0.001 A 
HETATM   40  O   UNL     1      39.885 -14.204   6.172  1.00  0.00    -0.270 OA
ENDBRANCH  23  24
ENDBRANCH   2  23
TORSDOF 6
ENDMDL
MODEL 10
REMARK VINA RESULT:      -8.8      1.943      5.239
REMARK  6 active torsions:
REMARK  status: ('A' for Active; 'I' for Inactive)
REMARK    1  A    between atoms: C_2  and  N_3 
REMARK    2  A    between atoms: C_2  and  C_32 
REMARK       I    between atoms: N_3  and  C_4 
REMARK    3  A    between atoms: C_4  and  C_5 
REMARK    4  A    between atoms: C_6  and  N_7 
REMARK       I    between atoms: N_7  and  C_8 
REMARK    5  A    between atoms: C_8  and  C_9 
REMARK    6  A    between atoms: C_9  and  N_10 
ROOT
HETATM    1  N   UNL     1      41.477 -14.698   3.125  1.00  0.00    -0.325 N 
HETATM    2  C   UNL     1      40.140 -14.985   2.873  1.00  0.00     0.240 C 
HETATM    3  O   UNL     1      39.203 -14.520   3.523  1.00  0.00    -0.271 OA
HETATM    4  H   UNL     1      42.123 -15.443   2.857  1.00  0.00     0.169 HD
ENDROOT
BRANCH   1   5
HETATM    5  C   UNL     1      41.856 -13.914   4.237  1.00  0.00     0.050 A 
HETATM    6  C   UNL     1      42.420 -14.433   5.418  1.00  0.00     0.058 A 
HETATM    7  C   UNL     1      42.729 -13.563   6.478  1.00  0.00     0.019 A 
HETATM    8  C   UNL     1      42.493 -12.192   6.368  1.00  0.00     0.001 A 
HETATM    9  C   UNL     1      41.907 -11.684   5.213  1.00  0.00     0.002 A 
HETATM   10  C   UNL     1      41.573 -12.541   4.162  1.00  0.00     0.030 A 
BRANCH   6  11
HETATM   11  C   UNL     1      42.519 -15.880   5.743  1.00  0.00     0.254 C 
HETATM   12  N   UNL     1      43.616 -16.557   5.277  1.00  0.00    -0.349 N 
HETATM   13  H   UNL     1      44.364 -16.015   4.848  1.00  0.00     0.163 HD
HETATM   14  O   UNL     1      41.656 -16.395   6.449  1.00  0.00    -0.268 OA
BRANCH  12  15
HETATM   15  C   UNL     1      43.865 -17.946   5.619  1.00  0.00     0.114 C 
HETATM   16  C   UNL     1      45.167 -18.086   6.408  1.00  0.00     0.037 C 
BRANCH  15  17
HETATM   17  C   UNL     1      43.866 -18.823   4.378  1.00  0.00    -0.036 A 
HETATM   18  C   UNL     1      43.051 -18.483   3.285  1.00  0.00     0.009 A 
HETATM   19  C   UNL     1      43.014 -19.288   2.144  1.00  0.00     0.001 A 
HETATM   20  C   UNL     1      43.794 -20.440   2.077  1.00  0.00     0.000 A 
HETATM   21  C   UNL     1      44.611 -20.788   3.150  1.00  0.00     0.001 A 
HETATM   22  C   UNL     1      44.645 -19.989   4.294  1.00  0.00     0.009 A 
ENDBRANCH  15  17
ENDBRANCH  12  15
ENDBRANCH   6  11
ENDBRANCH   1   5
BRANCH   2  23
HETATM   23  C   UNL     1      39.917 -15.898   1.672  1.00  0.00     0.240 C 
BRANCH  23  24
HETATM   24  N   UNL     1      40.431 -15.324   0.446  1.00  0.00    -0.259 N 
HETATM   25  C   UNL     1      41.605 -15.663  -0.148  1.00  0.00     0.326 C 
HETATM   26  O   UNL     1      42.427 -16.476   0.231  1.00  0.00    -0.247 OA
HETATM   27  N   UNL     1      41.727 -14.933  -1.311  1.00  0.00    -0.324 N 
HETATM   28  C   UNL     1      40.495 -14.245  -1.660  1.00  0.00     0.120 C 
HETATM   29  H   UNL     1      42.485 -15.143  -1.953  1.00  0.00     0.165 HD
HETATM   30  C   UNL     1      39.723 -15.044  -2.721  1.00  0.00     0.080 C 
HETATM   31  C   UNL     1      40.742 -12.810  -2.102  1.00  0.00     0.046 C 
HETATM   32  C   UNL     1      39.789 -14.376  -0.298  1.00  0.00     0.257 C 
HETATM   33  C   UNL     1      38.541 -14.304  -3.290  1.00  0.00    -0.049 A 
HETATM   34  C   UNL     1      38.433 -12.906  -3.192  1.00  0.00    -0.052 A 
HETATM   35  C   UNL     1      37.544 -15.030  -3.959  1.00  0.00     0.007 A 
HETATM   36  C   UNL     1      39.447 -12.074  -2.448  1.00  0.00     0.042 C 
HETATM   37  C   UNL     1      37.308 -12.268  -3.738  1.00  0.00     0.007 A 
HETATM   38  C   UNL     1      36.315 -13.002  -4.387  1.00  0.00     0.001 A 
HETATM   39  C   UNL     1      36.434 -14.384  -4.500  1.00  0.00     0.001 A 
HETATM   40  O   UNL     1      38.797 -13.765   0.079  1.00  0.00    -0.270 OA
ENDBRANCH  23  24
ENDBRANCH   2  23
TORSDOF 6
ENDMDL
