MODEL 1
REMARK VINA RESULT:      -8.2      0.000      0.000
REMARK  6 active torsions:
REMARK  status: ('A' for Active; 'I' for Inactive)
REMARK    1  A    between atoms: C_2  and  C_3 
REMARK    2  A    between atoms: C_13  and  C_14 
REMARK       I    between atoms: C_14  and  N_15 
REMARK    3  A    between atoms: N_15  and  C_16 
REMARK    4  A    between atoms: C_16  and  C_17 
REMARK    5  A    between atoms: C_17  and  C_18 
REMARK    6  A    between atoms: C_18  and  C_19 
ROOT
HETATM    1  C   UNL     1      41.479 -15.386   0.574  1.00  0.00     0.251 C 
HETATM    2  N   UNL     1      42.075 -14.730  -0.484  1.00  0.00    -0.357 N 
HETATM    3  O   UNL     1      40.405 -15.053   1.060  1.00  0.00    -0.268 OA
HETATM    4  H   UNL     1      42.842 -15.169  -0.972  1.00  0.00     0.162 HD
ENDROOT
BRANCH   1   5
HETATM    5  C   UNL     1      42.189 -16.582   1.110  1.00  0.00     0.032 A 
HETATM    6  C   UNL     1      41.534 -17.781   1.403  1.00  0.00     0.017 A 
HETATM    7  C   UNL     1      42.257 -18.874   1.899  1.00  0.00     0.008 A 
HETATM    8  C   UNL     1      43.644 -18.792   2.101  1.00  0.00    -0.052 A 
HETATM    9  C   UNL     1      44.294 -17.589   1.790  1.00  0.00     0.008 A 
HETATM   10  C   UNL     1      43.574 -16.498   1.293  1.00  0.00     0.017 A 
BRANCH   8  11
HETATM   11  C   UNL     1      44.392 -19.984   2.668  1.00  0.00     0.044 C 
HETATM   12  C   UNL     1      43.835 -21.292   2.089  1.00  0.00     0.241 C 
HETATM   13  N   UNL     1      44.590 -22.460   2.650  1.00  0.00    -0.074 N 
HETATM   14  H   UNL     1      45.567 -22.428   2.328  1.00  0.00     0.277 HD
HETATM   15  H   UNL     1      44.200 -23.328   2.256  1.00  0.00     0.277 HD
HETATM   16  C   UNL     1      44.555 -22.544   4.140  1.00  0.00     0.232 C 
HETATM   17  C   UNL     1      45.126 -21.263   4.729  1.00  0.00     0.028 C 
HETATM   18  C   UNL     1      44.393 -20.026   4.209  1.00  0.00     0.013 C 
ENDBRANCH   8  11
ENDBRANCH   1   5
BRANCH   2  19
HETATM   19  C   UNL     1      41.429 -13.609  -1.142  1.00  0.00     0.123 C 
BRANCH  19  20
HETATM   20  C   UNL     1      42.076 -13.218  -2.468  1.00  0.00     0.026 C 
BRANCH  20  21
HETATM   21  C   UNL     1      41.047 -12.814  -3.523  1.00  0.00     0.061 C 
BRANCH  21  22
HETATM   22  C   UNL     1      39.884 -13.751  -3.560  1.00  0.00     0.044 A 
HETATM   23  N   UNL     1      40.124 -15.097  -3.787  1.00  0.00    -0.229 NA
HETATM   24  C   UNL     1      39.001 -15.770  -3.763  1.00  0.00     0.164 A 
HETATM   25  N   UNL     1      38.937 -17.097  -3.947  1.00  0.00    -0.378 N 
HETATM   26  S   UNL     1      37.587 -14.833  -3.501  1.00  0.00    -0.062 SA
HETATM   27  H   UNL     1      39.757 -17.527  -4.353  1.00  0.00     0.158 HD
HETATM   28  H   UNL     1      38.056 -17.498  -4.243  1.00  0.00     0.158 HD
HETATM   29  C   UNL     1      38.553 -13.424  -3.387  1.00  0.00     0.080 A 
ENDBRANCH  21  22
ENDBRANCH  20  21
ENDBRANCH  19  20
ENDBRANCH   2  19
TORSDOF 6
ENDMDL
MODEL 2
REMARK VINA RESULT:      -8.1      8.425     10.371
REMARK  6 active torsions:
REMARK  status: ('A' for Active; 'I' for Inactive)
REMARK    1  A    between atoms: C_2  and  C_3 
REMARK    2  A    between atoms: C_13  and  C_14 
REMARK       I    between atoms: C_14  and  N_15 
REMARK    3  A    between atoms: N_15  and  C_16 
REMARK    4  A    between atoms: C_16  and  C_17 
REMARK    5  A    between atoms: C_17  and  C_18 
REMARK    6  A    between atoms: C_18  and  C_19 
ROOT
HETATM    1  C   UNL     1      43.615 -13.672   6.893  1.00  0.00     0.251 C 
HETATM    2  N   UNL     1      44.449 -13.488   7.977  1.00  0.00    -0.357 N 
HETATM    3  O   UNL     1      42.910 -12.788   6.422  1.00  0.00    -0.268 OA
HETATM    4  H   UNL     1      45.153 -14.181   8.186  1.00  0.00     0.162 HD
ENDROOT
BRANCH   1   5
HETATM    5  C   UNL     1      43.620 -15.023   6.262  1.00  0.00     0.032 A 
HETATM    6  C   UNL     1      44.152 -16.150   6.894  1.00  0.00     0.017 A 
HETATM    7  C   UNL     1      44.122 -17.396   6.253  1.00  0.00     0.008 A 
HETATM    8  C   UNL     1      43.554 -17.538   4.977  1.00  0.00    -0.052 A 
HETATM    9  C   UNL     1      43.010 -16.404   4.357  1.00  0.00     0.008 A 
HETATM   10  C   UNL     1      43.037 -15.161   4.997  1.00  0.00     0.017 A 
BRANCH   8  11
HETATM   11  C   UNL     1      43.566 -18.894   4.297  1.00  0.00     0.044 C 
HETATM   12  C   UNL     1      44.758 -19.729   4.787  1.00  0.00     0.241 C 
HETATM   13  N   UNL     1      44.752 -21.070   4.115  1.00  0.00    -0.074 N 
HETATM   14  H   UNL     1      43.921 -21.602   4.411  1.00  0.00     0.277 HD
HETATM   15  H   UNL     1      45.559 -21.614   4.450  1.00  0.00     0.277 HD
HETATM   16  C   UNL     1      44.797 -21.000   2.624  1.00  0.00     0.232 C 
HETATM   17  C   UNL     1      43.608 -20.196   2.123  1.00  0.00     0.028 C 
HETATM   18  C   UNL     1      43.557 -18.806   2.759  1.00  0.00     0.013 C 
ENDBRANCH   8  11
ENDBRANCH   1   5
BRANCH   2  19
HETATM   19  C   UNL     1      44.592 -12.191   8.612  1.00  0.00     0.123 C 
BRANCH  19  20
HETATM   20  C   UNL     1      44.735 -12.262  10.131  1.00  0.00     0.026 C 
BRANCH  20  21
HETATM   21  C   UNL     1      44.700 -10.881  10.785  1.00  0.00     0.061 C 
BRANCH  21  22
HETATM   22  C   UNL     1      43.584 -10.756  11.772  1.00  0.00     0.044 A 
HETATM   23  N   UNL     1      42.463 -11.555  11.609  1.00  0.00    -0.229 NA
HETATM   24  C   UNL     1      41.603 -11.332  12.572  1.00  0.00     0.164 A 
HETATM   25  N   UNL     1      40.429 -11.972  12.668  1.00  0.00    -0.378 N 
HETATM   26  S   UNL     1      42.065 -10.132  13.708  1.00  0.00    -0.062 SA
HETATM   27  H   UNL     1      40.118 -12.454  11.835  1.00  0.00     0.158 HD
HETATM   28  H   UNL     1      39.690 -11.540  13.209  1.00  0.00     0.158 HD
HETATM   29  C   UNL     1      43.538  -9.912  12.864  1.00  0.00     0.080 A 
ENDBRANCH  21  22
ENDBRANCH  20  21
ENDBRANCH  19  20
ENDBRANCH   2  19
TORSDOF 6
ENDMDL
MODEL 3
REMARK VINA RESULT:      -8.1      3.445      4.863
REMARK  6 active torsions:
REMARK  status: ('A' for Active; 'I' for Inactive)
REMARK    1  A    between atoms: C_2  and  C_3 
REMARK    2  A    between atoms: C_13  and  C_14 
REMARK       I    between atoms: C_14  and  N_15 
REMARK    3  A    between atoms: N_15  and  C_16 
REMARK    4  A    between atoms: C_16  and  C_17 
REMARK    5  A    between atoms: C_17  and  C_18 
REMARK    6  A    between atoms: C_18  and  C_19 
ROOT
HETATM    1  C   UNL     1      41.228 -15.412   0.885  1.00  0.00     0.251 C 
HETATM    2  N   UNL     1      39.876 -15.376   1.157  1.00  0.00    -0.357 N 
HETATM    3  O   UNL     1      41.819 -14.538   0.262  1.00  0.00    -0.268 OA
HETATM    4  H   UNL     1      39.491 -16.006   1.845  1.00  0.00     0.162 HD
ENDROOT
BRANCH   1   5
HETATM    5  C   UNL     1      41.992 -16.576   1.421  1.00  0.00     0.032 A 
HETATM    6  C   UNL     1      41.660 -17.208   2.622  1.00  0.00     0.017 A 
HETATM    7  C   UNL     1      42.411 -18.301   3.072  1.00  0.00     0.008 A 
HETATM    8  C   UNL     1      43.498 -18.787   2.327  1.00  0.00    -0.052 A 
HETATM    9  C   UNL     1      43.813 -18.155   1.115  1.00  0.00     0.008 A 
HETATM   10  C   UNL     1      43.063 -17.065   0.665  1.00  0.00     0.017 A 
BRANCH   8  11
HETATM   11  C   UNL     1      44.310 -19.954   2.857  1.00  0.00     0.044 C 
HETATM   12  C   UNL     1      43.858 -21.265   2.197  1.00  0.00     0.241 C 
HETATM   13  N   UNL     1      44.676 -22.408   2.722  1.00  0.00    -0.074 N 
HETATM   14  H   UNL     1      45.657 -22.294   2.432  1.00  0.00     0.277 HD
HETATM   15  H   UNL     1      44.357 -23.278   2.274  1.00  0.00     0.277 HD
HETATM   16  C   UNL     1      44.607 -22.570   4.204  1.00  0.00     0.232 C 
HETATM   17  C   UNL     1      45.074 -21.286   4.872  1.00  0.00     0.028 C 
HETATM   18  C   UNL     1      44.273 -20.075   4.392  1.00  0.00     0.013 C 
ENDBRANCH   8  11
ENDBRANCH   1   5
BRANCH   2  19
HETATM   19  C   UNL     1      39.053 -14.247   0.763  1.00  0.00     0.123 C 
BRANCH  19  20
HETATM   20  C   UNL     1      38.613 -13.368   1.931  1.00  0.00     0.026 C 
BRANCH  20  21
HETATM   21  C   UNL     1      39.770 -12.570   2.530  1.00  0.00     0.061 C 
BRANCH  21  22
HETATM   22  C   UNL     1      40.436 -13.302   3.649  1.00  0.00     0.044 A 
HETATM   23  N   UNL     1      39.726 -14.293   4.309  1.00  0.00    -0.229 NA
HETATM   24  C   UNL     1      40.468 -14.841   5.239  1.00  0.00     0.164 A 
HETATM   25  N   UNL     1      40.037 -15.834   6.030  1.00  0.00    -0.378 N 
HETATM   26  S   UNL     1      42.045 -14.184   5.405  1.00  0.00    -0.062 SA
HETATM   27  H   UNL     1      39.035 -15.978   6.053  1.00  0.00     0.158 HD
HETATM   28  H   UNL     1      40.507 -15.982   6.914  1.00  0.00     0.158 HD
HETATM   29  C   UNL     1      41.720 -13.101   4.119  1.00  0.00     0.080 A 
ENDBRANCH  21  22
ENDBRANCH  20  21
ENDBRANCH  19  20
ENDBRANCH   2  19
TORSDOF 6
ENDMDL
MODEL 4
REMARK VINA RESULT:      -8.0      1.900      2.276
REMARK  6 active torsions:
REMARK  status: ('A' for Active; 'I' for Inactive)
REMARK    1  A    between atoms: C_2  and  C_3 
REMARK    2  A    between atoms: C_13  and  C_14 
REMARK       I    between atoms: C_14  and  N_15 
REMARK    3  A    between atoms: N_15  and  C_16 
REMARK    4  A    between atoms: C_16  and  C_17 
REMARK    5  A    between atoms: C_17  and  C_18 
REMARK    6  A    between atoms: C_18  and  C_19 
ROOT
HETATM    1  C   UNL     1      40.078 -15.374   2.421  1.00  0.00     0.251 C 
HETATM    2  N   UNL     1      39.258 -15.358   1.311  1.00  0.00    -0.357 N 
HETATM    3  O   UNL     1      40.015 -14.546   3.323  1.00  0.00    -0.268 OA
HETATM    4  H   UNL     1      39.213 -16.172   0.716  1.00  0.00     0.162 HD
ENDROOT
BRANCH   1   5
HETATM    5  C   UNL     1      41.061 -16.491   2.517  1.00  0.00     0.032 A 
HETATM    6  C   UNL     1      41.389 -17.303   1.428  1.00  0.00     0.017 A 
HETATM    7  C   UNL     1      42.325 -18.334   1.577  1.00  0.00     0.008 A 
HETATM    8  C   UNL     1      42.955 -18.565   2.810  1.00  0.00    -0.052 A 
HETATM    9  C   UNL     1      42.630 -17.735   3.893  1.00  0.00     0.008 A 
HETATM   10  C   UNL     1      41.697 -16.705   3.745  1.00  0.00     0.017 A 
BRANCH   8  11
HETATM   11  C   UNL     1      43.942 -19.710   2.946  1.00  0.00     0.044 C 
HETATM   12  C   UNL     1      43.526 -20.886   2.050  1.00  0.00     0.241 C 
HETATM   13  N   UNL     1      44.514 -22.005   2.186  1.00  0.00    -0.074 N 
HETATM   14  H   UNL     1      45.428 -21.707   1.818  1.00  0.00     0.277 HD
HETATM   15  H   UNL     1      44.218 -22.786   1.584  1.00  0.00     0.277 HD
HETATM   16  C   UNL     1      44.676 -22.503   3.585  1.00  0.00     0.232 C 
HETATM   17  C   UNL     1      45.111 -21.354   4.480  1.00  0.00     0.028 C 
HETATM   18  C   UNL     1      44.138 -20.176   4.402  1.00  0.00     0.013 C 
ENDBRANCH   8  11
ENDBRANCH   1   5
BRANCH   2  19
HETATM   19  C   UNL     1      38.206 -14.370   1.160  1.00  0.00     0.123 C 
BRANCH  19  20
HETATM   20  C   UNL     1      38.593 -13.189   0.274  1.00  0.00     0.026 C 
BRANCH  20  21
HETATM   21  C   UNL     1      37.865 -13.203  -1.070  1.00  0.00     0.061 C 
BRANCH  21  22
HETATM   22  C   UNL     1      38.521 -14.118  -2.053  1.00  0.00     0.044 A 
HETATM   23  N   UNL     1      39.872 -14.392  -1.905  1.00  0.00    -0.229 NA
HETATM   24  C   UNL     1      40.271 -15.224  -2.834  1.00  0.00     0.164 A 
HETATM   25  N   UNL     1      41.533 -15.668  -2.927  1.00  0.00    -0.378 N 
HETATM   26  S   UNL     1      39.068 -15.702  -3.961  1.00  0.00    -0.062 SA
HETATM   27  H   UNL     1      42.226 -15.145  -2.406  1.00  0.00     0.158 HD
HETATM   28  H   UNL     1      41.852 -16.022  -3.820  1.00  0.00     0.158 HD
HETATM   29  C   UNL     1      37.920 -14.743  -3.128  1.00  0.00     0.080 A 
ENDBRANCH  21  22
ENDBRANCH  20  21
ENDBRANCH  19  20
ENDBRANCH   2  19
TORSDOF 6
ENDMDL
MODEL 5
REMARK VINA RESULT:      -7.9      2.016      2.495
REMARK  6 active torsions:
REMARK  status: ('A' for Active; 'I' for Inactive)
REMARK    1  A    between atoms: C_2  and  C_3 
REMARK    2  A    between atoms: C_13  and  C_14 
REMARK       I    between atoms: C_14  and  N_15 
REMARK    3  A    between atoms: N_15  and  C_16 
REMARK    4  A    between atoms: C_16  and  C_17 
REMARK    5  A    between atoms: C_17  and  C_18 
REMARK    6  A    between atoms: C_18  and  C_19 
ROOT
HETATM    1  C   UNL     1      40.459 -15.070   1.843  1.00  0.00     0.251 C 
HETATM    2  N   UNL     1      39.184 -15.360   1.404  1.00  0.00    -0.357 N 
HETATM    3  O   UNL     1      40.841 -13.939   2.119  1.00  0.00    -0.268 OA
HETATM    4  H   UNL     1      38.867 -16.319   1.396  1.00  0.00     0.162 HD
ENDROOT
BRANCH   1   5
HETATM    5  C   UNL     1      41.390 -16.223   2.015  1.00  0.00     0.032 A 
HETATM    6  C   UNL     1      42.265 -16.643   1.010  1.00  0.00     0.017 A 
HETATM    7  C   UNL     1      43.122 -17.729   1.232  1.00  0.00     0.008 A 
HETATM    8  C   UNL     1      43.126 -18.406   2.462  1.00  0.00    -0.052 A 
HETATM    9  C   UNL     1      42.255 -17.967   3.469  1.00  0.00     0.008 A 
HETATM   10  C   UNL     1      41.401 -16.882   3.249  1.00  0.00     0.017 A 
BRANCH   8  11
HETATM   11  C   UNL     1      44.044 -19.598   2.660  1.00  0.00     0.044 C 
HETATM   12  C   UNL     1      43.521 -20.812   1.878  1.00  0.00     0.241 C 
HETATM   13  N   UNL     1      44.443 -21.979   2.074  1.00  0.00    -0.074 N 
HETATM   14  H   UNL     1      45.359 -21.772   1.653  1.00  0.00     0.277 HD
HETATM   15  H   UNL     1      44.075 -22.785   1.549  1.00  0.00     0.277 HD
HETATM   16  C   UNL     1      44.626 -22.372   3.503  1.00  0.00     0.232 C 
HETATM   17  C   UNL     1      45.166 -21.185   4.285  1.00  0.00     0.028 C 
HETATM   18  C   UNL     1      44.267 -19.957   4.142  1.00  0.00     0.013 C 
ENDBRANCH   8  11
ENDBRANCH   1   5
BRANCH   2  19
HETATM   19  C   UNL     1      38.169 -14.330   1.288  1.00  0.00     0.123 C 
BRANCH  19  20
HETATM   20  C   UNL     1      37.928 -13.861  -0.145  1.00  0.00     0.026 C 
BRANCH  20  21
HETATM   21  C   UNL     1      38.788 -12.653  -0.517  1.00  0.00     0.061 C 
BRANCH  21  22
HETATM   22  C   UNL     1      39.812 -12.991  -1.552  1.00  0.00     0.044 A 
HETATM   23  N   UNL     1      40.252 -14.302  -1.645  1.00  0.00    -0.229 NA
HETATM   24  C   UNL     1      41.124 -14.420  -2.615  1.00  0.00     0.164 A 
HETATM   25  N   UNL     1      41.712 -15.583  -2.935  1.00  0.00    -0.378 N 
HETATM   26  S   UNL     1      41.497 -12.969  -3.451  1.00  0.00    -0.062 SA
HETATM   27  H   UNL     1      41.647 -16.317  -2.242  1.00  0.00     0.158 HD
HETATM   28  H   UNL     1      42.588 -15.554  -3.442  1.00  0.00     0.158 HD
HETATM   29  C   UNL     1      40.389 -12.122  -2.457  1.00  0.00     0.080 A 
ENDBRANCH  21  22
ENDBRANCH  20  21
ENDBRANCH  19  20
ENDBRANCH   2  19
TORSDOF 6
ENDMDL
MODEL 6
REMARK VINA RESULT:      -7.7     10.447     12.608
REMARK  6 active torsions:
REMARK  status: ('A' for Active; 'I' for Inactive)
REMARK    1  A    between atoms: C_2  and  C_3 
REMARK    2  A    between atoms: C_13  and  C_14 
REMARK       I    between atoms: C_14  and  N_15 
REMARK    3  A    between atoms: N_15  and  C_16 
REMARK    4  A    between atoms: C_16  and  C_17 
REMARK    5  A    between atoms: C_17  and  C_18 
REMARK    6  A    between atoms: C_18  and  C_19 
ROOT
HETATM    1  C   UNL     1      44.795 -12.685   8.242  1.00  0.00     0.251 C 
HETATM    2  N   UNL     1      43.819 -13.333   7.514  1.00  0.00    -0.357 N 
HETATM    3  O   UNL     1      45.996 -12.813   8.032  1.00  0.00    -0.268 OA
HETATM    4  H   UNL     1      42.859 -13.030   7.591  1.00  0.00     0.162 HD
ENDROOT
BRANCH   1   5
HETATM    5  C   UNL     1      44.332 -11.760   9.316  1.00  0.00     0.032 A 
HETATM    6  C   UNL     1      45.042 -11.564  10.503  1.00  0.00     0.017 A 
HETATM    7  C   UNL     1      44.559 -10.676  11.473  1.00  0.00     0.008 A 
HETATM    8  C   UNL     1      43.367  -9.963  11.270  1.00  0.00    -0.052 A 
HETATM    9  C   UNL     1      42.669 -10.155  10.069  1.00  0.00     0.008 A 
HETATM   10  C   UNL     1      43.151 -11.040   9.100  1.00  0.00     0.017 A 
BRANCH   8  11
HETATM   11  C   UNL     1      42.855  -9.032  12.354  1.00  0.00     0.044 C 
HETATM   12  C   UNL     1      43.312  -9.518  13.737  1.00  0.00     0.241 C 
HETATM   13  N   UNL     1      42.808  -8.584  14.797  1.00  0.00    -0.074 N 
HETATM   14  H   UNL     1      43.251  -7.661  14.685  1.00  0.00     0.277 HD
HETATM   15  H   UNL     1      43.118  -8.926  15.717  1.00  0.00     0.277 HD
HETATM   16  C   UNL     1      41.323  -8.428  14.811  1.00  0.00     0.232 C 
HETATM   17  C   UNL     1      40.858  -7.925  13.453  1.00  0.00     0.028 C 
HETATM   18  C   UNL     1      41.326  -8.839  12.320  1.00  0.00     0.013 C 
ENDBRANCH   8  11
ENDBRANCH   1   5
BRANCH   2  19
HETATM   19  C   UNL     1      44.153 -14.185   6.388  1.00  0.00     0.123 C 
BRANCH  19  20
HETATM   20  C   UNL     1      42.941 -14.637   5.577  1.00  0.00     0.026 C 
BRANCH  20  21
HETATM   21  C   UNL     1      42.119 -15.703   6.300  1.00  0.00     0.061 C 
BRANCH  21  22
HETATM   22  C   UNL     1      42.937 -16.907   6.638  1.00  0.00     0.044 A 
HETATM   23  N   UNL     1      43.163 -17.201   7.973  1.00  0.00    -0.229 NA
HETATM   24  C   UNL     1      43.874 -18.296   8.084  1.00  0.00     0.164 A 
HETATM   25  N   UNL     1      44.236 -18.818   9.265  1.00  0.00    -0.378 N 
HETATM   26  S   UNL     1      44.343 -19.021   6.602  1.00  0.00    -0.062 SA
HETATM   27  H   UNL     1      44.155 -18.203  10.065  1.00  0.00     0.158 HD
HETATM   28  H   UNL     1      45.032 -19.443   9.289  1.00  0.00     0.158 HD
HETATM   29  C   UNL     1      43.512 -17.792   5.747  1.00  0.00     0.080 A 
ENDBRANCH  21  22
ENDBRANCH  20  21
ENDBRANCH  19  20
ENDBRANCH   2  19
TORSDOF 6
ENDMDL
MODEL 7
REMARK VINA RESULT:      -7.5      1.779      2.012
REMARK  6 active torsions:
REMARK  status: ('A' for Active; 'I' for Inactive)
REMARK    1  A    between atoms: C_2  and  C_3 
REMARK    2  A    between atoms: C_13  and  C_14 
REMARK       I    between atoms: C_14  and  N_15 
REMARK    3  A    between atoms: N_15  and  C_16 
REMARK    4  A    between atoms: C_16  and  C_17 
REMARK    5  A    between atoms: C_17  and  C_18 
REMARK    6  A    between atoms: C_18  and  C_19 
ROOT
HETATM    1  C   UNL     1      42.423 -14.474   2.160  1.00  0.00     0.251 C 
HETATM    2  N   UNL     1      41.208 -14.406   1.509  1.00  0.00    -0.357 N 
HETATM    3  O   UNL     1      43.038 -13.490   2.554  1.00  0.00    -0.268 OA
HETATM    4  H   UNL     1      40.656 -15.244   1.398  1.00  0.00     0.162 HD
ENDROOT
BRANCH   1   5
HETATM    5  C   UNL     1      42.976 -15.836   2.413  1.00  0.00     0.032 A 
HETATM    6  C   UNL     1      43.176 -16.343   3.699  1.00  0.00     0.017 A 
HETATM    7  C   UNL     1      43.693 -17.634   3.874  1.00  0.00     0.008 A 
HETATM    8  C   UNL     1      44.009 -18.441   2.769  1.00  0.00    -0.052 A 
HETATM    9  C   UNL     1      43.791 -17.928   1.483  1.00  0.00     0.008 A 
HETATM   10  C   UNL     1      43.273 -16.641   1.307  1.00  0.00     0.017 A 
BRANCH   8  11
HETATM   11  C   UNL     1      44.597 -19.822   2.993  1.00  0.00     0.044 C 
HETATM   12  C   UNL     1      43.877 -20.858   2.116  1.00  0.00     0.241 C 
HETATM   13  N   UNL     1      44.475 -22.216   2.339  1.00  0.00    -0.074 N 
HETATM   14  H   UNL     1      45.449 -22.224   2.007  1.00  0.00     0.277 HD
HETATM   15  H   UNL     1      43.978 -22.898   1.749  1.00  0.00     0.277 HD
HETATM   16  C   UNL     1      44.425 -22.673   3.759  1.00  0.00     0.232 C 
HETATM   17  C   UNL     1      45.154 -21.668   4.637  1.00  0.00     0.028 C 
HETATM   18  C   UNL     1      44.588 -20.257   4.471  1.00  0.00     0.013 C 
ENDBRANCH   8  11
ENDBRANCH   1   5
BRANCH   2  19
HETATM   19  C   UNL     1      40.535 -13.140   1.291  1.00  0.00     0.123 C 
BRANCH  19  20
HETATM   20  C   UNL     1      41.035 -12.379   0.066  1.00  0.00     0.026 C 
BRANCH  20  21
HETATM   21  C   UNL     1      39.922 -12.101  -0.944  1.00  0.00     0.061 C 
BRANCH  21  22
HETATM   22  C   UNL     1      39.699 -13.257  -1.865  1.00  0.00     0.044 A 
HETATM   23  N   UNL     1      38.417 -13.769  -1.987  1.00  0.00    -0.229 NA
HETATM   24  C   UNL     1      38.402 -14.757  -2.848  1.00  0.00     0.164 A 
HETATM   25  N   UNL     1      37.290 -15.434  -3.167  1.00  0.00    -0.378 N 
HETATM   26  S   UNL     1      39.923 -15.155  -3.537  1.00  0.00    -0.062 SA
HETATM   27  H   UNL     1      36.507 -15.323  -2.535  1.00  0.00     0.158 HD
HETATM   28  H   UNL     1      37.390 -16.362  -3.559  1.00  0.00     0.158 HD
HETATM   29  C   UNL     1      40.652 -13.895  -2.635  1.00  0.00     0.080 A 
ENDBRANCH  21  22
ENDBRANCH  20  21
ENDBRANCH  19  20
ENDBRANCH   2  19
TORSDOF 6
ENDMDL
MODEL 8
REMARK VINA RESULT:      -7.5      9.721     12.148
REMARK  6 active torsions:
REMARK  status: ('A' for Active; 'I' for Inactive)
REMARK    1  A    between atoms: C_2  and  C_3 
REMARK    2  A    between atoms: C_13  and  C_14 
REMARK       I    between atoms: C_14  and  N_15 
REMARK    3  A    between atoms: N_15  and  C_16 
REMARK    4  A    between atoms: C_16  and  C_17 
REMARK    5  A    between atoms: C_17  and  C_18 
REMARK    6  A    between atoms: C_18  and  C_19 
ROOT
HETATM    1  C   UNL     1      44.835 -13.130   7.922  1.00  0.00     0.251 C 
HETATM    2  N   UNL     1      44.035 -14.252   7.849  1.00  0.00    -0.357 N 
HETATM    3  O   UNL     1      45.767 -12.911   7.157  1.00  0.00    -0.268 OA
HETATM    4  H   UNL     1      43.166 -14.276   8.361  1.00  0.00     0.162 HD
ENDROOT
BRANCH   1   5
HETATM    5  C   UNL     1      44.500 -12.132   8.978  1.00  0.00     0.032 A 
HETATM    6  C   UNL     1      45.312 -11.912  10.094  1.00  0.00     0.017 A 
HETATM    7  C   UNL     1      44.948 -10.955  11.050  1.00  0.00     0.008 A 
HETATM    8  C   UNL     1      43.775 -10.198  10.905  1.00  0.00    -0.052 A 
HETATM    9  C   UNL     1      42.975 -10.416   9.774  1.00  0.00     0.008 A 
HETATM   10  C   UNL     1      43.338 -11.369   8.818  1.00  0.00     0.017 A 
BRANCH   8  11
HETATM   11  C   UNL     1      43.393  -9.191  11.974  1.00  0.00     0.044 C 
HETATM   12  C   UNL     1      43.405  -9.853  13.361  1.00  0.00     0.241 C 
HETATM   13  N   UNL     1      43.037  -8.845  14.409  1.00  0.00    -0.074 N 
HETATM   14  H   UNL     1      43.763  -8.117  14.460  1.00  0.00     0.277 HD
HETATM   15  H   UNL     1      43.044  -9.305  15.329  1.00  0.00     0.277 HD
HETATM   16  C   UNL     1      41.704  -8.208  14.193  1.00  0.00     0.232 C 
HETATM   17  C   UNL     1      41.685  -7.529  12.833  1.00  0.00     0.028 C 
HETATM   18  C   UNL     1      42.041  -8.503  11.709  1.00  0.00     0.013 C 
ENDBRANCH   8  11
ENDBRANCH   1   5
BRANCH   2  19
HETATM   19  C   UNL     1      44.213 -15.244   6.805  1.00  0.00     0.123 C 
BRANCH  19  20
HETATM   20  C   UNL     1      43.369 -16.502   7.000  1.00  0.00     0.026 C 
BRANCH  20  21
HETATM   21  C   UNL     1      44.219 -17.770   7.064  1.00  0.00     0.061 C 
BRANCH  21  22
HETATM   22  C   UNL     1      44.200 -18.523   5.772  1.00  0.00     0.044 A 
HETATM   23  N   UNL     1      44.629 -19.840   5.767  1.00  0.00    -0.229 NA
HETATM   24  C   UNL     1      44.522 -20.348   4.564  1.00  0.00     0.164 A 
HETATM   25  N   UNL     1      44.861 -21.612   4.269  1.00  0.00    -0.378 N 
HETATM   26  S   UNL     1      43.936 -19.274   3.361  1.00  0.00    -0.062 SA
HETATM   27  H   UNL     1      45.437 -22.087   4.953  1.00  0.00     0.158 HD
HETATM   28  H   UNL     1      45.072 -21.839   3.305  1.00  0.00     0.158 HD
HETATM   29  C   UNL     1      43.790 -18.044   4.543  1.00  0.00     0.080 A 
ENDBRANCH  21  22
ENDBRANCH  20  21
ENDBRANCH  19  20
ENDBRANCH   2  19
TORSDOF 6
ENDMDL
MODEL 9
REMARK VINA RESULT:      -7.4      3.009      4.348
REMARK  6 active torsions:
REMARK  status: ('A' for Active; 'I' for Inactive)
REMARK    1  A    between atoms: C_2  and  C_3 
REMARK    2  A    between atoms: C_13  and  C_14 
REMARK       I    between atoms: C_14  and  N_15 
REMARK    3  A    between atoms: N_15  and  C_16 
REMARK    4  A    between atoms: C_16  and  C_17 
REMARK    5  A    between atoms: C_17  and  C_18 
REMARK    6  A    between atoms: C_18  and  C_19 
ROOT
HETATM    1  C   UNL     1      40.170 -15.322   1.377  1.00  0.00     0.251 C 
HETATM    2  N   UNL     1      40.483 -14.563   0.269  1.00  0.00    -0.357 N 
HETATM    3  O   UNL     1      39.153 -15.166   2.042  1.00  0.00    -0.268 OA
HETATM    4  H   UNL     1      41.215 -14.870  -0.354  1.00  0.00     0.162 HD
ENDROOT
BRANCH   1   5
HETATM    5  C   UNL     1      41.126 -16.408   1.740  1.00  0.00     0.032 A 
HETATM    6  C   UNL     1      41.148 -17.004   3.003  1.00  0.00     0.017 A 
HETATM    7  C   UNL     1      42.065 -18.025   3.284  1.00  0.00     0.008 A 
HETATM    8  C   UNL     1      42.969 -18.473   2.307  1.00  0.00    -0.052 A 
HETATM    9  C   UNL     1      42.929 -17.878   1.037  1.00  0.00     0.008 A 
HETATM   10  C   UNL     1      42.013 -16.861   0.756  1.00  0.00     0.017 A 
BRANCH   8  11
HETATM   11  C   UNL     1      43.971 -19.559   2.652  1.00  0.00     0.044 C 
HETATM   12  C   UNL     1      43.594 -20.876   1.958  1.00  0.00     0.241 C 
HETATM   13  N   UNL     1      44.598 -21.937   2.298  1.00  0.00    -0.074 N 
HETATM   14  H   UNL     1      45.515 -21.686   1.904  1.00  0.00     0.277 HD
HETATM   15  H   UNL     1      44.328 -22.813   1.830  1.00  0.00     0.277 HD
HETATM   16  C   UNL     1      44.736 -22.190   3.763  1.00  0.00     0.232 C 
HETATM   17  C   UNL     1      45.132 -20.899   4.462  1.00  0.00     0.028 C 
HETATM   18  C   UNL     1      44.142 -19.771   4.168  1.00  0.00     0.013 C 
ENDBRANCH   8  11
ENDBRANCH   1   5
BRANCH   2  19
HETATM   19  C   UNL     1      39.581 -13.540  -0.229  1.00  0.00     0.123 C 
BRANCH  19  20
HETATM   20  C   UNL     1      39.978 -12.121   0.171  1.00  0.00     0.026 C 
BRANCH  20  21
HETATM   21  C   UNL     1      41.464 -12.005   0.512  1.00  0.00     0.061 C 
BRANCH  21  22
HETATM   22  C   UNL     1      41.728 -12.264   1.960  1.00  0.00     0.044 A 
HETATM   23  N   UNL     1      42.740 -13.147   2.301  1.00  0.00    -0.229 NA
HETATM   24  C   UNL     1      42.847 -13.235   3.604  1.00  0.00     0.164 A 
HETATM   25  N   UNL     1      43.752 -14.014   4.214  1.00  0.00    -0.378 N 
HETATM   26  S   UNL     1      41.725 -12.295   4.499  1.00  0.00    -0.062 SA
HETATM   27  H   UNL     1      44.185 -14.724   3.638  1.00  0.00     0.158 HD
HETATM   28  H   UNL     1      43.576 -14.293   5.172  1.00  0.00     0.158 HD
HETATM   29  C   UNL     1      41.062 -11.707   3.034  1.00  0.00     0.080 A 
ENDBRANCH  21  22
ENDBRANCH  20  21
ENDBRANCH  19  20
ENDBRANCH   2  19
TORSDOF 6
ENDMDL
MODEL 10
REMARK VINA RESULT:      -7.3      2.423      3.530
REMARK  6 active torsions:
REMARK  status: ('A' for Active; 'I' for Inactive)
REMARK    1  A    between atoms: C_2  and  C_3 
REMARK    2  A    between atoms: C_13  and  C_14 
REMARK       I    between atoms: C_14  and  N_15 
REMARK    3  A    between atoms: N_15  and  C_16 
REMARK    4  A    between atoms: C_16  and  C_17 
REMARK    5  A    between atoms: C_17  and  C_18 
REMARK    6  A    between atoms: C_18  and  C_19 
ROOT
HETATM    1  C   UNL     1      41.012 -15.461   0.123  1.00  0.00     0.251 C 
HETATM    2  N   UNL     1      41.478 -15.451  -1.175  1.00  0.00    -0.357 N 
HETATM    3  O   UNL     1      40.016 -14.849   0.491  1.00  0.00    -0.268 OA
HETATM    4  H   UNL     1      42.168 -16.131  -1.460  1.00  0.00     0.162 HD
ENDROOT
BRANCH   1   5
HETATM    5  C   UNL     1      41.764 -16.297   1.102  1.00  0.00     0.032 A 
HETATM    6  C   UNL     1      41.346 -16.472   2.424  1.00  0.00     0.017 A 
HETATM    7  C   UNL     1      42.092 -17.276   3.297  1.00  0.00     0.008 A 
HETATM    8  C   UNL     1      43.259 -17.925   2.862  1.00  0.00    -0.052 A 
HETATM    9  C   UNL     1      43.661 -17.755   1.530  1.00  0.00     0.008 A 
HETATM   10  C   UNL     1      42.917 -16.954   0.658  1.00  0.00     0.017 A 
BRANCH   8  11
HETATM   11  C   UNL     1      44.060 -18.763   3.841  1.00  0.00     0.044 C 
HETATM   12  C   UNL     1      44.359 -20.146   3.242  1.00  0.00     0.241 C 
HETATM   13  N   UNL     1      45.160 -20.960   4.214  1.00  0.00    -0.074 N 
HETATM   14  H   UNL     1      46.085 -20.528   4.349  1.00  0.00     0.277 HD
HETATM   15  H   UNL     1      45.346 -21.883   3.800  1.00  0.00     0.277 HD
HETATM   16  C   UNL     1      44.496 -21.145   5.539  1.00  0.00     0.232 C 
HETATM   17  C   UNL     1      44.215 -19.784   6.155  1.00  0.00     0.028 C 
HETATM   18  C   UNL     1      43.388 -18.900   5.220  1.00  0.00     0.013 C 
ENDBRANCH   8  11
ENDBRANCH   1   5
BRANCH   2  19
HETATM   19  C   UNL     1      40.773 -14.745  -2.229  1.00  0.00     0.123 C 
BRANCH  19  20
HETATM   20  C   UNL     1      41.687 -13.937  -3.147  1.00  0.00     0.026 C 
BRANCH  20  21
HETATM   21  C   UNL     1      42.803 -13.226  -2.381  1.00  0.00     0.061 C 
BRANCH  21  22
HETATM   22  C   UNL     1      42.358 -11.905  -1.841  1.00  0.00     0.044 A 
HETATM   23  N   UNL     1      43.183 -11.243  -0.946  1.00  0.00    -0.229 NA
HETATM   24  C   UNL     1      42.650 -10.098  -0.598  1.00  0.00     0.164 A 
HETATM   25  N   UNL     1      43.237  -9.246   0.255  1.00  0.00    -0.378 N 
HETATM   26  S   UNL     1      41.117  -9.759  -1.290  1.00  0.00    -0.062 SA
HETATM   27  H   UNL     1      43.990  -9.627   0.815  1.00  0.00     0.158 HD
HETATM   28  H   UNL     1      42.656  -8.568   0.731  1.00  0.00     0.158 HD
HETATM   29  C   UNL     1      41.182 -11.244  -2.139  1.00  0.00     0.080 A 
ENDBRANCH  21  22
ENDBRANCH  20  21
ENDBRANCH  19  20
ENDBRANCH   2  19
TORSDOF 6
ENDMDL
