MODEL 1
REMARK VINA RESULT:      -9.6      0.000      0.000
REMARK  4 active torsions:
REMARK  status: ('A' for Active; 'I' for Inactive)
REMARK    1  A    between atoms: C_5  and  C_6 
REMARK    2  A    between atoms: C_6  and  C_7 
REMARK       I    between atoms: C_7  and  N_8 
REMARK    3  A    between atoms: N_8  and  C_9 
REMARK    4  A    between atoms: C_16  and  C_17 
REMARK       I    between atoms: C_17  and  N_18 
ROOT
HETATM    1  C   UNL     1      41.694 -15.250   0.144  1.00  0.00     0.035 A 
HETATM    2  C   UNL     1      40.976 -15.380  -1.052  1.00  0.00     0.046 A 
HETATM    3  C   UNL     1      40.031 -14.392  -1.410  1.00  0.00     0.030 A 
HETATM    4  C   UNL     1      39.823 -13.321  -0.550  1.00  0.00     0.063 A 
HETATM    5  N   UNL     1      38.866 -12.553  -1.151  1.00  0.00    -0.277 N 
HETATM    6  H   UNL     1      38.464 -11.690  -0.804  1.00  0.00     0.189 HD
HETATM    7  N   UNL     1      38.442 -13.019  -2.338  1.00  0.00    -0.168 NA
HETATM    8  C   UNL     1      39.155 -14.155  -2.512  1.00  0.00     0.156 A 
HETATM    9  C   UNL     1      40.515 -13.163   0.653  1.00  0.00     0.034 A 
HETATM   10  C   UNL     1      41.460 -14.145   0.974  1.00  0.00     0.032 A 
ENDROOT
BRANCH   1  11
HETATM   11  N   UNL     1      42.678 -16.167   0.572  1.00  0.00    -0.327 N 
HETATM   12  C   UNL     1      42.483 -17.428   1.109  1.00  0.00     0.226 C 
HETATM   13  O   UNL     1      41.404 -17.937   1.397  1.00  0.00    -0.273 OA
HETATM   14  H   UNL     1      43.639 -15.874   0.451  1.00  0.00     0.169 HD
BRANCH  12  15
HETATM   15  C   UNL     1      43.782 -18.165   1.408  1.00  0.00     0.142 C 
BRANCH  15  16
HETATM   16  C   UNL     1      43.953 -18.558   2.864  1.00  0.00    -0.038 A 
HETATM   17  C   UNL     1      44.204 -19.904   3.262  1.00  0.00    -0.019 A 
HETATM   18  C   UNL     1      44.368 -20.186   4.642  1.00  0.00    -0.025 A 
HETATM   19  C   UNL     1      44.296 -20.989   2.360  1.00  0.00     0.013 A 
HETATM   20  C   UNL     1      44.618 -21.502   5.068  1.00  0.00     0.012 A 
HETATM   21  C   UNL     1      44.277 -19.151   5.584  1.00  0.00     0.012 A 
HETATM   22  C   UNL     1      44.707 -22.548   4.152  1.00  0.00     0.001 A 
HETATM   23  C   UNL     1      44.547 -22.292   2.798  1.00  0.00     0.001 A 
HETATM   24  C   UNL     1      44.021 -17.841   5.186  1.00  0.00     0.001 A 
HETATM   25  C   UNL     1      43.860 -17.547   3.838  1.00  0.00     0.008 A 
ENDBRANCH  15  16
ENDBRANCH  12  15
ENDBRANCH   1  11
BRANCH   8  26
HETATM   26  C   UNL     1      38.996 -14.973  -3.724  1.00  0.00     0.270 C 
HETATM   27  N   UNL     1      37.752 -14.895  -4.289  1.00  0.00    -0.365 N 
HETATM   28  H   UNL     1      37.061 -14.291  -3.859  1.00  0.00     0.159 HD
HETATM   29  H   UNL     1      37.557 -15.404  -5.136  1.00  0.00     0.159 HD
HETATM   30  O   UNL     1      39.874 -15.670  -4.220  1.00  0.00    -0.266 OA
ENDBRANCH   8  26
TORSDOF 4
ENDMDL
MODEL 2
REMARK VINA RESULT:      -9.4      2.638      3.332
REMARK  4 active torsions:
REMARK  status: ('A' for Active; 'I' for Inactive)
REMARK    1  A    between atoms: C_5  and  C_6 
REMARK    2  A    between atoms: C_6  and  C_7 
REMARK       I    between atoms: C_7  and  N_8 
REMARK    3  A    between atoms: N_8  and  C_9 
REMARK    4  A    between atoms: C_16  and  C_17 
REMARK       I    between atoms: C_17  and  N_18 
ROOT
HETATM    1  C   UNL     1      41.337 -15.280  -0.857  1.00  0.00     0.035 A 
HETATM    2  C   UNL     1      41.893 -14.001  -0.723  1.00  0.00     0.046 A 
HETATM    3  C   UNL     1      42.022 -13.172  -1.860  1.00  0.00     0.030 A 
HETATM    4  C   UNL     1      41.608 -13.659  -3.094  1.00  0.00     0.063 A 
HETATM    5  N   UNL     1      41.860 -12.653  -3.984  1.00  0.00    -0.277 N 
HETATM    6  H   UNL     1      41.686 -12.660  -4.982  1.00  0.00     0.189 HD
HETATM    7  N   UNL     1      42.385 -11.544  -3.438  1.00  0.00    -0.168 NA
HETATM    8  C   UNL     1      42.489 -11.849  -2.124  1.00  0.00     0.156 A 
HETATM    9  C   UNL     1      41.057 -14.930  -3.266  1.00  0.00     0.034 A 
HETATM   10  C   UNL     1      40.923 -15.724  -2.120  1.00  0.00     0.032 A 
ENDROOT
BRANCH   1  11
HETATM   11  N   UNL     1      41.140 -16.168   0.223  1.00  0.00    -0.327 N 
HETATM   12  C   UNL     1      42.104 -16.864   0.931  1.00  0.00     0.226 C 
HETATM   13  O   UNL     1      43.305 -16.905   0.679  1.00  0.00    -0.273 OA
HETATM   14  H   UNL     1      40.183 -16.290   0.527  1.00  0.00     0.169 HD
BRANCH  12  15
HETATM   15  C   UNL     1      41.533 -17.692   2.075  1.00  0.00     0.142 C 
BRANCH  15  16
HETATM   16  C   UNL     1      42.569 -18.172   3.074  1.00  0.00    -0.038 A 
HETATM   17  C   UNL     1      43.247 -19.417   2.926  1.00  0.00    -0.019 A 
HETATM   18  C   UNL     1      44.213 -19.786   3.897  1.00  0.00    -0.025 A 
HETATM   19  C   UNL     1      43.013 -20.321   1.864  1.00  0.00     0.013 A 
HETATM   20  C   UNL     1      44.901 -21.006   3.779  1.00  0.00     0.012 A 
HETATM   21  C   UNL     1      44.481 -18.934   4.978  1.00  0.00     0.012 A 
HETATM   22  C   UNL     1      44.649 -21.873   2.717  1.00  0.00     0.001 A 
HETATM   23  C   UNL     1      43.705 -21.530   1.759  1.00  0.00     0.001 A 
HETATM   24  C   UNL     1      43.806 -17.724   5.119  1.00  0.00     0.001 A 
HETATM   25  C   UNL     1      42.857 -17.347   4.177  1.00  0.00     0.008 A 
ENDBRANCH  15  16
ENDBRANCH  12  15
ENDBRANCH   1  11
BRANCH   8  26
HETATM   26  C   UNL     1      43.014 -10.874  -1.157  1.00  0.00     0.270 C 
HETATM   27  N   UNL     1      43.699  -9.836  -1.729  1.00  0.00    -0.365 N 
HETATM   28  H   UNL     1      43.779  -9.806  -2.739  1.00  0.00     0.159 HD
HETATM   29  H   UNL     1      44.076  -9.106  -1.147  1.00  0.00     0.159 HD
HETATM   30  O   UNL     1      42.868 -10.942   0.058  1.00  0.00    -0.266 OA
ENDBRANCH   8  26
TORSDOF 4
ENDMDL
MODEL 3
REMARK VINA RESULT:      -9.3      3.680      5.187
REMARK  4 active torsions:
REMARK  status: ('A' for Active; 'I' for Inactive)
REMARK    1  A    between atoms: C_5  and  C_6 
REMARK    2  A    between atoms: C_6  and  C_7 
REMARK       I    between atoms: C_7  and  N_8 
REMARK    3  A    between atoms: N_8  and  C_9 
REMARK    4  A    between atoms: C_16  and  C_17 
REMARK       I    between atoms: C_17  and  N_18 
ROOT
HETATM    1  C   UNL     1      40.993 -14.156   2.871  1.00  0.00     0.035 A 
HETATM    2  C   UNL     1      40.830 -13.589   4.142  1.00  0.00     0.046 A 
HETATM    3  C   UNL     1      39.834 -12.608   4.346  1.00  0.00     0.030 A 
HETATM    4  C   UNL     1      39.049 -12.215   3.269  1.00  0.00     0.063 A 
HETATM    5  N   UNL     1      38.199 -11.268   3.766  1.00  0.00    -0.277 N 
HETATM    6  H   UNL     1      37.485 -10.758   3.259  1.00  0.00     0.189 HD
HETATM    7  N   UNL     1      38.346 -11.020   5.078  1.00  0.00    -0.168 NA
HETATM    8  C   UNL     1      39.353 -11.843   5.451  1.00  0.00     0.156 A 
HETATM    9  C   UNL     1      39.188 -12.753   1.988  1.00  0.00     0.034 A 
HETATM   10  C   UNL     1      40.169 -13.737   1.817  1.00  0.00     0.032 A 
ENDROOT
BRANCH   1  11
HETATM   11  N   UNL     1      41.938 -15.162   2.575  1.00  0.00    -0.327 N 
HETATM   12  C   UNL     1      41.747 -16.532   2.592  1.00  0.00     0.226 C 
HETATM   13  O   UNL     1      40.737 -17.122   2.964  1.00  0.00    -0.273 OA
HETATM   14  H   UNL     1      42.856 -14.839   2.297  1.00  0.00     0.169 HD
BRANCH  12  15
HETATM   15  C   UNL     1      42.978 -17.319   2.161  1.00  0.00     0.142 C 
BRANCH  15  16
HETATM   16  C   UNL     1      43.592 -18.167   3.259  1.00  0.00    -0.038 A 
HETATM   17  C   UNL     1      43.871 -19.554   3.081  1.00  0.00    -0.019 A 
HETATM   18  C   UNL     1      44.459 -20.273   4.153  1.00  0.00    -0.025 A 
HETATM   19  C   UNL     1      43.591 -20.268   1.893  1.00  0.00     0.013 A 
HETATM   20  C   UNL     1      44.748 -21.641   4.009  1.00  0.00     0.012 A 
HETATM   21  C   UNL     1      44.750 -19.619   5.359  1.00  0.00     0.012 A 
HETATM   22  C   UNL     1      44.464 -22.315   2.823  1.00  0.00     0.001 A 
HETATM   23  C   UNL     1      43.886 -21.628   1.765  1.00  0.00     0.001 A 
HETATM   24  C   UNL     1      44.464 -18.267   5.527  1.00  0.00     0.001 A 
HETATM   25  C   UNL     1      43.889 -17.547   4.486  1.00  0.00     0.008 A 
ENDBRANCH  15  16
ENDBRANCH  12  15
ENDBRANCH   1  11
BRANCH   8  26
HETATM   26  C   UNL     1      39.818 -11.889   6.846  1.00  0.00     0.270 C 
HETATM   27  N   UNL     1      39.202 -12.846   7.607  1.00  0.00    -0.365 N 
HETATM   28  H   UNL     1      38.509 -13.441   7.169  1.00  0.00     0.159 HD
HETATM   29  H   UNL     1      39.473 -12.967   8.569  1.00  0.00     0.159 HD
HETATM   30  O   UNL     1      40.681 -11.161   7.321  1.00  0.00    -0.266 OA
ENDBRANCH   8  26
TORSDOF 4
ENDMDL
MODEL 4
REMARK VINA RESULT:      -9.1      2.424      3.814
REMARK  4 active torsions:
REMARK  status: ('A' for Active; 'I' for Inactive)
REMARK    1  A    between atoms: C_5  and  C_6 
REMARK    2  A    between atoms: C_6  and  C_7 
REMARK       I    between atoms: C_7  and  N_8 
REMARK    3  A    between atoms: N_8  and  C_9 
REMARK    4  A    between atoms: C_16  and  C_17 
REMARK       I    between atoms: C_17  and  N_18 
ROOT
HETATM    1  C   UNL     1      41.288 -15.475  -0.867  1.00  0.00     0.035 A 
HETATM    2  C   UNL     1      41.741 -14.170  -0.629  1.00  0.00     0.046 A 
HETATM    3  C   UNL     1      41.796 -13.245  -1.695  1.00  0.00     0.030 A 
HETATM    4  C   UNL     1      41.414 -13.661  -2.964  1.00  0.00     0.063 A 
HETATM    5  N   UNL     1      41.579 -12.569  -3.769  1.00  0.00    -0.277 N 
HETATM    6  H   UNL     1      41.400 -12.508  -4.765  1.00  0.00     0.189 HD
HETATM    7  N   UNL     1      42.017 -11.470  -3.134  1.00  0.00    -0.168 NA
HETATM    8  C   UNL     1      42.154 -11.871  -1.850  1.00  0.00     0.156 A 
HETATM    9  C   UNL     1      40.965 -14.954  -3.240  1.00  0.00     0.034 A 
HETATM   10  C   UNL     1      40.902 -15.846  -2.163  1.00  0.00     0.032 A 
ENDROOT
BRANCH   1  11
HETATM   11  N   UNL     1      41.170 -16.460   0.136  1.00  0.00    -0.327 N 
HETATM   12  C   UNL     1      42.187 -17.049   0.867  1.00  0.00     0.226 C 
HETATM   13  O   UNL     1      43.392 -16.883   0.702  1.00  0.00    -0.273 OA
HETATM   14  H   UNL     1      40.227 -16.753   0.361  1.00  0.00     0.169 HD
BRANCH  12  15
HETATM   15  C   UNL     1      41.687 -18.039   1.911  1.00  0.00     0.142 C 
BRANCH  15  16
HETATM   16  C   UNL     1      42.780 -18.871   2.555  1.00  0.00    -0.038 A 
HETATM   17  C   UNL     1      43.388 -18.500   3.789  1.00  0.00    -0.019 A 
HETATM   18  C   UNL     1      44.393 -19.341   4.332  1.00  0.00    -0.025 A 
HETATM   19  C   UNL     1      43.055 -17.332   4.513  1.00  0.00     0.013 A 
HETATM   20  C   UNL     1      45.012 -19.005   5.549  1.00  0.00     0.012 A 
HETATM   21  C   UNL     1      44.772 -20.508   3.654  1.00  0.00     0.012 A 
HETATM   22  C   UNL     1      44.657 -17.848   6.240  1.00  0.00     0.001 A 
HETATM   23  C   UNL     1      43.679 -17.012   5.722  1.00  0.00     0.001 A 
HETATM   24  C   UNL     1      44.179 -20.856   2.443  1.00  0.00     0.001 A 
HETATM   25  C   UNL     1      43.192 -20.045   1.897  1.00  0.00     0.008 A 
ENDBRANCH  15  16
ENDBRANCH  12  15
ENDBRANCH   1  11
BRANCH   8  26
HETATM   26  C   UNL     1      42.606 -10.939  -0.807  1.00  0.00     0.270 C 
HETATM   27  N   UNL     1      41.612 -10.519   0.034  1.00  0.00    -0.365 N 
HETATM   28  H   UNL     1      40.674 -10.878  -0.106  1.00  0.00     0.159 HD
HETATM   29  H   UNL     1      41.832  -9.896   0.794  1.00  0.00     0.159 HD
HETATM   30  O   UNL     1      43.761 -10.553  -0.663  1.00  0.00    -0.266 OA
ENDBRANCH   8  26
TORSDOF 4
ENDMDL
MODEL 5
REMARK VINA RESULT:      -8.8      1.744      2.982
REMARK  4 active torsions:
REMARK  status: ('A' for Active; 'I' for Inactive)
REMARK    1  A    between atoms: C_5  and  C_6 
REMARK    2  A    between atoms: C_6  and  C_7 
REMARK       I    between atoms: C_7  and  N_8 
REMARK    3  A    between atoms: N_8  and  C_9 
REMARK    4  A    between atoms: C_16  and  C_17 
REMARK       I    between atoms: C_17  and  N_18 
ROOT
HETATM    1  C   UNL     1      41.482 -15.134   0.023  1.00  0.00     0.035 A 
HETATM    2  C   UNL     1      40.988 -14.142   0.880  1.00  0.00     0.046 A 
HETATM    3  C   UNL     1      39.977 -13.267   0.426  1.00  0.00     0.030 A 
HETATM    4  C   UNL     1      39.509 -13.401  -0.875  1.00  0.00     0.063 A 
HETATM    5  N   UNL     1      38.560 -12.429  -1.022  1.00  0.00    -0.277 N 
HETATM    6  H   UNL     1      38.009 -12.229  -1.848  1.00  0.00     0.189 HD
HETATM    7  N   UNL     1      38.353 -11.682   0.076  1.00  0.00    -0.168 NA
HETATM    8  C   UNL     1      39.221 -12.190   0.980  1.00  0.00     0.156 A 
HETATM    9  C   UNL     1      39.982 -14.372  -1.759  1.00  0.00     0.034 A 
HETATM   10  C   UNL     1      40.970 -15.240  -1.278  1.00  0.00     0.032 A 
ENDROOT
BRANCH   1  11
HETATM   11  N   UNL     1      42.468 -16.073   0.393  1.00  0.00    -0.327 N 
HETATM   12  C   UNL     1      42.278 -17.311   0.982  1.00  0.00     0.226 C 
HETATM   13  O   UNL     1      41.212 -17.774   1.376  1.00  0.00    -0.273 OA
HETATM   14  H   UNL     1      43.425 -15.818   0.182  1.00  0.00     0.169 HD
BRANCH  12  15
HETATM   15  C   UNL     1      43.573 -18.086   1.192  1.00  0.00     0.142 C 
BRANCH  15  16
HETATM   16  C   UNL     1      43.832 -18.488   2.632  1.00  0.00    -0.038 A 
HETATM   17  C   UNL     1      44.118 -19.833   3.005  1.00  0.00    -0.019 A 
HETATM   18  C   UNL     1      44.364 -20.123   4.371  1.00  0.00    -0.025 A 
HETATM   19  C   UNL     1      44.169 -20.911   2.091  1.00  0.00     0.013 A 
HETATM   20  C   UNL     1      44.651 -21.439   4.772  1.00  0.00     0.012 A 
HETATM   21  C   UNL     1      44.318 -19.096   5.325  1.00  0.00     0.012 A 
HETATM   22  C   UNL     1      44.698 -22.479   3.845  1.00  0.00     0.001 A 
HETATM   23  C   UNL     1      44.457 -22.215   2.504  1.00  0.00     0.001 A 
HETATM   24  C   UNL     1      44.027 -17.786   4.952  1.00  0.00     0.001 A 
HETATM   25  C   UNL     1      43.785 -17.484   3.617  1.00  0.00     0.008 A 
ENDBRANCH  15  16
ENDBRANCH  12  15
ENDBRANCH   1  11
BRANCH   8  26
HETATM   26  C   UNL     1      39.297 -11.649   2.346  1.00  0.00     0.270 C 
HETATM   27  N   UNL     1      38.079 -11.453   2.937  1.00  0.00    -0.365 N 
HETATM   28  H   UNL     1      37.243 -11.700   2.418  1.00  0.00     0.159 HD
HETATM   29  H   UNL     1      38.033 -11.108   3.881  1.00  0.00     0.159 HD
HETATM   30  O   UNL     1      40.338 -11.390   2.940  1.00  0.00    -0.266 OA
ENDBRANCH   8  26
TORSDOF 4
ENDMDL
MODEL 6
REMARK VINA RESULT:      -8.8      1.100      2.278
REMARK  4 active torsions:
REMARK  status: ('A' for Active; 'I' for Inactive)
REMARK    1  A    between atoms: C_5  and  C_6 
REMARK    2  A    between atoms: C_6  and  C_7 
REMARK       I    between atoms: C_7  and  N_8 
REMARK    3  A    between atoms: N_8  and  C_9 
REMARK    4  A    between atoms: C_16  and  C_17 
REMARK       I    between atoms: C_17  and  N_18 
ROOT
HETATM    1  C   UNL     1      41.331 -15.478   0.724  1.00  0.00     0.035 A 
HETATM    2  C   UNL     1      41.060 -15.067  -0.587  1.00  0.00     0.046 A 
HETATM    3  C   UNL     1      39.867 -14.364  -0.867  1.00  0.00     0.030 A 
HETATM    4  C   UNL     1      38.978 -14.114   0.170  1.00  0.00     0.063 A 
HETATM    5  N   UNL     1      37.937 -13.437  -0.400  1.00  0.00    -0.277 N 
HETATM    6  H   UNL     1      37.101 -13.096   0.061  1.00  0.00     0.189 HD
HETATM    7  N   UNL     1      38.075 -13.207  -1.716  1.00  0.00    -0.168 NA
HETATM    8  C   UNL     1      39.266 -13.773  -2.019  1.00  0.00     0.156 A 
HETATM    9  C   UNL     1      39.211 -14.514   1.487  1.00  0.00     0.034 A 
HETATM   10  C   UNL     1      40.409 -15.192   1.742  1.00  0.00     0.032 A 
ENDROOT
BRANCH   1  11
HETATM   11  N   UNL     1      42.506 -16.159   1.108  1.00  0.00    -0.327 N 
HETATM   12  C   UNL     1      42.650 -17.506   1.388  1.00  0.00     0.226 C 
HETATM   13  O   UNL     1      41.749 -18.338   1.445  1.00  0.00    -0.273 OA
HETATM   14  H   UNL     1      43.346 -15.596   1.162  1.00  0.00     0.169 HD
BRANCH  12  15
HETATM   15  C   UNL     1      44.082 -17.907   1.717  1.00  0.00     0.142 C 
BRANCH  15  16
HETATM   16  C   UNL     1      44.203 -19.186   2.524  1.00  0.00    -0.038 A 
HETATM   17  C   UNL     1      44.174 -19.189   3.949  1.00  0.00    -0.019 A 
HETATM   18  C   UNL     1      44.277 -20.430   4.629  1.00  0.00    -0.025 A 
HETATM   19  C   UNL     1      44.052 -18.022   4.738  1.00  0.00     0.013 A 
HETATM   20  C   UNL     1      44.251 -20.468   6.033  1.00  0.00     0.012 A 
HETATM   21  C   UNL     1      44.409 -21.620   3.898  1.00  0.00     0.012 A 
HETATM   22  C   UNL     1      44.125 -19.299   6.782  1.00  0.00     0.001 A 
HETATM   23  C   UNL     1      44.026 -18.076   6.134  1.00  0.00     0.001 A 
HETATM   24  C   UNL     1      44.447 -21.605   2.507  1.00  0.00     0.001 A 
HETATM   25  C   UNL     1      44.346 -20.398   1.825  1.00  0.00     0.008 A 
ENDBRANCH  15  16
ENDBRANCH  12  15
ENDBRANCH   1  11
BRANCH   8  26
HETATM   26  C   UNL     1      39.803 -13.724  -3.387  1.00  0.00     0.270 C 
HETATM   27  N   UNL     1      39.551 -12.550  -4.043  1.00  0.00    -0.365 N 
HETATM   28  H   UNL     1      39.046 -11.820  -3.553  1.00  0.00     0.159 HD
HETATM   29  H   UNL     1      39.901 -12.416  -4.977  1.00  0.00     0.159 HD
HETATM   30  O   UNL     1      40.432 -14.627  -3.926  1.00  0.00    -0.266 OA
ENDBRANCH   8  26
TORSDOF 4
ENDMDL
MODEL 7
REMARK VINA RESULT:      -8.7      1.921      2.454
REMARK  4 active torsions:
REMARK  status: ('A' for Active; 'I' for Inactive)
REMARK    1  A    between atoms: C_5  and  C_6 
REMARK    2  A    between atoms: C_6  and  C_7 
REMARK       I    between atoms: C_7  and  N_8 
REMARK    3  A    between atoms: N_8  and  C_9 
REMARK    4  A    between atoms: C_16  and  C_17 
REMARK       I    between atoms: C_17  and  N_18 
ROOT
HETATM    1  C   UNL     1      39.957 -14.877   1.822  1.00  0.00     0.035 A 
HETATM    2  C   UNL     1      40.392 -15.067   0.504  1.00  0.00     0.046 A 
HETATM    3  C   UNL     1      40.114 -14.085  -0.472  1.00  0.00     0.030 A 
HETATM    4  C   UNL     1      39.395 -12.956  -0.100  1.00  0.00     0.063 A 
HETATM    5  N   UNL     1      39.280 -12.208  -1.238  1.00  0.00    -0.277 N 
HETATM    6  H   UNL     1      38.811 -11.315  -1.341  1.00  0.00     0.189 HD
HETATM    7  N   UNL     1      39.876 -12.740  -2.318  1.00  0.00    -0.168 NA
HETATM    8  C   UNL     1      40.398 -13.900  -1.859  1.00  0.00     0.156 A 
HETATM    9  C   UNL     1      38.940 -12.735   1.201  1.00  0.00     0.034 A 
HETATM   10  C   UNL     1      39.246 -13.715   2.154  1.00  0.00     0.032 A 
ENDROOT
BRANCH   1  11
HETATM   11  N   UNL     1      40.212 -15.785   2.872  1.00  0.00    -0.327 N 
HETATM   12  C   UNL     1      41.355 -15.883   3.647  1.00  0.00     0.226 C 
HETATM   13  O   UNL     1      42.396 -15.253   3.490  1.00  0.00    -0.273 OA
HETATM   14  H   UNL     1      39.459 -16.423   3.098  1.00  0.00     0.169 HD
BRANCH  12  15
HETATM   15  C   UNL     1      41.259 -16.947   4.733  1.00  0.00     0.142 C 
BRANCH  15  16
HETATM   16  C   UNL     1      42.569 -17.654   5.029  1.00  0.00    -0.038 A 
HETATM   17  C   UNL     1      43.153 -18.582   4.118  1.00  0.00    -0.019 A 
HETATM   18  C   UNL     1      44.388 -19.189   4.463  1.00  0.00    -0.025 A 
HETATM   19  C   UNL     1      42.573 -18.943   2.880  1.00  0.00     0.013 A 
HETATM   20  C   UNL     1      44.991 -20.106   3.586  1.00  0.00     0.012 A 
HETATM   21  C   UNL     1      45.006 -18.875   5.682  1.00  0.00     0.012 A 
HETATM   22  C   UNL     1      44.395 -20.438   2.371  1.00  0.00     0.001 A 
HETATM   23  C   UNL     1      43.186 -19.857   2.018  1.00  0.00     0.001 A 
HETATM   24  C   UNL     1      44.421 -17.976   6.570  1.00  0.00     0.001 A 
HETATM   25  C   UNL     1      43.213 -17.371   6.247  1.00  0.00     0.008 A 
ENDBRANCH  15  16
ENDBRANCH  12  15
ENDBRANCH   1  11
BRANCH   8  26
HETATM   26  C   UNL     1      41.162 -14.792  -2.745  1.00  0.00     0.270 C 
HETATM   27  N   UNL     1      42.307 -14.232  -3.245  1.00  0.00    -0.365 N 
HETATM   28  H   UNL     1      42.545 -13.287  -2.969  1.00  0.00     0.159 HD
HETATM   29  H   UNL     1      42.907 -14.776  -3.843  1.00  0.00     0.159 HD
HETATM   30  O   UNL     1      40.843 -15.940  -3.028  1.00  0.00    -0.266 OA
ENDBRANCH   8  26
TORSDOF 4
ENDMDL
MODEL 8
REMARK VINA RESULT:      -8.6      3.211      9.281
REMARK  4 active torsions:
REMARK  status: ('A' for Active; 'I' for Inactive)
REMARK    1  A    between atoms: C_5  and  C_6 
REMARK    2  A    between atoms: C_6  and  C_7 
REMARK       I    between atoms: C_7  and  N_8 
REMARK    3  A    between atoms: N_8  and  C_9 
REMARK    4  A    between atoms: C_16  and  C_17 
REMARK       I    between atoms: C_17  and  N_18 
ROOT
HETATM    1  C   UNL     1      43.283 -17.500   2.287  1.00  0.00     0.035 A 
HETATM    2  C   UNL     1      43.563 -17.694   3.646  1.00  0.00     0.046 A 
HETATM    3  C   UNL     1      44.019 -18.955   4.093  1.00  0.00     0.030 A 
HETATM    4  C   UNL     1      44.161 -19.982   3.168  1.00  0.00     0.063 A 
HETATM    5  N   UNL     1      44.602 -21.058   3.886  1.00  0.00    -0.277 N 
HETATM    6  H   UNL     1      44.810 -21.985   3.535  1.00  0.00     0.189 HD
HETATM    7  N   UNL     1      44.779 -20.819   5.196  1.00  0.00    -0.168 NA
HETATM    8  C   UNL     1      44.424 -19.522   5.339  1.00  0.00     0.156 A 
HETATM    9  C   UNL     1      43.885 -19.827   1.808  1.00  0.00     0.034 A 
HETATM   10  C   UNL     1      43.453 -18.563   1.389  1.00  0.00     0.032 A 
ENDROOT
BRANCH   1  11
HETATM   11  N   UNL     1      42.852 -16.272   1.742  1.00  0.00    -0.327 N 
HETATM   12  C   UNL     1      41.551 -15.823   1.593  1.00  0.00     0.226 C 
HETATM   13  O   UNL     1      40.530 -16.463   1.825  1.00  0.00    -0.273 OA
HETATM   14  H   UNL     1      43.583 -15.638   1.445  1.00  0.00     0.169 HD
BRANCH  12  15
HETATM   15  C   UNL     1      41.459 -14.417   1.014  1.00  0.00     0.142 C 
BRANCH  15  16
HETATM   16  C   UNL     1      41.470 -14.366  -0.503  1.00  0.00    -0.038 A 
HETATM   17  C   UNL     1      41.916 -13.218  -1.220  1.00  0.00    -0.019 A 
HETATM   18  C   UNL     1      41.908 -13.257  -2.638  1.00  0.00    -0.025 A 
HETATM   19  C   UNL     1      42.365 -12.028  -0.603  1.00  0.00     0.013 A 
HETATM   20  C   UNL     1      42.343 -12.142  -3.376  1.00  0.00     0.012 A 
HETATM   21  C   UNL     1      41.464 -14.408  -3.305  1.00  0.00     0.012 A 
HETATM   22  C   UNL     1      42.784 -10.985  -2.736  1.00  0.00     0.001 A 
HETATM   23  C   UNL     1      42.795 -10.928  -1.350  1.00  0.00     0.001 A 
HETATM   24  C   UNL     1      41.021 -15.520  -2.595  1.00  0.00     0.001 A 
HETATM   25  C   UNL     1      41.023 -15.500  -1.206  1.00  0.00     0.008 A 
ENDBRANCH  15  16
ENDBRANCH  12  15
ENDBRANCH   1  11
BRANCH   8  26
HETATM   26  C   UNL     1      44.493 -18.856   6.648  1.00  0.00     0.270 C 
HETATM   27  N   UNL     1      45.409 -17.841   6.709  1.00  0.00    -0.365 N 
HETATM   28  H   UNL     1      45.942 -17.619   5.877  1.00  0.00     0.159 HD
HETATM   29  H   UNL     1      45.510 -17.311   7.559  1.00  0.00     0.159 HD
HETATM   30  O   UNL     1      43.805 -19.147   7.620  1.00  0.00    -0.266 OA
ENDBRANCH   8  26
TORSDOF 4
ENDMDL
MODEL 9
REMARK VINA RESULT:      -8.4      3.289      8.937
REMARK  4 active torsions:
REMARK  status: ('A' for Active; 'I' for Inactive)
REMARK    1  A    between atoms: C_5  and  C_6 
REMARK    2  A    between atoms: C_6  and  C_7 
REMARK       I    between atoms: C_7  and  N_8 
REMARK    3  A    between atoms: N_8  and  C_9 
REMARK    4  A    between atoms: C_16  and  C_17 
REMARK       I    between atoms: C_17  and  N_18 
ROOT
HETATM    1  C   UNL     1      42.540 -17.453   2.862  1.00  0.00     0.035 A 
HETATM    2  C   UNL     1      42.728 -17.798   4.207  1.00  0.00     0.046 A 
HETATM    3  C   UNL     1      43.514 -18.925   4.536  1.00  0.00     0.030 A 
HETATM    4  C   UNL     1      44.067 -19.679   3.508  1.00  0.00     0.063 A 
HETATM    5  N   UNL     1      44.753 -20.687   4.125  1.00  0.00    -0.277 N 
HETATM    6  H   UNL     1      45.279 -21.431   3.683  1.00  0.00     0.189 HD
HETATM    7  N   UNL     1      44.712 -20.648   5.468  1.00  0.00    -0.168 NA
HETATM    8  C   UNL     1      43.950 -19.562   5.736  1.00  0.00     0.156 A 
HETATM    9  C   UNL     1      43.895 -19.369   2.157  1.00  0.00     0.034 A 
HETATM   10  C   UNL     1      43.128 -18.236   1.859  1.00  0.00     0.032 A 
ENDROOT
BRANCH   1  11
HETATM   11  N   UNL     1      41.798 -16.330   2.435  1.00  0.00    -0.327 N 
HETATM   12  C   UNL     1      42.215 -15.011   2.387  1.00  0.00     0.226 C 
HETATM   13  O   UNL     1      43.282 -14.569   2.801  1.00  0.00    -0.273 OA
HETATM   14  H   UNL     1      40.860 -16.518   2.106  1.00  0.00     0.169 HD
BRANCH  12  15
HETATM   15  C   UNL     1      41.164 -14.067   1.816  1.00  0.00     0.142 C 
BRANCH  15  16
HETATM   16  C   UNL     1      41.607 -13.321   0.571  1.00  0.00    -0.038 A 
HETATM   17  C   UNL     1      41.499 -13.890  -0.732  1.00  0.00    -0.019 A 
HETATM   18  C   UNL     1      41.921 -13.121  -1.847  1.00  0.00    -0.025 A 
HETATM   19  C   UNL     1      40.997 -15.187  -0.987  1.00  0.00     0.013 A 
HETATM   20  C   UNL     1      41.827 -13.652  -3.145  1.00  0.00     0.012 A 
HETATM   21  C   UNL     1      42.437 -11.831  -1.653  1.00  0.00     0.012 A 
HETATM   22  C   UNL     1      41.323 -14.933  -3.363  1.00  0.00     0.001 A 
HETATM   23  C   UNL     1      40.908 -15.700  -2.284  1.00  0.00     0.001 A 
HETATM   24  C   UNL     1      42.548 -11.289  -0.376  1.00  0.00     0.001 A 
HETATM   25  C   UNL     1      42.137 -12.028   0.727  1.00  0.00     0.008 A 
ENDBRANCH  15  16
ENDBRANCH  12  15
ENDBRANCH   1  11
BRANCH   8  26
HETATM   26  C   UNL     1      43.672 -19.154   7.121  1.00  0.00     0.270 C 
HETATM   27  N   UNL     1      43.650 -20.191   8.014  1.00  0.00    -0.365 N 
HETATM   28  H   UNL     1      43.836 -21.128   7.674  1.00  0.00     0.159 HD
HETATM   29  H   UNL     1      43.490 -20.005   8.990  1.00  0.00     0.159 HD
HETATM   30  O   UNL     1      43.479 -18.000   7.487  1.00  0.00    -0.266 OA
ENDBRANCH   8  26
TORSDOF 4
ENDMDL
MODEL 10
REMARK VINA RESULT:      -8.3      3.055      9.195
REMARK  4 active torsions:
REMARK  status: ('A' for Active; 'I' for Inactive)
REMARK    1  A    between atoms: C_5  and  C_6 
REMARK    2  A    between atoms: C_6  and  C_7 
REMARK       I    between atoms: C_7  and  N_8 
REMARK    3  A    between atoms: N_8  and  C_9 
REMARK    4  A    between atoms: C_16  and  C_17 
REMARK       I    between atoms: C_17  and  N_18 
ROOT
HETATM    1  C   UNL     1      43.477 -17.840   2.492  1.00  0.00     0.035 A 
HETATM    2  C   UNL     1      43.611 -17.966   3.881  1.00  0.00     0.046 A 
HETATM    3  C   UNL     1      44.025 -19.198   4.434  1.00  0.00     0.030 A 
HETATM    4  C   UNL     1      44.272 -20.266   3.581  1.00  0.00     0.063 A 
HETATM    5  N   UNL     1      44.642 -21.301   4.393  1.00  0.00    -0.277 N 
HETATM    6  H   UNL     1      44.893 -22.242   4.112  1.00  0.00     0.189 HD
HETATM    7  N   UNL     1      44.675 -20.999   5.701  1.00  0.00    -0.168 NA
HETATM    8  C   UNL     1      44.298 -19.700   5.743  1.00  0.00     0.156 A 
HETATM    9  C   UNL     1      44.143 -20.179   2.194  1.00  0.00     0.034 A 
HETATM   10  C   UNL     1      43.750 -18.942   1.669  1.00  0.00     0.032 A 
ENDROOT
BRANCH   1  11
HETATM   11  N   UNL     1      43.099 -16.644   1.845  1.00  0.00    -0.327 N 
HETATM   12  C   UNL     1      41.918 -16.385   1.171  1.00  0.00     0.226 C 
HETATM   13  O   UNL     1      41.023 -17.191   0.934  1.00  0.00    -0.273 OA
HETATM   14  H   UNL     1      43.761 -15.881   1.900  1.00  0.00     0.169 HD
BRANCH  12  15
HETATM   15  C   UNL     1      41.824 -14.960   0.640  1.00  0.00     0.142 C 
BRANCH  15  16
HETATM   16  C   UNL     1      40.410 -14.497   0.344  1.00  0.00    -0.038 A 
HETATM   17  C   UNL     1      39.873 -14.498  -0.977  1.00  0.00    -0.019 A 
HETATM   18  C   UNL     1      38.536 -14.063  -1.167  1.00  0.00    -0.025 A 
HETATM   19  C   UNL     1      40.596 -14.904  -2.122  1.00  0.00     0.013 A 
HETATM   20  C   UNL     1      37.975 -14.053  -2.456  1.00  0.00     0.012 A 
HETATM   21  C   UNL     1      37.774 -13.640  -0.069  1.00  0.00     0.012 A 
HETATM   22  C   UNL     1      38.714 -14.465  -3.564  1.00  0.00     0.001 A 
HETATM   23  C   UNL     1      40.024 -14.890  -3.397  1.00  0.00     0.001 A 
HETATM   24  C   UNL     1      38.312 -13.633   1.215  1.00  0.00     0.001 A 
HETATM   25  C   UNL     1      39.619 -14.057   1.420  1.00  0.00     0.008 A 
ENDBRANCH  15  16
ENDBRANCH  12  15
ENDBRANCH   1  11
BRANCH   8  26
HETATM   26  C   UNL     1      44.221 -18.972   7.018  1.00  0.00     0.270 C 
HETATM   27  N   UNL     1      43.663 -19.693   8.038  1.00  0.00    -0.365 N 
HETATM   28  H   UNL     1      43.368 -20.645   7.855  1.00  0.00     0.159 HD
HETATM   29  H   UNL     1      43.590 -19.284   8.955  1.00  0.00     0.159 HD
HETATM   30  O   UNL     1      44.617 -17.826   7.195  1.00  0.00    -0.266 OA
ENDBRANCH   8  26
TORSDOF 4
ENDMDL
