MODEL 1
REMARK VINA RESULT:      -8.1      0.000      0.000
REMARK  5 active torsions:
REMARK  status: ('A' for Active; 'I' for Inactive)
REMARK    1  A    between atoms: C_8  and  C_9 
REMARK       I    between atoms: N_10  and  C_11 
REMARK       I    between atoms: C_11  and  N_12 
REMARK    2  A    between atoms: N_12  and  C_13 
REMARK    3  A    between atoms: C_15  and  O_16 
REMARK    4  A    between atoms: O_16  and  C_17 
REMARK    5  A    between atoms: C_17  and  C_18 
ROOT
HETATM    1  C   UNL     1      41.231 -13.747   3.120  1.00  0.00     0.126 C 
HETATM    2  N   UNL     1      41.780 -15.102   3.091  1.00  0.00    -0.325 N 
HETATM    3  C   UNL     1      40.967 -16.113   2.694  1.00  0.00     0.323 C 
HETATM    4  N   UNL     1      41.228 -17.425   2.841  1.00  0.00    -0.309 N 
HETATM    5  O   UNL     1      39.825 -15.872   2.273  1.00  0.00    -0.247 OA
HETATM    6  C   UNL     1      43.207 -15.070   3.359  1.00  0.00     0.128 C 
HETATM    7  C   UNL     1      43.524 -13.652   3.818  1.00  0.00     0.022 C 
HETATM    8  C   UNL     1      42.449 -12.819   3.142  1.00  0.00     0.032 C 
HETATM    9  H   UNL     1      40.331 -17.895   2.772  1.00  0.00     0.170 HD
ENDROOT
BRANCH   4  10
HETATM   10  C   UNL     1      42.292 -18.293   3.114  1.00  0.00     0.039 A 
HETATM   11  C   UNL     1      42.960 -18.409   4.327  1.00  0.00     0.066 A 
HETATM   12  C   UNL     1      44.021 -19.313   4.489  1.00  0.00     0.071 A 
HETATM   13  C   UNL     1      44.468 -20.055   3.396  1.00  0.00     0.037 A 
HETATM   14  C   UNL     1      43.853 -19.899   2.157  1.00  0.00     0.005 A 
HETATM   15  C   UNL     1      42.778 -19.022   2.019  1.00  0.00     0.030 A 
BRANCH  12  16
HETATM   16  O   UNL     1      44.536 -19.372   5.757  1.00  0.00    -0.347 OA
BRANCH  16  17
HETATM   17  C   UNL     1      45.273 -18.234   6.208  1.00  0.00     0.208 C 
BRANCH  17  18
HETATM   18  C   UNL     1      44.376 -17.396   7.085  1.00  0.00    -0.069 C 
HETATM   19  C   UNL     1      44.402 -15.916   6.825  1.00  0.00     0.044 C 
HETATM   20  C   UNL     1      43.576 -17.936   8.021  1.00  0.00     0.016 C 
ENDBRANCH  17  18
ENDBRANCH  16  17
ENDBRANCH  12  16
ENDBRANCH   4  10
BRANCH   1  21
HETATM   21  C   UNL     1      40.309 -13.544   4.301  1.00  0.00     0.014 A 
HETATM   22  C   UNL     1      40.150 -14.254   5.486  1.00  0.00     0.034 A 
HETATM   23  C   UNL     1      40.774 -15.475   6.047  1.00  0.00     0.070 C 
HETATM   24  N   UNL     1      39.177 -13.598   6.190  1.00  0.00    -0.282 N 
HETATM   25  H   UNL     1      38.799 -13.836   7.101  1.00  0.00     0.189 HD
HETATM   26  N   UNL     1      38.681 -12.525   5.569  1.00  0.00    -0.179 NA
HETATM   27  C   UNL     1      39.334 -12.499   4.404  1.00  0.00     0.061 A 
HETATM   28  C   UNL     1      38.998 -11.459   3.397  1.00  0.00     0.073 C 
ENDBRANCH   1  21
TORSDOF 5
ENDMDL
MODEL 2
REMARK VINA RESULT:      -8.0      1.850      3.944
REMARK  5 active torsions:
REMARK  status: ('A' for Active; 'I' for Inactive)
REMARK    1  A    between atoms: C_8  and  C_9 
REMARK       I    between atoms: N_10  and  C_11 
REMARK       I    between atoms: C_11  and  N_12 
REMARK    2  A    between atoms: N_12  and  C_13 
REMARK    3  A    between atoms: C_15  and  O_16 
REMARK    4  A    between atoms: O_16  and  C_17 
REMARK    5  A    between atoms: C_17  and  C_18 
ROOT
HETATM    1  C   UNL     1      39.821 -14.620   3.298  1.00  0.00     0.126 C 
HETATM    2  N   UNL     1      40.673 -15.486   4.112  1.00  0.00    -0.325 N 
HETATM    3  C   UNL     1      40.891 -15.135   5.405  1.00  0.00     0.323 C 
HETATM    4  N   UNL     1      41.827 -15.672   6.210  1.00  0.00    -0.309 N 
HETATM    5  O   UNL     1      40.299 -14.164   5.901  1.00  0.00    -0.247 OA
HETATM    6  C   UNL     1      41.006 -16.693   3.379  1.00  0.00     0.128 C 
HETATM    7  C   UNL     1      40.542 -16.465   1.945  1.00  0.00     0.022 C 
HETATM    8  C   UNL     1      39.397 -15.479   2.104  1.00  0.00     0.032 C 
HETATM    9  H   UNL     1      41.967 -15.000   6.956  1.00  0.00     0.170 HD
ENDROOT
BRANCH   4  10
HETATM   10  C   UNL     1      42.673 -16.784   6.294  1.00  0.00     0.039 A 
HETATM   11  C   UNL     1      43.319 -17.399   5.229  1.00  0.00     0.066 A 
HETATM   12  C   UNL     1      44.146 -18.517   5.428  1.00  0.00     0.071 A 
HETATM   13  C   UNL     1      44.262 -19.070   6.703  1.00  0.00     0.037 A 
HETATM   14  C   UNL     1      43.566 -18.506   7.767  1.00  0.00     0.005 A 
HETATM   15  C   UNL     1      42.775 -17.375   7.561  1.00  0.00     0.030 A 
BRANCH  12  16
HETATM   16  O   UNL     1      44.774 -18.973   4.300  1.00  0.00    -0.347 OA
BRANCH  16  17
HETATM   17  C   UNL     1      44.567 -20.344   3.955  1.00  0.00     0.208 C 
BRANCH  17  18
HETATM   18  C   UNL     1      44.024 -20.409   2.549  1.00  0.00    -0.069 C 
HETATM   19  C   UNL     1      44.150 -21.738   1.858  1.00  0.00     0.044 C 
HETATM   20  C   UNL     1      43.433 -19.358   1.956  1.00  0.00     0.016 C 
ENDBRANCH  17  18
ENDBRANCH  16  17
ENDBRANCH  12  16
ENDBRANCH   4  10
BRANCH   1  21
HETATM   21  C   UNL     1      40.540 -13.353   2.892  1.00  0.00     0.014 A 
HETATM   22  C   UNL     1      41.892 -13.060   2.744  1.00  0.00     0.034 A 
HETATM   23  C   UNL     1      43.140 -13.832   2.944  1.00  0.00     0.070 C 
HETATM   24  N   UNL     1      41.951 -11.755   2.339  1.00  0.00    -0.282 N 
HETATM   25  H   UNL     1      42.778 -11.203   2.136  1.00  0.00     0.189 HD
HETATM   26  N   UNL     1      40.760 -11.165   2.214  1.00  0.00    -0.179 NA
HETATM   27  C   UNL     1      39.893 -12.113   2.580  1.00  0.00     0.061 A 
HETATM   28  C   UNL     1      38.441 -11.801   2.631  1.00  0.00     0.073 C 
ENDBRANCH   1  21
TORSDOF 5
ENDMDL
MODEL 3
REMARK VINA RESULT:      -7.9      2.953      5.149
REMARK  5 active torsions:
REMARK  status: ('A' for Active; 'I' for Inactive)
REMARK    1  A    between atoms: C_8  and  C_9 
REMARK       I    between atoms: N_10  and  C_11 
REMARK       I    between atoms: C_11  and  N_12 
REMARK    2  A    between atoms: N_12  and  C_13 
REMARK    3  A    between atoms: C_15  and  O_16 
REMARK    4  A    between atoms: O_16  and  C_17 
REMARK    5  A    between atoms: C_17  and  C_18 
ROOT
HETATM    1  C   UNL     1      40.138 -13.550   0.707  1.00  0.00     0.126 C 
HETATM    2  N   UNL     1      40.957 -13.922   1.860  1.00  0.00    -0.325 N 
HETATM    3  C   UNL     1      42.170 -13.329   2.001  1.00  0.00     0.323 C 
HETATM    4  N   UNL     1      43.137 -13.727   2.848  1.00  0.00    -0.309 N 
HETATM    5  O   UNL     1      42.521 -12.425   1.227  1.00  0.00    -0.247 OA
HETATM    6  C   UNL     1      40.203 -14.783   2.753  1.00  0.00     0.128 C 
HETATM    7  C   UNL     1      38.931 -15.166   2.005  1.00  0.00     0.022 C 
HETATM    8  C   UNL     1      38.717 -13.995   1.062  1.00  0.00     0.032 C 
HETATM    9  H   UNL     1      43.998 -13.327   2.493  1.00  0.00     0.170 HD
ENDROOT
BRANCH   4  10
HETATM   10  C   UNL     1      43.322 -14.538   3.975  1.00  0.00     0.039 A 
HETATM   11  C   UNL     1      43.210 -15.922   4.011  1.00  0.00     0.066 A 
HETATM   12  C   UNL     1      43.414 -16.637   5.202  1.00  0.00     0.071 A 
HETATM   13  C   UNL     1      43.657 -15.945   6.388  1.00  0.00     0.037 A 
HETATM   14  C   UNL     1      43.704 -14.555   6.380  1.00  0.00     0.005 A 
HETATM   15  C   UNL     1      43.533 -13.859   5.184  1.00  0.00     0.030 A 
BRANCH  12  16
HETATM   16  O   UNL     1      43.343 -17.999   5.073  1.00  0.00    -0.347 OA
BRANCH  16  17
HETATM   17  C   UNL     1      42.876 -18.505   3.822  1.00  0.00     0.208 C 
BRANCH  17  18
HETATM   18  C   UNL     1      43.798 -19.614   3.377  1.00  0.00    -0.069 C 
HETATM   19  C   UNL     1      43.570 -20.140   1.988  1.00  0.00     0.044 C 
HETATM   20  C   UNL     1      44.786 -20.086   4.158  1.00  0.00     0.016 C 
ENDBRANCH  17  18
ENDBRANCH  16  17
ENDBRANCH  12  16
ENDBRANCH   4  10
BRANCH   1  21
HETATM   21  C   UNL     1      40.655 -14.175  -0.570  1.00  0.00     0.014 A 
HETATM   22  C   UNL     1      41.222 -15.418  -0.830  1.00  0.00     0.034 A 
HETATM   23  C   UNL     1      41.566 -16.589   0.009  1.00  0.00     0.070 C 
HETATM   24  N   UNL     1      41.483 -15.438  -2.173  1.00  0.00    -0.282 N 
HETATM   25  H   UNL     1      41.899 -16.187  -2.716  1.00  0.00     0.189 HD
HETATM   26  N   UNL     1      41.144 -14.317  -2.814  1.00  0.00    -0.179 NA
HETATM   27  C   UNL     1      40.671 -13.526  -1.846  1.00  0.00     0.061 A 
HETATM   28  C   UNL     1      40.246 -12.140  -2.173  1.00  0.00     0.073 C 
ENDBRANCH   1  21
TORSDOF 5
ENDMDL
MODEL 4
REMARK VINA RESULT:      -7.5      3.216      4.251
REMARK  5 active torsions:
REMARK  status: ('A' for Active; 'I' for Inactive)
REMARK    1  A    between atoms: C_8  and  C_9 
REMARK       I    between atoms: N_10  and  C_11 
REMARK       I    between atoms: C_11  and  N_12 
REMARK    2  A    between atoms: N_12  and  C_13 
REMARK    3  A    between atoms: C_15  and  O_16 
REMARK    4  A    between atoms: O_16  and  C_17 
REMARK    5  A    between atoms: C_17  and  C_18 
ROOT
HETATM    1  C   UNL     1      41.439 -14.009  -0.338  1.00  0.00     0.126 C 
HETATM    2  N   UNL     1      41.747 -14.956   0.733  1.00  0.00    -0.325 N 
HETATM    3  C   UNL     1      41.704 -16.281   0.446  1.00  0.00     0.323 C 
HETATM    4  N   UNL     1      41.716 -17.275   1.354  1.00  0.00    -0.309 N 
HETATM    5  O   UNL     1      41.510 -16.667  -0.717  1.00  0.00    -0.247 OA
HETATM    6  C   UNL     1      42.211 -14.246   1.911  1.00  0.00     0.128 C 
HETATM    7  C   UNL     1      41.953 -12.767   1.649  1.00  0.00     0.022 C 
HETATM    8  C   UNL     1      42.008 -12.668   0.134  1.00  0.00     0.032 C 
HETATM    9  H   UNL     1      41.343 -18.089   0.878  1.00  0.00     0.170 HD
ENDROOT
BRANCH   4  10
HETATM   10  C   UNL     1      42.008 -17.503   2.704  1.00  0.00     0.039 A 
HETATM   11  C   UNL     1      43.119 -18.178   3.196  1.00  0.00     0.066 A 
HETATM   12  C   UNL     1      43.310 -18.353   4.576  1.00  0.00     0.071 A 
HETATM   13  C   UNL     1      42.335 -17.911   5.470  1.00  0.00     0.037 A 
HETATM   14  C   UNL     1      41.184 -17.294   4.987  1.00  0.00     0.005 A 
HETATM   15  C   UNL     1      41.023 -17.097   3.616  1.00  0.00     0.030 A 
BRANCH  12  16
HETATM   16  O   UNL     1      44.483 -18.972   4.918  1.00  0.00    -0.347 OA
BRANCH  16  17
HETATM   17  C   UNL     1      44.722 -20.261   4.351  1.00  0.00     0.208 C 
BRANCH  17  18
HETATM   18  C   UNL     1      44.594 -21.297   5.440  1.00  0.00    -0.069 C 
HETATM   19  C   UNL     1      45.229 -22.630   5.156  1.00  0.00     0.044 C 
HETATM   20  C   UNL     1      43.980 -21.042   6.609  1.00  0.00     0.016 C 
ENDBRANCH  17  18
ENDBRANCH  16  17
ENDBRANCH  12  16
ENDBRANCH   4  10
BRANCH   1  21
HETATM   21  C   UNL     1      39.956 -13.956  -0.628  1.00  0.00     0.014 A 
HETATM   22  C   UNL     1      38.845 -14.149   0.187  1.00  0.00     0.034 A 
HETATM   23  C   UNL     1      38.663 -14.501   1.614  1.00  0.00     0.070 C 
HETATM   24  N   UNL     1      37.753 -13.960  -0.616  1.00  0.00    -0.282 N 
HETATM   25  H   UNL     1      36.773 -14.023  -0.360  1.00  0.00     0.189 HD
HETATM   26  N   UNL     1      38.050 -13.666  -1.884  1.00  0.00    -0.179 NA
HETATM   27  C   UNL     1      39.385 -13.694  -1.915  1.00  0.00     0.061 A 
HETATM   28  C   UNL     1      40.095 -13.473  -3.202  1.00  0.00     0.073 C 
ENDBRANCH   1  21
TORSDOF 5
ENDMDL
MODEL 5
REMARK VINA RESULT:      -7.4      1.347      3.156
REMARK  5 active torsions:
REMARK  status: ('A' for Active; 'I' for Inactive)
REMARK    1  A    between atoms: C_8  and  C_9 
REMARK       I    between atoms: N_10  and  C_11 
REMARK       I    between atoms: C_11  and  N_12 
REMARK    2  A    between atoms: N_12  and  C_13 
REMARK    3  A    between atoms: C_15  and  O_16 
REMARK    4  A    between atoms: O_16  and  C_17 
REMARK    5  A    between atoms: C_17  and  C_18 
ROOT
HETATM    1  C   UNL     1      41.180 -13.794   2.456  1.00  0.00     0.126 C 
HETATM    2  N   UNL     1      41.625 -14.974   3.197  1.00  0.00    -0.325 N 
HETATM    3  C   UNL     1      40.771 -16.023   3.301  1.00  0.00     0.323 C 
HETATM    4  N   UNL     1      40.919 -17.067   4.138  1.00  0.00    -0.309 N 
HETATM    5  O   UNL     1      39.688 -16.015   2.696  1.00  0.00    -0.247 OA
HETATM    6  C   UNL     1      43.024 -14.838   3.561  1.00  0.00     0.128 C 
HETATM    7  C   UNL     1      43.410 -13.398   3.244  1.00  0.00     0.022 C 
HETATM    8  C   UNL     1      42.459 -13.022   2.121  1.00  0.00     0.032 C 
HETATM    9  H   UNL     1      39.998 -17.482   4.228  1.00  0.00     0.170 HD
ENDROOT
BRANCH   4  10
HETATM   10  C   UNL     1      41.889 -17.684   4.936  1.00  0.00     0.039 A 
HETATM   11  C   UNL     1      42.790 -18.657   4.520  1.00  0.00     0.066 A 
HETATM   12  C   UNL     1      43.722 -19.213   5.411  1.00  0.00     0.071 A 
HETATM   13  C   UNL     1      43.698 -18.842   6.755  1.00  0.00     0.037 A 
HETATM   14  C   UNL     1      42.756 -17.920   7.200  1.00  0.00     0.005 A 
HETATM   15  C   UNL     1      41.858 -17.350   6.298  1.00  0.00     0.030 A 
BRANCH  12  16
HETATM   16  O   UNL     1      44.593 -20.107   4.845  1.00  0.00    -0.347 OA
BRANCH  16  17
HETATM   17  C   UNL     1      44.662 -20.126   3.419  1.00  0.00     0.208 C 
BRANCH  17  18
HETATM   18  C   UNL     1      44.417 -21.538   2.945  1.00  0.00    -0.069 C 
HETATM   19  C   UNL     1      44.600 -22.617   3.975  1.00  0.00     0.044 C 
HETATM   20  C   UNL     1      44.027 -21.818   1.689  1.00  0.00     0.016 C 
ENDBRANCH  17  18
ENDBRANCH  16  17
ENDBRANCH  12  16
ENDBRANCH   4  10
BRANCH   1  21
HETATM   21  C   UNL     1      40.184 -12.979   3.250  1.00  0.00     0.014 A 
HETATM   22  C   UNL     1      40.055 -12.747   4.616  1.00  0.00     0.034 A 
HETATM   23  C   UNL     1      40.794 -13.210   5.813  1.00  0.00     0.070 C 
HETATM   24  N   UNL     1      38.978 -11.915   4.755  1.00  0.00    -0.282 N 
HETATM   25  H   UNL     1      38.589 -11.538   5.613  1.00  0.00     0.189 HD
HETATM   26  N   UNL     1      38.387 -11.586   3.604  1.00  0.00    -0.179 NA
HETATM   27  C   UNL     1      39.088 -12.253   2.682  1.00  0.00     0.061 A 
HETATM   28  C   UNL     1      38.678 -12.183   1.256  1.00  0.00     0.073 C 
ENDBRANCH   1  21
TORSDOF 5
ENDMDL
MODEL 6
REMARK VINA RESULT:      -7.3      2.206      3.881
REMARK  5 active torsions:
REMARK  status: ('A' for Active; 'I' for Inactive)
REMARK    1  A    between atoms: C_8  and  C_9 
REMARK       I    between atoms: N_10  and  C_11 
REMARK       I    between atoms: C_11  and  N_12 
REMARK    2  A    between atoms: N_12  and  C_13 
REMARK    3  A    between atoms: C_15  and  O_16 
REMARK    4  A    between atoms: O_16  and  C_17 
REMARK    5  A    between atoms: C_17  and  C_18 
ROOT
HETATM    1  C   UNL     1      39.602 -12.929   0.751  1.00  0.00     0.126 C 
HETATM    2  N   UNL     1      40.261 -14.004   1.491  1.00  0.00    -0.325 N 
HETATM    3  C   UNL     1      39.502 -15.045   1.918  1.00  0.00     0.323 C 
HETATM    4  N   UNL     1      39.891 -15.978   2.807  1.00  0.00    -0.309 N 
HETATM    5  O   UNL     1      38.307 -15.125   1.597  1.00  0.00    -0.247 OA
HETATM    6  C   UNL     1      41.699 -13.806   1.486  1.00  0.00     0.128 C 
HETATM    7  C   UNL     1      41.937 -12.410   0.923  1.00  0.00     0.022 C 
HETATM    8  C   UNL     1      40.729 -12.186   0.030  1.00  0.00     0.032 C 
HETATM    9  H   UNL     1      39.037 -16.392   3.164  1.00  0.00     0.170 HD
ENDROOT
BRANCH   4  10
HETATM   10  C   UNL     1      41.050 -16.482   3.410  1.00  0.00     0.039 A 
HETATM   11  C   UNL     1      41.981 -17.323   2.813  1.00  0.00     0.066 A 
HETATM   12  C   UNL     1      43.110 -17.772   3.517  1.00  0.00     0.071 A 
HETATM   13  C   UNL     1      43.266 -17.433   4.861  1.00  0.00     0.037 A 
HETATM   14  C   UNL     1      42.305 -16.648   5.491  1.00  0.00     0.005 A 
HETATM   15  C   UNL     1      41.206 -16.181   4.771  1.00  0.00     0.030 A 
BRANCH  12  16
HETATM   16  O   UNL     1      43.978 -18.535   2.781  1.00  0.00    -0.347 OA
BRANCH  16  17
HETATM   17  C   UNL     1      43.413 -19.608   2.027  1.00  0.00     0.208 C 
BRANCH  17  18
HETATM   18  C   UNL     1      44.126 -20.885   2.399  1.00  0.00    -0.069 C 
HETATM   19  C   UNL     1      44.734 -20.920   3.773  1.00  0.00     0.044 C 
HETATM   20  C   UNL     1      44.190 -21.942   1.571  1.00  0.00     0.016 C 
ENDBRANCH  17  18
ENDBRANCH  16  17
ENDBRANCH  12  16
ENDBRANCH   4  10
BRANCH   1  21
HETATM   21  C   UNL     1      38.791 -12.037   1.665  1.00  0.00     0.014 A 
HETATM   22  C   UNL     1      38.957 -11.683   3.000  1.00  0.00     0.034 A 
HETATM   23  C   UNL     1      39.942 -12.043   4.046  1.00  0.00     0.070 C 
HETATM   24  N   UNL     1      37.926 -10.833   3.294  1.00  0.00    -0.282 N 
HETATM   25  H   UNL     1      37.727 -10.378   4.178  1.00  0.00     0.189 HD
HETATM   26  N   UNL     1      37.097 -10.604   2.272  1.00  0.00    -0.179 NA
HETATM   27  C   UNL     1      37.590 -11.356   1.285  1.00  0.00     0.061 A 
HETATM   28  C   UNL     1      36.882 -11.411  -0.020  1.00  0.00     0.073 C 
ENDBRANCH   1  21
TORSDOF 5
ENDMDL
MODEL 7
REMARK VINA RESULT:      -7.3      3.095      3.752
REMARK  5 active torsions:
REMARK  status: ('A' for Active; 'I' for Inactive)
REMARK    1  A    between atoms: C_8  and  C_9 
REMARK       I    between atoms: N_10  and  C_11 
REMARK       I    between atoms: C_11  and  N_12 
REMARK    2  A    between atoms: N_12  and  C_13 
REMARK    3  A    between atoms: C_15  and  O_16 
REMARK    4  A    between atoms: O_16  and  C_17 
REMARK    5  A    between atoms: C_17  and  C_18 
ROOT
HETATM    1  C   UNL     1      41.279 -13.495  -0.185  1.00  0.00     0.126 C 
HETATM    2  N   UNL     1      41.711 -14.673   0.567  1.00  0.00    -0.325 N 
HETATM    3  C   UNL     1      41.612 -15.886  -0.033  1.00  0.00     0.323 C 
HETATM    4  N   UNL     1      41.731 -17.074   0.589  1.00  0.00    -0.309 N 
HETATM    5  O   UNL     1      41.261 -15.974  -1.220  1.00  0.00    -0.247 OA
HETATM    6  C   UNL     1      42.338 -14.268   1.812  1.00  0.00     0.128 C 
HETATM    7  C   UNL     1      42.068 -12.776   1.962  1.00  0.00     0.022 C 
HETATM    8  C   UNL     1      41.923 -12.303   0.526  1.00  0.00     0.032 C 
HETATM    9  H   UNL     1      41.287 -17.751  -0.020  1.00  0.00     0.170 HD
ENDROOT
BRANCH   4  10
HETATM   10  C   UNL     1      42.196 -17.624   1.790  1.00  0.00     0.039 A 
HETATM   11  C   UNL     1      41.596 -17.490   3.035  1.00  0.00     0.066 A 
HETATM   12  C   UNL     1      42.153 -18.084   4.179  1.00  0.00     0.071 A 
HETATM   13  C   UNL     1      43.371 -18.757   4.082  1.00  0.00     0.037 A 
HETATM   14  C   UNL     1      44.019 -18.840   2.853  1.00  0.00     0.005 A 
HETATM   15  C   UNL     1      43.437 -18.274   1.720  1.00  0.00     0.030 A 
BRANCH  12  16
HETATM   16  O   UNL     1      41.416 -17.930   5.323  1.00  0.00    -0.347 OA
BRANCH  16  17
HETATM   17  C   UNL     1      41.978 -17.110   6.348  1.00  0.00     0.208 C 
BRANCH  17  18
HETATM   18  C   UNL     1      41.780 -15.663   5.970  1.00  0.00    -0.069 C 
HETATM   19  C   UNL     1      43.033 -14.876   5.706  1.00  0.00     0.044 C 
HETATM   20  C   UNL     1      40.560 -15.112   5.842  1.00  0.00     0.016 C 
ENDBRANCH  17  18
ENDBRANCH  16  17
ENDBRANCH  12  16
ENDBRANCH   4  10
BRANCH   1  21
HETATM   21  C   UNL     1      39.770 -13.402  -0.255  1.00  0.00     0.014 A 
HETATM   22  C   UNL     1      38.772 -13.867   0.595  1.00  0.00     0.034 A 
HETATM   23  C   UNL     1      38.773 -14.645   1.856  1.00  0.00     0.070 C 
HETATM   24  N   UNL     1      37.588 -13.475   0.034  1.00  0.00    -0.282 N 
HETATM   25  H   UNL     1      36.649 -13.642   0.379  1.00  0.00     0.189 HD
HETATM   26  N   UNL     1      37.721 -12.798  -1.110  1.00  0.00    -0.179 NA
HETATM   27  C   UNL     1      39.041 -12.776  -1.317  1.00  0.00     0.061 A 
HETATM   28  C   UNL     1      39.579 -12.150  -2.552  1.00  0.00     0.073 C 
ENDBRANCH   1  21
TORSDOF 5
ENDMDL
MODEL 8
REMARK VINA RESULT:      -7.2      3.504      7.209
REMARK  5 active torsions:
REMARK  status: ('A' for Active; 'I' for Inactive)
REMARK    1  A    between atoms: C_8  and  C_9 
REMARK       I    between atoms: N_10  and  C_11 
REMARK       I    between atoms: C_11  and  N_12 
REMARK    2  A    between atoms: N_12  and  C_13 
REMARK    3  A    between atoms: C_15  and  O_16 
REMARK    4  A    between atoms: O_16  and  C_17 
REMARK    5  A    between atoms: C_17  and  C_18 
ROOT
HETATM    1  C   UNL     1      43.737 -17.218   3.870  1.00  0.00     0.126 C 
HETATM    2  N   UNL     1      42.811 -16.436   3.051  1.00  0.00    -0.325 N 
HETATM    3  C   UNL     1      42.806 -15.088   3.203  1.00  0.00     0.323 C 
HETATM    4  N   UNL     1      41.867 -14.253   2.719  1.00  0.00    -0.309 N 
HETATM    5  O   UNL     1      43.636 -14.535   3.941  1.00  0.00    -0.247 OA
HETATM    6  C   UNL     1      42.158 -17.292   2.078  1.00  0.00     0.128 C 
HETATM    7  C   UNL     1      42.510 -18.724   2.463  1.00  0.00     0.022 C 
HETATM    8  C   UNL     1      43.846 -18.575   3.171  1.00  0.00     0.032 C 
HETATM    9  H   UNL     1      41.948 -13.401   3.262  1.00  0.00     0.170 HD
ENDROOT
BRANCH   4  10
HETATM   10  C   UNL     1      40.820 -14.225   1.790  1.00  0.00     0.039 A 
HETATM   11  C   UNL     1      40.918 -13.830   0.462  1.00  0.00     0.066 A 
HETATM   12  C   UNL     1      39.797 -13.838  -0.384  1.00  0.00     0.071 A 
HETATM   13  C   UNL     1      38.546 -14.174   0.133  1.00  0.00     0.037 A 
HETATM   14  C   UNL     1      38.420 -14.506   1.478  1.00  0.00     0.005 A 
HETATM   15  C   UNL     1      39.548 -14.527   2.298  1.00  0.00     0.030 A 
BRANCH  12  16
HETATM   16  O   UNL     1      40.057 -13.492  -1.684  1.00  0.00    -0.347 OA
BRANCH  16  17
HETATM   17  C   UNL     1      39.207 -14.056  -2.684  1.00  0.00     0.208 C 
BRANCH  17  18
HETATM   18  C   UNL     1      39.887 -15.271  -3.264  1.00  0.00    -0.069 C 
HETATM   19  C   UNL     1      39.021 -16.172  -4.100  1.00  0.00     0.044 C 
HETATM   20  C   UNL     1      41.195 -15.523  -3.077  1.00  0.00     0.016 C 
ENDBRANCH  17  18
ENDBRANCH  16  17
ENDBRANCH  12  16
ENDBRANCH   4  10
BRANCH   1  21
HETATM   21  C   UNL     1      43.261 -17.323   5.302  1.00  0.00     0.014 A 
HETATM   22  C   UNL     1      42.018 -17.100   5.885  1.00  0.00     0.034 A 
HETATM   23  C   UNL     1      40.703 -16.654   5.369  1.00  0.00     0.070 C 
HETATM   24  N   UNL     1      42.175 -17.368   7.218  1.00  0.00    -0.282 N 
HETATM   25  H   UNL     1      41.477 -17.310   7.951  1.00  0.00     0.189 HD
HETATM   26  N   UNL     1      43.410 -17.742   7.560  1.00  0.00    -0.179 NA
HETATM   27  C   UNL     1      44.091 -17.686   6.412  1.00  0.00     0.061 A 
HETATM   28  C   UNL     1      45.548 -17.980   6.407  1.00  0.00     0.073 C 
ENDBRANCH   1  21
TORSDOF 5
ENDMDL
MODEL 9
REMARK VINA RESULT:      -7.2      2.121      3.076
REMARK  5 active torsions:
REMARK  status: ('A' for Active; 'I' for Inactive)
REMARK    1  A    between atoms: C_8  and  C_9 
REMARK       I    between atoms: N_10  and  C_11 
REMARK       I    between atoms: C_11  and  N_12 
REMARK    2  A    between atoms: N_12  and  C_13 
REMARK    3  A    between atoms: C_15  and  O_16 
REMARK    4  A    between atoms: O_16  and  C_17 
REMARK    5  A    between atoms: C_17  and  C_18 
ROOT
HETATM    1  C   UNL     1      40.846 -12.933   4.441  1.00  0.00     0.126 C 
HETATM    2  N   UNL     1      41.581 -14.134   4.045  1.00  0.00    -0.325 N 
HETATM    3  C   UNL     1      42.539 -14.012   3.093  1.00  0.00     0.323 C 
HETATM    4  N   UNL     1      43.129 -15.035   2.446  1.00  0.00    -0.309 N 
HETATM    5  O   UNL     1      42.847 -12.894   2.650  1.00  0.00    -0.247 OA
HETATM    6  C   UNL     1      41.224 -15.246   4.908  1.00  0.00     0.128 C 
HETATM    7  C   UNL     1      40.028 -14.783   5.731  1.00  0.00     0.022 C 
HETATM    8  C   UNL     1      40.210 -13.276   5.791  1.00  0.00     0.032 C 
HETATM    9  H   UNL     1      43.522 -14.637   1.600  1.00  0.00     0.170 HD
ENDROOT
BRANCH   4  10
HETATM   10  C   UNL     1      43.300 -16.421   2.543  1.00  0.00     0.039 A 
HETATM   11  C   UNL     1      43.423 -17.147   3.720  1.00  0.00     0.066 A 
HETATM   12  C   UNL     1      43.595 -18.541   3.700  1.00  0.00     0.071 A 
HETATM   13  C   UNL     1      43.723 -19.202   2.479  1.00  0.00     0.037 A 
HETATM   14  C   UNL     1      43.671 -18.478   1.292  1.00  0.00     0.005 A 
HETATM   15  C   UNL     1      43.466 -17.099   1.327  1.00  0.00     0.030 A 
BRANCH  12  16
HETATM   16  O   UNL     1      43.628 -19.132   4.935  1.00  0.00    -0.347 OA
BRANCH  16  17
HETATM   17  C   UNL     1      44.819 -19.842   5.279  1.00  0.00     0.208 C 
BRANCH  17  18
HETATM   18  C   UNL     1      44.431 -21.193   5.829  1.00  0.00    -0.069 C 
HETATM   19  C   UNL     1      44.947 -22.383   5.070  1.00  0.00     0.044 C 
HETATM   20  C   UNL     1      43.697 -21.332   6.947  1.00  0.00     0.016 C 
ENDBRANCH  17  18
ENDBRANCH  16  17
ENDBRANCH  12  16
ENDBRANCH   4  10
BRANCH   1  21
HETATM   21  C   UNL     1      39.833 -12.528   3.393  1.00  0.00     0.014 A 
HETATM   22  C   UNL     1      39.126 -13.269   2.452  1.00  0.00     0.034 A 
HETATM   23  C   UNL     1      39.096 -14.703   2.081  1.00  0.00     0.070 C 
HETATM   24  N   UNL     1      38.338 -12.373   1.783  1.00  0.00    -0.282 N 
HETATM   25  H   UNL     1      37.690 -12.557   1.025  1.00  0.00     0.189 HD
HETATM   26  N   UNL     1      38.470 -11.111   2.198  1.00  0.00    -0.179 NA
HETATM   27  C   UNL     1      39.401 -11.184   3.153  1.00  0.00     0.061 A 
HETATM   28  C   UNL     1      39.868  -9.941   3.820  1.00  0.00     0.073 C 
ENDBRANCH   1  21
TORSDOF 5
ENDMDL
MODEL 10
REMARK VINA RESULT:      -6.9      2.415      3.059
REMARK  5 active torsions:
REMARK  status: ('A' for Active; 'I' for Inactive)
REMARK    1  A    between atoms: C_8  and  C_9 
REMARK       I    between atoms: N_10  and  C_11 
REMARK       I    between atoms: C_11  and  N_12 
REMARK    2  A    between atoms: N_12  and  C_13 
REMARK    3  A    between atoms: C_15  and  O_16 
REMARK    4  A    between atoms: O_16  and  C_17 
REMARK    5  A    between atoms: C_17  and  C_18 
ROOT
HETATM    1  C   UNL     1      39.541 -13.719   0.118  1.00  0.00     0.126 C 
HETATM    2  N   UNL     1      40.281 -14.802   0.765  1.00  0.00    -0.325 N 
HETATM    3  C   UNL     1      39.617 -15.593   1.644  1.00  0.00     0.323 C 
HETATM    4  N   UNL     1      40.191 -16.462   2.497  1.00  0.00    -0.309 N 
HETATM    5  O   UNL     1      38.395 -15.460   1.811  1.00  0.00    -0.247 OA
HETATM    6  C   UNL     1      41.609 -14.915   0.189  1.00  0.00     0.128 C 
HETATM    7  C   UNL     1      41.798 -13.687  -0.694  1.00  0.00     0.022 C 
HETATM    8  C   UNL     1      40.379 -13.332  -1.103  1.00  0.00     0.032 C 
HETATM    9  H   UNL     1      39.502 -16.635   3.221  1.00  0.00     0.170 HD
ENDROOT
BRANCH   4  10
HETATM   10  C   UNL     1      41.410 -17.115   2.719  1.00  0.00     0.039 A 
HETATM   11  C   UNL     1      42.231 -16.955   3.829  1.00  0.00     0.066 A 
HETATM   12  C   UNL     1      43.439 -17.661   3.946  1.00  0.00     0.071 A 
HETATM   13  C   UNL     1      43.864 -18.479   2.900  1.00  0.00     0.037 A 
HETATM   14  C   UNL     1      43.086 -18.595   1.753  1.00  0.00     0.005 A 
HETATM   15  C   UNL     1      41.872 -17.914   1.664  1.00  0.00     0.030 A 
BRANCH  12  16
HETATM   16  O   UNL     1      44.108 -17.460   5.124  1.00  0.00    -0.347 OA
BRANCH  16  17
HETATM   17  C   UNL     1      44.862 -18.560   5.635  1.00  0.00     0.208 C 
BRANCH  17  18
HETATM   18  C   UNL     1      44.069 -19.214   6.740  1.00  0.00    -0.069 C 
HETATM   19  C   UNL     1      43.568 -18.297   7.820  1.00  0.00     0.044 C 
HETATM   20  C   UNL     1      43.796 -20.530   6.748  1.00  0.00     0.016 C 
ENDBRANCH  17  18
ENDBRANCH  16  17
ENDBRANCH  12  16
ENDBRANCH   4  10
BRANCH   1  21
HETATM   21  C   UNL     1      39.302 -12.564   1.064  1.00  0.00     0.014 A 
HETATM   22  C   UNL     1      40.138 -11.917   1.969  1.00  0.00     0.034 A 
HETATM   23  C   UNL     1      41.547 -12.106   2.384  1.00  0.00     0.070 C 
HETATM   24  N   UNL     1      39.382 -10.930   2.540  1.00  0.00    -0.282 N 
HETATM   25  H   UNL     1      39.664 -10.260   3.247  1.00  0.00     0.189 HD
HETATM   26  N   UNL     1      38.125 -10.876   2.094  1.00  0.00    -0.179 NA
HETATM   27  C   UNL     1      38.050 -11.885   1.222  1.00  0.00     0.061 A 
HETATM   28  C   UNL     1      36.757 -12.185   0.554  1.00  0.00     0.073 C 
ENDBRANCH   1  21
TORSDOF 5
ENDMDL
