MODEL 1
REMARK VINA RESULT:      -9.0      0.000      0.000
REMARK  8 active torsions:
REMARK  status: ('A' for Active; 'I' for Inactive)
REMARK    1  A    between atoms: O_2  and  C_3 
REMARK    2  A    between atoms: C_5  and  O_6 
REMARK    3  A    between atoms: C_8  and  N_9 
REMARK       I    between atoms: N_9  and  C_10 
REMARK    4  A    between atoms: C_10  and  C_11 
REMARK    5  A    between atoms: C_11  and  N_12 
REMARK    6  A    between atoms: N_12  and  C_13 
REMARK    7  A    between atoms: C_14  and  N_15 
REMARK    8  A    between atoms: C_23  and  C_24 
ROOT
HETATM    1  N   UNL     1      43.141 -17.127   2.882  1.00  0.00    -0.282 NA
HETATM    2  H   UNL     1      42.147 -17.151   3.143  1.00  0.00     0.128 HD
ENDROOT
BRANCH   1   3
HETATM    3  C   UNL     1      43.306 -16.762   1.471  1.00  0.00     0.195 C 
BRANCH   3   4
HETATM    4  C   UNL     1      41.947 -16.580   0.787  1.00  0.00     0.235 C 
HETATM    5  N   UNL     1      41.906 -15.478  -0.048  1.00  0.00    -0.324 N 
HETATM    6  H   UNL     1      42.659 -14.799   0.035  1.00  0.00     0.169 HD
HETATM    7  O   UNL     1      41.029 -17.374   0.985  1.00  0.00    -0.272 OA
BRANCH   5   8
HETATM    8  C   UNL     1      40.927 -15.155  -1.013  1.00  0.00     0.068 A 
HETATM    9  C   UNL     1      39.869 -14.313  -0.613  1.00  0.00     0.097 A 
HETATM   10  C   UNL     1      38.912 -13.908  -1.551  1.00  0.00     0.075 A 
HETATM   11  C   UNL     1      38.996 -14.324  -2.883  1.00  0.00     0.070 A 
HETATM   12  C   UNL     1      40.028 -15.175  -3.271  1.00  0.00     0.039 A 
HETATM   13  C   UNL     1      40.989 -15.585  -2.340  1.00  0.00     0.035 A 
BRANCH   9  14
HETATM   14  O   UNL     1      39.879 -13.932   0.710  1.00  0.00    -0.354 OA
HETATM   15  C   UNL     1      38.797 -14.384   1.517  1.00  0.00     0.210 C 
ENDBRANCH   9  14
BRANCH  11  16
HETATM   16  O   UNL     1      38.013 -13.836  -3.701  1.00  0.00    -0.356 OA
HETATM   17  C   UNL     1      37.004 -14.754  -4.105  1.00  0.00     0.210 C 
ENDBRANCH  11  16
ENDBRANCH   5   8
ENDBRANCH   3   4
ENDBRANCH   1   3
BRANCH   1  18
HETATM   18  C   UNL     1      43.654 -18.400   3.264  1.00  0.00     0.036 A 
HETATM   19  C   UNL     1      44.188 -18.564   4.578  1.00  0.00     0.051 A 
HETATM   20  C   UNL     1      44.634 -19.842   4.948  1.00  0.00     0.032 A 
HETATM   21  C   UNL     1      44.619 -20.915   4.051  1.00  0.00     0.018 A 
HETATM   22  C   UNL     1      44.167 -20.737   2.742  1.00  0.00     0.049 A 
HETATM   23  C   UNL     1      43.702 -19.471   2.356  1.00  0.00     0.042 A 
BRANCH  19  24
HETATM   24  N   UNL     1      44.208 -17.478   5.470  1.00  0.00    -0.379 N 
HETATM   25  C   UNL     1      42.975 -16.728   5.752  1.00  0.00     0.123 C 
HETATM   26  C   UNL     1      42.281 -17.200   7.032  1.00  0.00     0.020 C 
HETATM   27  C   UNL     1      43.249 -17.252   8.208  1.00  0.00     0.003 C 
HETATM   28  C   UNL     1      44.468 -18.099   7.856  1.00  0.00     0.020 C 
HETATM   29  C   UNL     1      45.156 -17.581   6.595  1.00  0.00     0.123 C 
ENDBRANCH  19  24
BRANCH  22  30
HETATM   30  C   UNL     1      44.133 -21.881   1.763  1.00  0.00     0.417 C 
HETATM   31  F   UNL     1      42.874 -22.283   1.436  1.00  0.00    -0.166 F 
HETATM   32  F   UNL     1      44.744 -21.572   0.584  1.00  0.00    -0.166 F 
HETATM   33  F   UNL     1      44.769 -22.993   2.228  1.00  0.00    -0.166 F 
ENDBRANCH  22  30
ENDBRANCH   1  18
TORSDOF 8
ENDMDL
MODEL 2
REMARK VINA RESULT:      -8.8      2.949      3.681
REMARK  8 active torsions:
REMARK  status: ('A' for Active; 'I' for Inactive)
REMARK    1  A    between atoms: O_2  and  C_3 
REMARK    2  A    between atoms: C_5  and  O_6 
REMARK    3  A    between atoms: C_8  and  N_9 
REMARK       I    between atoms: N_9  and  C_10 
REMARK    4  A    between atoms: C_10  and  C_11 
REMARK    5  A    between atoms: C_11  and  N_12 
REMARK    6  A    between atoms: N_12  and  C_13 
REMARK    7  A    between atoms: C_14  and  N_15 
REMARK    8  A    between atoms: C_23  and  C_24 
ROOT
HETATM    1  N   UNL     1      42.780 -16.521   0.488  1.00  0.00    -0.282 NA
HETATM    2  H   UNL     1      43.210 -15.595   0.617  1.00  0.00     0.128 HD
ENDROOT
BRANCH   1   3
HETATM    3  C   UNL     1      41.361 -16.397   0.142  1.00  0.00     0.195 C 
BRANCH   3   4
HETATM    4  C   UNL     1      41.040 -14.989  -0.373  1.00  0.00     0.235 C 
HETATM    5  N   UNL     1      42.142 -14.346  -0.907  1.00  0.00    -0.324 N 
HETATM    6  H   UNL     1      43.057 -14.747  -0.716  1.00  0.00     0.169 HD
HETATM    7  O   UNL     1      39.898 -14.538  -0.307  1.00  0.00    -0.272 OA
BRANCH   5   8
HETATM    8  C   UNL     1      42.168 -13.169  -1.688  1.00  0.00     0.068 A 
HETATM    9  C   UNL     1      42.443 -11.954  -1.028  1.00  0.00     0.097 A 
HETATM   10  C   UNL     1      42.547 -10.771  -1.769  1.00  0.00     0.075 A 
HETATM   11  C   UNL     1      42.387 -10.780  -3.158  1.00  0.00     0.070 A 
HETATM   12  C   UNL     1      42.091 -11.977  -3.804  1.00  0.00     0.039 A 
HETATM   13  C   UNL     1      41.985 -13.165  -3.072  1.00  0.00     0.035 A 
BRANCH   9  14
HETATM   14  O   UNL     1      42.612 -12.042   0.336  1.00  0.00    -0.354 OA
HETATM   15  C   UNL     1      41.561 -11.528   1.147  1.00  0.00     0.210 C 
ENDBRANCH   9  14
BRANCH  11  16
HETATM   16  O   UNL     1      42.540  -9.562  -3.762  1.00  0.00    -0.356 OA
HETATM   17  C   UNL     1      42.566  -9.554  -5.184  1.00  0.00     0.210 C 
ENDBRANCH  11  16
ENDBRANCH   5   8
ENDBRANCH   3   4
ENDBRANCH   1   3
BRANCH   1  18
HETATM   18  C   UNL     1      43.072 -17.233   1.687  1.00  0.00     0.036 A 
HETATM   19  C   UNL     1      42.923 -16.566   2.941  1.00  0.00     0.051 A 
HETATM   20  C   UNL     1      43.162 -17.308   4.108  1.00  0.00     0.032 A 
HETATM   21  C   UNL     1      43.592 -18.637   4.061  1.00  0.00     0.018 A 
HETATM   22  C   UNL     1      43.812 -19.267   2.834  1.00  0.00     0.049 A 
HETATM   23  C   UNL     1      43.563 -18.550   1.655  1.00  0.00     0.042 A 
BRANCH  19  24
HETATM   24  N   UNL     1      42.498 -15.227   2.979  1.00  0.00    -0.379 N 
HETATM   25  C   UNL     1      41.179 -14.883   3.527  1.00  0.00     0.123 C 
HETATM   26  C   UNL     1      41.248 -14.443   4.992  1.00  0.00     0.020 C 
HETATM   27  C   UNL     1      42.300 -13.361   5.203  1.00  0.00     0.003 C 
HETATM   28  C   UNL     1      43.651 -13.821   4.665  1.00  0.00     0.020 C 
HETATM   29  C   UNL     1      43.554 -14.220   3.194  1.00  0.00     0.123 C 
ENDBRANCH  19  24
BRANCH  22  30
HETATM   30  C   UNL     1      44.266 -20.701   2.760  1.00  0.00     0.417 C 
HETATM   31  F   UNL     1      45.491 -20.858   2.183  1.00  0.00    -0.166 F 
HETATM   32  F   UNL     1      44.358 -21.278   3.992  1.00  0.00    -0.166 F 
HETATM   33  F   UNL     1      43.415 -21.488   2.044  1.00  0.00    -0.166 F 
ENDBRANCH  22  30
ENDBRANCH   1  18
TORSDOF 8
ENDMDL
MODEL 3
REMARK VINA RESULT:      -8.7      2.211      3.107
REMARK  8 active torsions:
REMARK  status: ('A' for Active; 'I' for Inactive)
REMARK    1  A    between atoms: O_2  and  C_3 
REMARK    2  A    between atoms: C_5  and  O_6 
REMARK    3  A    between atoms: C_8  and  N_9 
REMARK       I    between atoms: N_9  and  C_10 
REMARK    4  A    between atoms: C_10  and  C_11 
REMARK    5  A    between atoms: C_11  and  N_12 
REMARK    6  A    between atoms: N_12  and  C_13 
REMARK    7  A    between atoms: C_14  and  N_15 
REMARK    8  A    between atoms: C_23  and  C_24 
ROOT
HETATM    1  N   UNL     1      41.608 -17.641   2.669  1.00  0.00    -0.282 NA
HETATM    2  H   UNL     1      40.720 -17.999   3.045  1.00  0.00     0.128 HD
ENDROOT
BRANCH   1   3
HETATM    3  C   UNL     1      41.545 -17.504   1.211  1.00  0.00     0.195 C 
BRANCH   3   4
HETATM    4  C   UNL     1      40.935 -16.155   0.810  1.00  0.00     0.235 C 
HETATM    5  N   UNL     1      39.795 -15.844   1.528  1.00  0.00    -0.324 N 
HETATM    6  H   UNL     1      39.360 -16.590   2.064  1.00  0.00     0.169 HD
HETATM    7  O   UNL     1      41.459 -15.458  -0.057  1.00  0.00    -0.272 OA
BRANCH   5   8
HETATM    8  C   UNL     1      39.130 -14.600   1.606  1.00  0.00     0.068 A 
HETATM    9  C   UNL     1      39.533 -13.707   2.621  1.00  0.00     0.097 A 
HETATM   10  C   UNL     1      38.953 -12.435   2.695  1.00  0.00     0.075 A 
HETATM   11  C   UNL     1      37.980 -12.037   1.773  1.00  0.00     0.070 A 
HETATM   12  C   UNL     1      37.567 -12.929   0.787  1.00  0.00     0.039 A 
HETATM   13  C   UNL     1      38.141 -14.202   0.704  1.00  0.00     0.035 A 
BRANCH   9  14
HETATM   14  O   UNL     1      40.514 -14.171   3.468  1.00  0.00    -0.354 OA
HETATM   15  C   UNL     1      40.138 -14.396   4.822  1.00  0.00     0.210 C 
ENDBRANCH   9  14
BRANCH  11  16
HETATM   16  O   UNL     1      37.515 -10.762   1.943  1.00  0.00    -0.356 OA
HETATM   17  C   UNL     1      37.770 -10.152   3.203  1.00  0.00     0.210 C 
ENDBRANCH  11  16
ENDBRANCH   5   8
ENDBRANCH   3   4
ENDBRANCH   1   3
BRANCH   1  18
HETATM   18  C   UNL     1      42.605 -18.524   3.173  1.00  0.00     0.036 A 
HETATM   19  C   UNL     1      43.177 -18.263   4.455  1.00  0.00     0.051 A 
HETATM   20  C   UNL     1      44.115 -19.181   4.951  1.00  0.00     0.032 A 
HETATM   21  C   UNL     1      44.532 -20.285   4.203  1.00  0.00     0.018 A 
HETATM   22  C   UNL     1      44.031 -20.500   2.917  1.00  0.00     0.049 A 
HETATM   23  C   UNL     1      43.079 -19.604   2.407  1.00  0.00     0.042 A 
BRANCH  19  24
HETATM   24  N   UNL     1      42.758 -17.145   5.197  1.00  0.00    -0.379 N 
HETATM   25  C   UNL     1      41.943 -17.322   6.408  1.00  0.00     0.123 C 
HETATM   26  C   UNL     1      42.783 -17.307   7.687  1.00  0.00     0.020 C 
HETATM   27  C   UNL     1      43.702 -16.092   7.740  1.00  0.00     0.003 C 
HETATM   28  C   UNL     1      44.556 -16.018   6.478  1.00  0.00     0.020 C 
HETATM   29  C   UNL     1      43.687 -16.000   5.222  1.00  0.00     0.123 C 
ENDBRANCH  19  24
BRANCH  22  30
HETATM   30  C   UNL     1      44.460 -21.688   2.098  1.00  0.00     0.417 C 
HETATM   31  F   UNL     1      43.523 -22.098   1.197  1.00  0.00    -0.166 F 
HETATM   32  F   UNL     1      45.587 -21.438   1.374  1.00  0.00    -0.166 F 
HETATM   33  F   UNL     1      44.744 -22.780   2.860  1.00  0.00    -0.166 F 
ENDBRANCH  22  30
ENDBRANCH   1  18
TORSDOF 8
ENDMDL
MODEL 4
REMARK VINA RESULT:      -8.6      5.786      9.488
REMARK  8 active torsions:
REMARK  status: ('A' for Active; 'I' for Inactive)
REMARK    1  A    between atoms: O_2  and  C_3 
REMARK    2  A    between atoms: C_5  and  O_6 
REMARK    3  A    between atoms: C_8  and  N_9 
REMARK       I    between atoms: N_9  and  C_10 
REMARK    4  A    between atoms: C_10  and  C_11 
REMARK    5  A    between atoms: C_11  and  N_12 
REMARK    6  A    between atoms: N_12  and  C_13 
REMARK    7  A    between atoms: C_14  and  N_15 
REMARK    8  A    between atoms: C_23  and  C_24 
ROOT
HETATM    1  N   UNL     1      43.821 -14.771   7.224  1.00  0.00    -0.282 NA
HETATM    2  H   UNL     1      43.025 -14.122   7.275  1.00  0.00     0.128 HD
ENDROOT
BRANCH   1   3
HETATM    3  C   UNL     1      45.085 -14.041   7.081  1.00  0.00     0.195 C 
BRANCH   3   4
HETATM    4  C   UNL     1      45.179 -12.897   8.098  1.00  0.00     0.235 C 
HETATM    5  N   UNL     1      43.970 -12.617   8.708  1.00  0.00    -0.324 N 
HETATM    6  H   UNL     1      43.132 -13.014   8.292  1.00  0.00     0.169 HD
HETATM    7  O   UNL     1      46.250 -12.335   8.317  1.00  0.00    -0.272 OA
BRANCH   5   8
HETATM    8  C   UNL     1      43.738 -11.821   9.852  1.00  0.00     0.068 A 
HETATM    9  C   UNL     1      43.098 -10.579   9.663  1.00  0.00     0.097 A 
HETATM   10  C   UNL     1      42.784  -9.786  10.774  1.00  0.00     0.075 A 
HETATM   11  C   UNL     1      43.093 -10.212  12.068  1.00  0.00     0.070 A 
HETATM   12  C   UNL     1      43.748 -11.428  12.250  1.00  0.00     0.039 A 
HETATM   13  C   UNL     1      44.066 -12.228  11.147  1.00  0.00     0.035 A 
BRANCH   9  14
HETATM   14  O   UNL     1      42.808 -10.251   8.358  1.00  0.00    -0.354 OA
HETATM   15  C   UNL     1      41.583  -9.562   8.127  1.00  0.00     0.210 C 
ENDBRANCH   9  14
BRANCH  11  16
HETATM   16  O   UNL     1      42.709  -9.355  13.063  1.00  0.00    -0.356 OA
HETATM   17  C   UNL     1      42.510  -9.922  14.353  1.00  0.00     0.210 C 
ENDBRANCH  11  16
ENDBRANCH   5   8
ENDBRANCH   3   4
ENDBRANCH   1   3
BRANCH   1  18
HETATM   18  C   UNL     1      43.496 -15.672   6.171  1.00  0.00     0.036 A 
HETATM   19  C   UNL     1      42.583 -15.250   5.157  1.00  0.00     0.051 A 
HETATM   20  C   UNL     1      42.324 -16.137   4.101  1.00  0.00     0.032 A 
HETATM   21  C   UNL     1      42.885 -17.417   4.059  1.00  0.00     0.018 A 
HETATM   22  C   UNL     1      43.718 -17.858   5.089  1.00  0.00     0.049 A 
HETATM   23  C   UNL     1      44.004 -16.983   6.147  1.00  0.00     0.042 A 
BRANCH  19  24
HETATM   24  N   UNL     1      42.017 -13.965   5.212  1.00  0.00    -0.379 N 
HETATM   25  C   UNL     1      42.544 -12.886   4.365  1.00  0.00     0.123 C 
HETATM   26  C   UNL     1      41.741 -12.707   3.074  1.00  0.00     0.020 C 
HETATM   27  C   UNL     1      40.248 -12.590   3.355  1.00  0.00     0.003 C 
HETATM   28  C   UNL     1      39.769 -13.778   4.183  1.00  0.00     0.020 C 
HETATM   29  C   UNL     1      40.567 -13.908   5.478  1.00  0.00     0.123 C 
ENDBRANCH  19  24
BRANCH  22  30
HETATM   30  C   UNL     1      44.341 -19.230   5.059  1.00  0.00     0.417 C 
HETATM   31  F   UNL     1      44.271 -19.835   3.841  1.00  0.00    -0.166 F 
HETATM   32  F   UNL     1      45.664 -19.204   5.387  1.00  0.00    -0.166 F 
HETATM   33  F   UNL     1      43.758 -20.093   5.936  1.00  0.00    -0.166 F 
ENDBRANCH  22  30
ENDBRANCH   1  18
TORSDOF 8
ENDMDL
MODEL 5
REMARK VINA RESULT:      -8.5      2.665      4.485
REMARK  8 active torsions:
REMARK  status: ('A' for Active; 'I' for Inactive)
REMARK    1  A    between atoms: O_2  and  C_3 
REMARK    2  A    between atoms: C_5  and  O_6 
REMARK    3  A    between atoms: C_8  and  N_9 
REMARK       I    between atoms: N_9  and  C_10 
REMARK    4  A    between atoms: C_10  and  C_11 
REMARK    5  A    between atoms: C_11  and  N_12 
REMARK    6  A    between atoms: N_12  and  C_13 
REMARK    7  A    between atoms: C_14  and  N_15 
REMARK    8  A    between atoms: C_23  and  C_24 
ROOT
HETATM    1  N   UNL     1      41.671 -17.602   2.544  1.00  0.00    -0.282 NA
HETATM    2  H   UNL     1      40.975 -18.197   2.075  1.00  0.00     0.128 HD
ENDROOT
BRANCH   1   3
HETATM    3  C   UNL     1      42.192 -16.581   1.630  1.00  0.00     0.195 C 
BRANCH   3   4
HETATM    4  C   UNL     1      41.937 -15.171   2.176  1.00  0.00     0.235 C 
HETATM    5  N   UNL     1      40.796 -15.092   2.953  1.00  0.00    -0.324 N 
HETATM    6  H   UNL     1      40.144 -15.871   2.909  1.00  0.00     0.169 HD
HETATM    7  O   UNL     1      42.712 -14.249   1.929  1.00  0.00    -0.272 OA
BRANCH   5   8
HETATM    8  C   UNL     1      40.397 -14.039   3.807  1.00  0.00     0.068 A 
HETATM    9  C   UNL     1      39.676 -12.972   3.235  1.00  0.00     0.097 A 
HETATM   10  C   UNL     1      39.199 -11.940   4.053  1.00  0.00     0.075 A 
HETATM   11  C   UNL     1      39.426 -11.958   5.433  1.00  0.00     0.070 A 
HETATM   12  C   UNL     1      40.160 -13.001   5.992  1.00  0.00     0.039 A 
HETATM   13  C   UNL     1      40.641 -14.036   5.183  1.00  0.00     0.035 A 
BRANCH   9  14
HETATM   14  O   UNL     1      39.476 -13.049   1.875  1.00  0.00    -0.354 OA
HETATM   15  C   UNL     1      38.143 -12.869   1.411  1.00  0.00     0.210 C 
ENDBRANCH   9  14
BRANCH  11  16
HETATM   16  O   UNL     1      38.885 -10.904   6.118  1.00  0.00    -0.356 OA
HETATM   17  C   UNL     1      39.515 -10.548   7.342  1.00  0.00     0.210 C 
ENDBRANCH  11  16
ENDBRANCH   5   8
ENDBRANCH   3   4
ENDBRANCH   1   3
BRANCH   1  18
HETATM   18  C   UNL     1      42.630 -18.509   3.081  1.00  0.00     0.036 A 
HETATM   19  C   UNL     1      43.168 -18.257   4.380  1.00  0.00     0.051 A 
HETATM   20  C   UNL     1      44.067 -19.196   4.908  1.00  0.00     0.032 A 
HETATM   21  C   UNL     1      44.479 -20.314   4.176  1.00  0.00     0.018 A 
HETATM   22  C   UNL     1      44.012 -20.521   2.877  1.00  0.00     0.049 A 
HETATM   23  C   UNL     1      43.100 -19.603   2.335  1.00  0.00     0.042 A 
BRANCH  19  24
HETATM   24  N   UNL     1      42.755 -17.126   5.105  1.00  0.00    -0.379 N 
HETATM   25  C   UNL     1      41.870 -17.274   6.269  1.00  0.00     0.123 C 
HETATM   26  C   UNL     1      42.639 -17.298   7.592  1.00  0.00     0.020 C 
HETATM   27  C   UNL     1      43.603 -16.122   7.701  1.00  0.00     0.003 C 
HETATM   28  C   UNL     1      44.526 -16.077   6.488  1.00  0.00     0.020 C 
HETATM   29  C   UNL     1      43.727 -16.020   5.187  1.00  0.00     0.123 C 
ENDBRANCH  19  24
BRANCH  22  30
HETATM   30  C   UNL     1      44.435 -21.723   2.075  1.00  0.00     0.417 C 
HETATM   31  F   UNL     1      43.475 -22.176   1.221  1.00  0.00    -0.166 F 
HETATM   32  F   UNL     1      45.530 -21.471   1.303  1.00  0.00    -0.166 F 
HETATM   33  F   UNL     1      44.770 -22.788   2.856  1.00  0.00    -0.166 F 
ENDBRANCH  22  30
ENDBRANCH   1  18
TORSDOF 8
ENDMDL
MODEL 6
REMARK VINA RESULT:      -8.4      1.641      2.563
REMARK  8 active torsions:
REMARK  status: ('A' for Active; 'I' for Inactive)
REMARK    1  A    between atoms: O_2  and  C_3 
REMARK    2  A    between atoms: C_5  and  O_6 
REMARK    3  A    between atoms: C_8  and  N_9 
REMARK       I    between atoms: N_9  and  C_10 
REMARK    4  A    between atoms: C_10  and  C_11 
REMARK    5  A    between atoms: C_11  and  N_12 
REMARK    6  A    between atoms: N_12  and  C_13 
REMARK    7  A    between atoms: C_14  and  N_15 
REMARK    8  A    between atoms: C_23  and  C_24 
ROOT
HETATM    1  N   UNL     1      41.852 -17.661   2.324  1.00  0.00    -0.282 NA
HETATM    2  H   UNL     1      41.046 -18.228   2.031  1.00  0.00     0.128 HD
ENDROOT
BRANCH   1   3
HETATM    3  C   UNL     1      42.393 -16.893   1.199  1.00  0.00     0.195 C 
BRANCH   3   4
HETATM    4  C   UNL     1      41.714 -15.523   1.089  1.00  0.00     0.235 C 
HETATM    5  N   UNL     1      40.589 -15.541   0.286  1.00  0.00    -0.324 N 
HETATM    6  H   UNL     1      40.449 -16.355  -0.307  1.00  0.00     0.169 HD
HETATM    7  O   UNL     1      42.160 -14.547   1.691  1.00  0.00    -0.272 OA
BRANCH   5   8
HETATM    8  C   UNL     1      39.592 -14.547   0.164  1.00  0.00     0.068 A 
HETATM    9  C   UNL     1      39.568 -13.789  -1.024  1.00  0.00     0.097 A 
HETATM   10  C   UNL     1      38.556 -12.841  -1.221  1.00  0.00     0.075 A 
HETATM   11  C   UNL     1      37.566 -12.640  -0.254  1.00  0.00     0.070 A 
HETATM   12  C   UNL     1      37.607 -13.373   0.929  1.00  0.00     0.039 A 
HETATM   13  C   UNL     1      38.613 -14.322   1.135  1.00  0.00     0.035 A 
BRANCH   9  14
HETATM   14  O   UNL     1      40.564 -14.071  -1.931  1.00  0.00    -0.354 OA
HETATM   15  C   UNL     1      40.154 -14.561  -3.204  1.00  0.00     0.210 C 
ENDBRANCH   9  14
BRANCH  11  16
HETATM   16  O   UNL     1      36.624 -11.703  -0.583  1.00  0.00    -0.356 OA
HETATM   17  C   UNL     1      35.806 -11.222   0.477  1.00  0.00     0.210 C 
ENDBRANCH  11  16
ENDBRANCH   5   8
ENDBRANCH   3   4
ENDBRANCH   1   3
BRANCH   1  18
HETATM   18  C   UNL     1      42.746 -18.583   2.940  1.00  0.00     0.036 A 
HETATM   19  C   UNL     1      43.188 -18.331   4.275  1.00  0.00     0.051 A 
HETATM   20  C   UNL     1      44.023 -19.284   4.878  1.00  0.00     0.032 A 
HETATM   21  C   UNL     1      44.465 -20.417   4.188  1.00  0.00     0.018 A 
HETATM   22  C   UNL     1      44.095 -20.626   2.858  1.00  0.00     0.049 A 
HETATM   23  C   UNL     1      43.248 -19.694   2.240  1.00  0.00     0.042 A 
BRANCH  19  24
HETATM   24  N   UNL     1      42.745 -17.185   4.957  1.00  0.00    -0.379 N 
HETATM   25  C   UNL     1      41.818 -17.309   6.091  1.00  0.00     0.123 C 
HETATM   26  C   UNL     1      42.537 -17.300   7.442  1.00  0.00     0.020 C 
HETATM   27  C   UNL     1      43.493 -16.118   7.559  1.00  0.00     0.003 C 
HETATM   28  C   UNL     1      44.460 -16.098   6.380  1.00  0.00     0.020 C 
HETATM   29  C   UNL     1      43.710 -16.074   5.050  1.00  0.00     0.123 C 
ENDBRANCH  19  24
BRANCH  22  30
HETATM   30  C   UNL     1      44.553 -21.844   2.100  1.00  0.00     0.417 C 
HETATM   31  F   UNL     1      45.729 -21.665   1.436  1.00  0.00    -0.166 F 
HETATM   32  F   UNL     1      44.745 -22.919   2.916  1.00  0.00    -0.166 F 
HETATM   33  F   UNL     1      43.654 -22.248   1.159  1.00  0.00    -0.166 F 
ENDBRANCH  22  30
ENDBRANCH   1  18
TORSDOF 8
ENDMDL
MODEL 7
REMARK VINA RESULT:      -8.3      2.194      3.140
REMARK  8 active torsions:
REMARK  status: ('A' for Active; 'I' for Inactive)
REMARK    1  A    between atoms: O_2  and  C_3 
REMARK    2  A    between atoms: C_5  and  O_6 
REMARK    3  A    between atoms: C_8  and  N_9 
REMARK       I    between atoms: N_9  and  C_10 
REMARK    4  A    between atoms: C_10  and  C_11 
REMARK    5  A    between atoms: C_11  and  N_12 
REMARK    6  A    between atoms: N_12  and  C_13 
REMARK    7  A    between atoms: C_14  and  N_15 
REMARK    8  A    between atoms: C_23  and  C_24 
ROOT
HETATM    1  N   UNL     1      42.844 -16.547   0.675  1.00  0.00    -0.282 NA
HETATM    2  H   UNL     1      43.168 -15.598   0.904  1.00  0.00     0.128 HD
ENDROOT
BRANCH   1   3
HETATM    3  C   UNL     1      41.452 -16.532   0.214  1.00  0.00     0.195 C 
BRANCH   3   4
HETATM    4  C   UNL     1      41.050 -15.136  -0.276  1.00  0.00     0.235 C 
HETATM    5  N   UNL     1      40.401 -15.159  -1.497  1.00  0.00    -0.324 N 
HETATM    6  H   UNL     1      40.446 -16.020  -2.036  1.00  0.00     0.169 HD
HETATM    7  O   UNL     1      41.291 -14.136   0.398  1.00  0.00    -0.272 OA
BRANCH   5   8
HETATM    8  C   UNL     1      39.678 -14.115  -2.116  1.00  0.00     0.068 A 
HETATM    9  C   UNL     1      40.353 -13.336  -3.079  1.00  0.00     0.097 A 
HETATM   10  C   UNL     1      39.659 -12.336  -3.771  1.00  0.00     0.075 A 
HETATM   11  C   UNL     1      38.304 -12.101  -3.522  1.00  0.00     0.070 A 
HETATM   12  C   UNL     1      37.646 -12.855  -2.553  1.00  0.00     0.039 A 
HETATM   13  C   UNL     1      38.330 -13.858  -1.857  1.00  0.00     0.035 A 
BRANCH   9  14
HETATM   14  O   UNL     1      41.677 -13.653  -3.279  1.00  0.00    -0.354 OA
HETATM   15  C   UNL     1      42.638 -12.700  -2.836  1.00  0.00     0.210 C 
ENDBRANCH   9  14
BRANCH  11  16
HETATM   16  O   UNL     1      37.742 -11.114  -4.284  1.00  0.00    -0.356 OA
HETATM   17  C   UNL     1      38.630 -10.338  -5.079  1.00  0.00     0.210 C 
ENDBRANCH  11  16
ENDBRANCH   5   8
ENDBRANCH   3   4
ENDBRANCH   1   3
BRANCH   1  18
HETATM   18  C   UNL     1      43.108 -17.319   1.843  1.00  0.00     0.036 A 
HETATM   19  C   UNL     1      42.925 -16.717   3.125  1.00  0.00     0.051 A 
HETATM   20  C   UNL     1      43.137 -17.516   4.258  1.00  0.00     0.032 A 
HETATM   21  C   UNL     1      43.572 -18.841   4.155  1.00  0.00     0.018 A 
HETATM   22  C   UNL     1      43.825 -19.407   2.904  1.00  0.00     0.049 A 
HETATM   23  C   UNL     1      43.604 -18.631   1.756  1.00  0.00     0.042 A 
BRANCH  19  24
HETATM   24  N   UNL     1      42.495 -15.382   3.220  1.00  0.00    -0.379 N 
HETATM   25  C   UNL     1      41.207 -15.061   3.850  1.00  0.00     0.123 C 
HETATM   26  C   UNL     1      41.357 -14.657   5.319  1.00  0.00     0.020 C 
HETATM   27  C   UNL     1      42.413 -13.572   5.497  1.00  0.00     0.003 C 
HETATM   28  C   UNL     1      43.734 -14.010   4.872  1.00  0.00     0.020 C 
HETATM   29  C   UNL     1      43.556 -14.373   3.399  1.00  0.00     0.123 C 
ENDBRANCH  19  24
BRANCH  22  30
HETATM   30  C   UNL     1      44.286 -20.835   2.769  1.00  0.00     0.417 C 
HETATM   31  F   UNL     1      43.457 -21.607   2.011  1.00  0.00    -0.166 F 
HETATM   32  F   UNL     1      45.516 -20.929   2.189  1.00  0.00    -0.166 F 
HETATM   33  F   UNL     1      44.392 -21.470   3.969  1.00  0.00    -0.166 F 
ENDBRANCH  22  30
ENDBRANCH   1  18
TORSDOF 8
ENDMDL
MODEL 8
REMARK VINA RESULT:      -8.3      2.386      3.309
REMARK  8 active torsions:
REMARK  status: ('A' for Active; 'I' for Inactive)
REMARK    1  A    between atoms: O_2  and  C_3 
REMARK    2  A    between atoms: C_5  and  O_6 
REMARK    3  A    between atoms: C_8  and  N_9 
REMARK       I    between atoms: N_9  and  C_10 
REMARK    4  A    between atoms: C_10  and  C_11 
REMARK    5  A    between atoms: C_11  and  N_12 
REMARK    6  A    between atoms: N_12  and  C_13 
REMARK    7  A    between atoms: C_14  and  N_15 
REMARK    8  A    between atoms: C_23  and  C_24 
ROOT
HETATM    1  N   UNL     1      42.930 -16.627   0.597  1.00  0.00    -0.282 NA
HETATM    2  H   UNL     1      43.446 -15.751   0.756  1.00  0.00     0.128 HD
ENDROOT
BRANCH   1   3
HETATM    3  C   UNL     1      41.532 -16.357   0.245  1.00  0.00     0.195 C 
BRANCH   3   4
HETATM    4  C   UNL     1      41.363 -14.927  -0.282  1.00  0.00     0.235 C 
HETATM    5  N   UNL     1      41.847 -14.766  -1.568  1.00  0.00    -0.324 N 
HETATM    6  H   UNL     1      42.440 -15.503  -1.942  1.00  0.00     0.169 HD
HETATM    7  O   UNL     1      40.830 -14.060   0.406  1.00  0.00    -0.272 OA
BRANCH   5   8
HETATM    8  C   UNL     1      41.634 -13.680  -2.446  1.00  0.00     0.068 A 
HETATM    9  C   UNL     1      40.374 -13.584  -3.071  1.00  0.00     0.097 A 
HETATM   10  C   UNL     1      40.091 -12.488  -3.896  1.00  0.00     0.075 A 
HETATM   11  C   UNL     1      41.043 -11.485  -4.104  1.00  0.00     0.070 A 
HETATM   12  C   UNL     1      42.295 -11.595  -3.505  1.00  0.00     0.039 A 
HETATM   13  C   UNL     1      42.587 -12.686  -2.680  1.00  0.00     0.035 A 
BRANCH   9  14
HETATM   14  O   UNL     1      39.490 -14.601  -2.790  1.00  0.00    -0.354 OA
HETATM   15  C   UNL     1      39.125 -15.451  -3.872  1.00  0.00     0.210 C 
ENDBRANCH   9  14
BRANCH  11  16
HETATM   16  O   UNL     1      40.629 -10.459  -4.910  1.00  0.00    -0.356 OA
HETATM   17  C   UNL     1      39.619  -9.604  -4.387  1.00  0.00     0.210 C 
ENDBRANCH  11  16
ENDBRANCH   5   8
ENDBRANCH   3   4
ENDBRANCH   1   3
BRANCH   1  18
HETATM   18  C   UNL     1      43.141 -17.398   1.776  1.00  0.00     0.036 A 
HETATM   19  C   UNL     1      42.908 -16.793   3.049  1.00  0.00     0.051 A 
HETATM   20  C   UNL     1      43.068 -17.591   4.191  1.00  0.00     0.032 A 
HETATM   21  C   UNL     1      43.500 -18.919   4.107  1.00  0.00     0.018 A 
HETATM   22  C   UNL     1      43.801 -19.488   2.869  1.00  0.00     0.049 A 
HETATM   23  C   UNL     1      43.632 -18.713   1.712  1.00  0.00     0.042 A 
BRANCH  19  24
HETATM   24  N   UNL     1      42.483 -15.455   3.124  1.00  0.00    -0.379 N 
HETATM   25  C   UNL     1      41.207 -15.118   3.771  1.00  0.00     0.123 C 
HETATM   26  C   UNL     1      41.385 -14.684   5.228  1.00  0.00     0.020 C 
HETATM   27  C   UNL     1      42.446 -13.599   5.364  1.00  0.00     0.003 C 
HETATM   28  C   UNL     1      43.754 -14.052   4.725  1.00  0.00     0.020 C 
HETATM   29  C   UNL     1      43.548 -14.445   3.263  1.00  0.00     0.123 C 
ENDBRANCH  19  24
BRANCH  22  30
HETATM   30  C   UNL     1      44.258 -20.919   2.755  1.00  0.00     0.417 C 
HETATM   31  F   UNL     1      44.416 -21.539   3.957  1.00  0.00    -0.166 F 
HETATM   32  F   UNL     1      43.380 -21.688   2.051  1.00  0.00    -0.166 F 
HETATM   33  F   UNL     1      45.454 -21.041   2.114  1.00  0.00    -0.166 F 
ENDBRANCH  22  30
ENDBRANCH   1  18
TORSDOF 8
ENDMDL
MODEL 9
REMARK VINA RESULT:      -8.2      3.144      4.326
REMARK  8 active torsions:
REMARK  status: ('A' for Active; 'I' for Inactive)
REMARK    1  A    between atoms: O_2  and  C_3 
REMARK    2  A    between atoms: C_5  and  O_6 
REMARK    3  A    between atoms: C_8  and  N_9 
REMARK       I    between atoms: N_9  and  C_10 
REMARK    4  A    between atoms: C_10  and  C_11 
REMARK    5  A    between atoms: C_11  and  N_12 
REMARK    6  A    between atoms: N_12  and  C_13 
REMARK    7  A    between atoms: C_14  and  N_15 
REMARK    8  A    between atoms: C_23  and  C_24 
ROOT
HETATM    1  N   UNL     1      40.341 -16.646   2.711  1.00  0.00    -0.282 NA
HETATM    2  H   UNL     1      39.481 -16.978   3.167  1.00  0.00     0.128 HD
ENDROOT
BRANCH   1   3
HETATM    3  C   UNL     1      40.643 -17.442   1.516  1.00  0.00     0.195 C 
BRANCH   3   4
HETATM    4  C   UNL     1      41.490 -16.641   0.521  1.00  0.00     0.235 C 
HETATM    5  N   UNL     1      40.727 -15.907  -0.369  1.00  0.00    -0.324 N 
HETATM    6  H   UNL     1      39.736 -16.126  -0.428  1.00  0.00     0.169 HD
HETATM    7  O   UNL     1      42.718 -16.674   0.568  1.00  0.00    -0.272 OA
BRANCH   5   8
HETATM    8  C   UNL     1      41.155 -14.879  -1.238  1.00  0.00     0.068 A 
HETATM    9  C   UNL     1      40.922 -15.052  -2.618  1.00  0.00     0.097 A 
HETATM   10  C   UNL     1      41.265 -14.031  -3.513  1.00  0.00     0.075 A 
HETATM   11  C   UNL     1      41.832 -12.838  -3.054  1.00  0.00     0.070 A 
HETATM   12  C   UNL     1      42.083 -12.679  -1.693  1.00  0.00     0.039 A 
HETATM   13  C   UNL     1      41.744 -13.694  -0.792  1.00  0.00     0.035 A 
BRANCH   9  14
HETATM   14  O   UNL     1      40.337 -16.245  -2.978  1.00  0.00    -0.354 OA
HETATM   15  C   UNL     1      39.271 -16.179  -3.919  1.00  0.00     0.210 C 
ENDBRANCH   9  14
BRANCH  11  16
HETATM   16  O   UNL     1      42.095 -11.915  -4.029  1.00  0.00    -0.356 OA
HETATM   17  C   UNL     1      42.476 -10.616  -3.591  1.00  0.00     0.210 C 
ENDBRANCH  11  16
ENDBRANCH   5   8
ENDBRANCH   3   4
ENDBRANCH   1   3
BRANCH   1  18
HETATM   18  C   UNL     1      41.330 -16.655   3.736  1.00  0.00     0.036 A 
HETATM   19  C   UNL     1      41.509 -15.484   4.534  1.00  0.00     0.051 A 
HETATM   20  C   UNL     1      42.450 -15.540   5.573  1.00  0.00     0.032 A 
HETATM   21  C   UNL     1      43.237 -16.675   5.795  1.00  0.00     0.018 A 
HETATM   22  C   UNL     1      43.116 -17.792   4.967  1.00  0.00     0.049 A 
HETATM   23  C   UNL     1      42.170 -17.765   3.932  1.00  0.00     0.042 A 
BRANCH  19  24
HETATM   24  N   UNL     1      40.720 -14.346   4.299  1.00  0.00    -0.379 N 
HETATM   25  C   UNL     1      39.689 -13.945   5.267  1.00  0.00     0.123 C 
HETATM   26  C   UNL     1      40.181 -12.865   6.234  1.00  0.00     0.020 C 
HETATM   27  C   UNL     1      40.812 -11.693   5.491  1.00  0.00     0.003 C 
HETATM   28  C   UNL     1      41.911 -12.187   4.556  1.00  0.00     0.020 C 
HETATM   29  C   UNL     1      41.380 -13.238   3.583  1.00  0.00     0.123 C 
ENDBRANCH  19  24
BRANCH  22  30
HETATM   30  C   UNL     1      43.947 -19.028   5.193  1.00  0.00     0.417 C 
HETATM   31  F   UNL     1      44.038 -19.834   4.099  1.00  0.00    -0.166 F 
HETATM   32  F   UNL     1      45.230 -18.731   5.545  1.00  0.00    -0.166 F 
HETATM   33  F   UNL     1      43.461 -19.814   6.194  1.00  0.00    -0.166 F 
ENDBRANCH  22  30
ENDBRANCH   1  18
TORSDOF 8
ENDMDL
MODEL 10
REMARK VINA RESULT:      -7.9      5.010      8.817
REMARK  8 active torsions:
REMARK  status: ('A' for Active; 'I' for Inactive)
REMARK    1  A    between atoms: O_2  and  C_3 
REMARK    2  A    between atoms: C_5  and  O_6 
REMARK    3  A    between atoms: C_8  and  N_9 
REMARK       I    between atoms: N_9  and  C_10 
REMARK    4  A    between atoms: C_10  and  C_11 
REMARK    5  A    between atoms: C_11  and  N_12 
REMARK    6  A    between atoms: N_12  and  C_13 
REMARK    7  A    between atoms: C_14  and  N_15 
REMARK    8  A    between atoms: C_23  and  C_24 
ROOT
HETATM    1  N   UNL     1      42.913 -15.561   5.594  1.00  0.00    -0.282 NA
HETATM    2  H   UNL     1      42.042 -15.014   5.618  1.00  0.00     0.128 HD
ENDROOT
BRANCH   1   3
HETATM    3  C   UNL     1      44.084 -14.691   5.741  1.00  0.00     0.195 C 
BRANCH   3   4
HETATM    4  C   UNL     1      44.291 -14.291   7.207  1.00  0.00     0.235 C 
HETATM    5  N   UNL     1      44.502 -12.934   7.371  1.00  0.00    -0.324 N 
HETATM    6  H   UNL     1      44.714 -12.388   6.539  1.00  0.00     0.169 HD
HETATM    7  O   UNL     1      44.248 -15.131   8.103  1.00  0.00    -0.272 OA
BRANCH   5   8
HETATM    8  C   UNL     1      44.476 -12.189   8.571  1.00  0.00     0.068 A 
HETATM    9  C   UNL     1      43.347 -11.379   8.812  1.00  0.00     0.097 A 
HETATM   10  C   UNL     1      43.243 -10.677  10.019  1.00  0.00     0.075 A 
HETATM   11  C   UNL     1      44.244 -10.772  10.991  1.00  0.00     0.070 A 
HETATM   12  C   UNL     1      45.370 -11.553  10.740  1.00  0.00     0.039 A 
HETATM   13  C   UNL     1      45.482 -12.259   9.537  1.00  0.00     0.035 A 
BRANCH   9  14
HETATM   14  O   UNL     1      42.400 -11.365   7.814  1.00  0.00    -0.354 OA
HETATM   15  C   UNL     1      41.785 -10.113   7.530  1.00  0.00     0.210 C 
ENDBRANCH   9  14
BRANCH  11  16
HETATM   16  O   UNL     1      44.006 -10.056  12.132  1.00  0.00    -0.356 OA
HETATM   17  C   UNL     1      42.975  -9.078  12.069  1.00  0.00     0.210 C 
ENDBRANCH  11  16
ENDBRANCH   5   8
ENDBRANCH   3   4
ENDBRANCH   1   3
BRANCH   1  18
HETATM   18  C   UNL     1      42.841 -16.314   4.387  1.00  0.00     0.036 A 
HETATM   19  C   UNL     1      42.178 -15.747   3.256  1.00  0.00     0.051 A 
HETATM   20  C   UNL     1      42.172 -16.486   2.064  1.00  0.00     0.032 A 
HETATM   21  C   UNL     1      42.736 -17.763   1.985  1.00  0.00     0.018 A 
HETATM   22  C   UNL     1      43.317 -18.350   3.111  1.00  0.00     0.049 A 
HETATM   23  C   UNL     1      43.350 -17.622   4.310  1.00  0.00     0.042 A 
BRANCH  19  24
HETATM   24  N   UNL     1      41.606 -14.466   3.346  1.00  0.00    -0.379 N 
HETATM   25  C   UNL     1      42.164 -13.349   2.572  1.00  0.00     0.123 C 
HETATM   26  C   UNL     1      41.413 -13.112   1.259  1.00  0.00     0.020 C 
HETATM   27  C   UNL     1      39.909 -13.011   1.483  1.00  0.00     0.003 C 
HETATM   28  C   UNL     1      39.401 -14.236   2.236  1.00  0.00     0.020 C 
HETATM   29  C   UNL     1      40.146 -14.424   3.556  1.00  0.00     0.123 C 
ENDBRANCH  19  24
BRANCH  22  30
HETATM   30  C   UNL     1      43.940 -19.720   3.047  1.00  0.00     0.417 C 
HETATM   31  F   UNL     1      45.174 -19.733   2.470  1.00  0.00    -0.166 F 
HETATM   32  F   UNL     1      44.100 -20.274   4.282  1.00  0.00    -0.166 F 
HETATM   33  F   UNL     1      43.189 -20.608   2.337  1.00  0.00    -0.166 F 
ENDBRANCH  22  30
ENDBRANCH   1  18
TORSDOF 8
ENDMDL
