MODEL 1
REMARK VINA RESULT:      -8.6      0.000      0.000
REMARK  7 active torsions:
REMARK  status: ('A' for Active; 'I' for Inactive)
REMARK    1  A    between atoms: C_2  and  C_3 
REMARK    2  A    between atoms: C_3  and  O_4 
REMARK    3  A    between atoms: O_4  and  C_5 
REMARK    4  A    between atoms: C_8  and  N_9 
REMARK    5  A    between atoms: C_12  and  N_13 
REMARK    6  A    between atoms: C_17  and  O_18 
REMARK    7  A    between atoms: C_17  and  C_19 
ROOT
HETATM    1  N   UNL     1      40.138 -14.242   3.265  1.00  0.00    -0.251 N 
HETATM    2  C   UNL     1      40.734 -15.341   3.839  1.00  0.00     0.262 C 
HETATM    3  O   UNL     1      41.220 -16.352   3.351  1.00  0.00    -0.270 OA
HETATM    4  C   UNL     1      40.743 -15.127   5.334  1.00  0.00     0.289 C 
HETATM    5  C   UNL     1      40.686 -13.630   5.473  1.00  0.00     0.146 C 
HETATM    6  C   UNL     1      39.984 -13.237   4.202  1.00  0.00     0.233 C 
HETATM    7  O   UNL     1      39.410 -12.164   4.118  1.00  0.00    -0.273 OA
ENDROOT
BRANCH   4   8
HETATM    8  N   UNL     1      41.908 -15.802   6.078  1.00  0.00    -0.058 N 
HETATM    9  H   UNL     1      41.982 -15.249   6.952  1.00  0.00     0.281 HD
HETATM   10  C   UNL     1      41.649 -17.219   6.549  1.00  0.00     0.239 C 
HETATM   11  C   UNL     1      42.838 -17.718   7.356  1.00  0.00     0.071 C 
HETATM   12  C   UNL     1      44.147 -17.675   6.539  1.00  0.00     0.088 C 
HETATM   13  C   UNL     1      44.361 -16.194   6.165  1.00  0.00     0.071 C 
HETATM   14  C   UNL     1      43.212 -15.644   5.336  1.00  0.00     0.239 C 
BRANCH  12  15
HETATM   15  O   UNL     1      45.202 -18.021   7.436  1.00  0.00    -0.385 OA
HETATM   16  H   UNL     1      46.036 -18.127   6.940  1.00  0.00     0.211 HD
ENDBRANCH  12  15
BRANCH  12  17
HETATM   17  C   UNL     1      44.190 -18.651   5.355  1.00  0.00    -0.024 A 
HETATM   18  C   UNL     1      43.950 -18.225   4.034  1.00  0.00     0.011 A 
HETATM   19  C   UNL     1      43.965 -19.126   2.962  1.00  0.00     0.020 A 
HETATM   20  C   UNL     1      44.253 -20.466   3.186  1.00  0.00     0.011 A 
HETATM   21 BR   UNL     1      44.259 -21.685   1.744  1.00  0.00    -0.051 Br
HETATM   22  C   UNL     1      44.549 -20.907   4.470  1.00  0.00     0.020 A 
HETATM   23  C   UNL     1      44.534 -20.005   5.540  1.00  0.00     0.011 A 
ENDBRANCH  12  17
ENDBRANCH   4   8
BRANCH   1  24
HETATM   24  C   UNL     1      39.705 -14.164   1.903  1.00  0.00     0.045 A 
HETATM   25  C   UNL     1      38.341 -14.152   1.565  1.00  0.00     0.033 A 
HETATM   26  C   UNL     1      37.912 -14.004   0.236  1.00  0.00     0.039 A 
HETATM   27  C   UNL     1      38.838 -13.862  -0.789  1.00  0.00     0.068 A 
HETATM   28  C   UNL     1      40.191 -13.919  -0.481  1.00  0.00     0.039 A 
HETATM   29  C   UNL     1      40.621 -14.065   0.845  1.00  0.00     0.033 A 
BRANCH  27  30
HETATM   30  O   UNL     1      38.551 -13.681  -2.111  1.00  0.00    -0.351 OA
BRANCH  30  31
HETATM   31  C   UNL     1      39.430 -14.303  -3.051  1.00  0.00     0.175 C 
BRANCH  31  32
HETATM   32  C   UNL     1      38.634 -15.364  -3.802  1.00  0.00     0.022 C 
HETATM   33  C   UNL     1      37.165 -14.998  -3.909  1.00  0.00     0.007 C 
ENDBRANCH  31  32
ENDBRANCH  30  31
ENDBRANCH  27  30
ENDBRANCH   1  24
TORSDOF 7
ENDMDL
MODEL 2
REMARK VINA RESULT:      -8.3      3.548      9.591
REMARK  7 active torsions:
REMARK  status: ('A' for Active; 'I' for Inactive)
REMARK    1  A    between atoms: C_2  and  C_3 
REMARK    2  A    between atoms: C_3  and  O_4 
REMARK    3  A    between atoms: O_4  and  C_5 
REMARK    4  A    between atoms: C_8  and  N_9 
REMARK    5  A    between atoms: C_12  and  N_13 
REMARK    6  A    between atoms: C_17  and  O_18 
REMARK    7  A    between atoms: C_17  and  C_19 
ROOT
HETATM    1  N   UNL     1      42.335 -16.133   2.232  1.00  0.00    -0.251 N 
HETATM    2  C   UNL     1      41.766 -16.397   1.007  1.00  0.00     0.262 C 
HETATM    3  O   UNL     1      41.293 -17.421   0.534  1.00  0.00    -0.270 OA
HETATM    4  C   UNL     1      41.772 -15.113   0.214  1.00  0.00     0.289 C 
HETATM    5  C   UNL     1      41.802 -14.047   1.275  1.00  0.00     0.146 C 
HETATM    6  C   UNL     1      42.482 -14.769   2.406  1.00  0.00     0.233 C 
HETATM    7  O   UNL     1      43.035 -14.144   3.296  1.00  0.00    -0.273 OA
ENDROOT
BRANCH   4   8
HETATM    8  N   UNL     1      40.628 -14.977  -0.806  1.00  0.00    -0.058 N 
HETATM    9  H   UNL     1      39.986 -15.748  -0.546  1.00  0.00     0.281 HD
HETATM   10  C   UNL     1      39.785 -13.724  -0.680  1.00  0.00     0.239 C 
HETATM   11  C   UNL     1      38.636 -13.774  -1.675  1.00  0.00     0.071 C 
HETATM   12  C   UNL     1      39.139 -13.915  -3.128  1.00  0.00     0.088 C 
HETATM   13  C   UNL     1      39.923 -15.243  -3.175  1.00  0.00     0.071 C 
HETATM   14  C   UNL     1      41.100 -15.244  -2.214  1.00  0.00     0.239 C 
BRANCH  12  15
HETATM   15  O   UNL     1      37.984 -14.100  -3.947  1.00  0.00    -0.385 OA
HETATM   16  H   UNL     1      37.296 -13.456  -3.697  1.00  0.00     0.211 HD
ENDBRANCH  12  15
BRANCH  12  17
HETATM   17  C   UNL     1      39.907 -12.696  -3.656  1.00  0.00    -0.024 A 
HETATM   18  C   UNL     1      39.252 -11.492  -3.983  1.00  0.00     0.011 A 
HETATM   19  C   UNL     1      39.956 -10.392  -4.489  1.00  0.00     0.020 A 
HETATM   20  C   UNL     1      41.334 -10.463  -4.648  1.00  0.00     0.011 A 
HETATM   21 BR   UNL     1      42.281  -8.986  -5.343  1.00  0.00    -0.051 Br
HETATM   22  C   UNL     1      42.016 -11.616  -4.281  1.00  0.00     0.020 A 
HETATM   23  C   UNL     1      41.310 -12.714  -3.775  1.00  0.00     0.011 A 
ENDBRANCH  12  17
ENDBRANCH   4   8
BRANCH   1  24
HETATM   24  C   UNL     1      42.750 -17.127   3.174  1.00  0.00     0.045 A 
HETATM   25  C   UNL     1      42.032 -17.364   4.357  1.00  0.00     0.033 A 
HETATM   26  C   UNL     1      42.394 -18.387   5.249  1.00  0.00     0.039 A 
HETATM   27  C   UNL     1      43.486 -19.200   4.977  1.00  0.00     0.068 A 
HETATM   28  C   UNL     1      44.238 -18.951   3.835  1.00  0.00     0.039 A 
HETATM   29  C   UNL     1      43.875 -17.933   2.944  1.00  0.00     0.033 A 
BRANCH  27  30
HETATM   30  O   UNL     1      43.922 -20.243   5.742  1.00  0.00    -0.351 OA
BRANCH  30  31
HETATM   31  C   UNL     1      45.050 -20.972   5.254  1.00  0.00     0.175 C 
BRANCH  31  32
HETATM   32  C   UNL     1      44.583 -22.384   4.916  1.00  0.00     0.022 C 
HETATM   33  C   UNL     1      44.582 -22.634   3.418  1.00  0.00     0.007 C 
ENDBRANCH  31  32
ENDBRANCH  30  31
ENDBRANCH  27  30
ENDBRANCH   1  24
TORSDOF 7
ENDMDL
MODEL 3
REMARK VINA RESULT:      -8.2      3.825      8.016
REMARK  7 active torsions:
REMARK  status: ('A' for Active; 'I' for Inactive)
REMARK    1  A    between atoms: C_2  and  C_3 
REMARK    2  A    between atoms: C_3  and  O_4 
REMARK    3  A    between atoms: O_4  and  C_5 
REMARK    4  A    between atoms: C_8  and  N_9 
REMARK    5  A    between atoms: C_12  and  N_13 
REMARK    6  A    between atoms: C_17  and  O_18 
REMARK    7  A    between atoms: C_17  and  C_19 
ROOT
HETATM    1  N   UNL     1      40.175 -11.565   5.499  1.00  0.00    -0.251 N 
HETATM    2  C   UNL     1      40.845 -12.452   4.687  1.00  0.00     0.262 C 
HETATM    3  O   UNL     1      41.672 -13.318   4.936  1.00  0.00    -0.270 OA
HETATM    4  C   UNL     1      40.370 -12.224   3.272  1.00  0.00     0.289 C 
HETATM    5  C   UNL     1      39.005 -11.618   3.455  1.00  0.00     0.146 C 
HETATM    6  C   UNL     1      39.146 -10.962   4.801  1.00  0.00     0.233 C 
HETATM    7  O   UNL     1      38.401 -10.053   5.128  1.00  0.00    -0.273 OA
ENDROOT
BRANCH   4   8
HETATM    8  N   UNL     1      40.410 -13.467   2.367  1.00  0.00    -0.058 N 
HETATM    9  H   UNL     1      39.902 -13.157   1.518  1.00  0.00     0.281 HD
HETATM   10  C   UNL     1      41.783 -13.864   1.861  1.00  0.00     0.239 C 
HETATM   11  C   UNL     1      41.658 -15.035   0.899  1.00  0.00     0.071 C 
HETATM   12  C   UNL     1      40.978 -16.253   1.561  1.00  0.00     0.088 C 
HETATM   13  C   UNL     1      39.573 -15.774   1.979  1.00  0.00     0.071 C 
HETATM   14  C   UNL     1      39.633 -14.616   2.960  1.00  0.00     0.239 C 
BRANCH  12  15
HETATM   15  O   UNL     1      40.785 -17.224   0.533  1.00  0.00    -0.385 OA
HETATM   16  H   UNL     1      41.504 -17.159  -0.123  1.00  0.00     0.211 HD
ENDBRANCH  12  15
BRANCH  12  17
HETATM   17  C   UNL     1      41.796 -16.905   2.684  1.00  0.00    -0.024 A 
HETATM   18  C   UNL     1      41.239 -17.170   3.950  1.00  0.00     0.011 A 
HETATM   19  C   UNL     1      41.998 -17.742   4.978  1.00  0.00     0.020 A 
HETATM   20  C   UNL     1      43.323 -18.091   4.749  1.00  0.00     0.011 A 
HETATM   21 BR   UNL     1      44.353 -18.849   6.138  1.00  0.00    -0.051 Br
HETATM   22  C   UNL     1      43.886 -17.895   3.494  1.00  0.00     0.020 A 
HETATM   23  C   UNL     1      43.124 -17.324   2.468  1.00  0.00     0.011 A 
ENDBRANCH  12  17
ENDBRANCH   4   8
BRANCH   1  24
HETATM   24  C   UNL     1      40.518 -11.282   6.859  1.00  0.00     0.045 A 
HETATM   25  C   UNL     1      41.779 -10.766   7.207  1.00  0.00     0.033 A 
HETATM   26  C   UNL     1      42.095 -10.420   8.531  1.00  0.00     0.039 A 
HETATM   27  C   UNL     1      41.155 -10.578   9.541  1.00  0.00     0.068 A 
HETATM   28  C   UNL     1      39.920 -11.131   9.225  1.00  0.00     0.039 A 
HETATM   29  C   UNL     1      39.603 -11.474   7.904  1.00  0.00     0.033 A 
BRANCH  27  30
HETATM   30  O   UNL     1      41.326 -10.252  10.855  1.00  0.00    -0.351 OA
BRANCH  30  31
HETATM   31  C   UNL     1      42.225 -11.069  11.609  1.00  0.00     0.175 C 
BRANCH  31  32
HETATM   32  C   UNL     1      43.449 -10.225  11.948  1.00  0.00     0.022 C 
HETATM   33  C   UNL     1      43.340  -9.602  13.328  1.00  0.00     0.007 C 
ENDBRANCH  31  32
ENDBRANCH  30  31
ENDBRANCH  27  30
ENDBRANCH   1  24
TORSDOF 7
ENDMDL
MODEL 4
REMARK VINA RESULT:      -8.2      2.565      4.798
REMARK  7 active torsions:
REMARK  status: ('A' for Active; 'I' for Inactive)
REMARK    1  A    between atoms: C_2  and  C_3 
REMARK    2  A    between atoms: C_3  and  O_4 
REMARK    3  A    between atoms: O_4  and  C_5 
REMARK    4  A    between atoms: C_8  and  N_9 
REMARK    5  A    between atoms: C_12  and  N_13 
REMARK    6  A    between atoms: C_17  and  O_18 
REMARK    7  A    between atoms: C_17  and  C_19 
ROOT
HETATM    1  N   UNL     1      39.455 -14.463  -1.991  1.00  0.00    -0.251 N 
HETATM    2  C   UNL     1      39.595 -14.039  -0.689  1.00  0.00     0.262 C 
HETATM    3  O   UNL     1      38.831 -13.443   0.058  1.00  0.00    -0.270 OA
HETATM    4  C   UNL     1      40.963 -14.463  -0.214  1.00  0.00     0.289 C 
HETATM    5  C   UNL     1      41.290 -15.638  -1.095  1.00  0.00     0.146 C 
HETATM    6  C   UNL     1      40.484 -15.325  -2.325  1.00  0.00     0.233 C 
HETATM    7  O   UNL     1      40.774 -15.823  -3.400  1.00  0.00    -0.273 OA
ENDROOT
BRANCH   4   8
HETATM    8  N   UNL     1      41.069 -14.738   1.296  1.00  0.00    -0.058 N 
HETATM    9  H   UNL     1      40.614 -13.908   1.720  1.00  0.00     0.281 HD
HETATM   10  C   UNL     1      40.260 -15.914   1.805  1.00  0.00     0.239 C 
HETATM   11  C   UNL     1      40.374 -16.000   3.319  1.00  0.00     0.071 C 
HETATM   12  C   UNL     1      41.841 -16.144   3.778  1.00  0.00     0.088 C 
HETATM   13  C   UNL     1      42.565 -14.878   3.276  1.00  0.00     0.071 C 
HETATM   14  C   UNL     1      42.504 -14.748   1.764  1.00  0.00     0.239 C 
BRANCH  12  15
HETATM   15  O   UNL     1      41.835 -16.067   5.204  1.00  0.00    -0.385 OA
HETATM   16  H   UNL     1      41.176 -16.688   5.565  1.00  0.00     0.211 HD
ENDBRANCH  12  15
BRANCH  12  17
HETATM   17  C   UNL     1      42.505 -17.468   3.377  1.00  0.00    -0.024 A 
HETATM   18  C   UNL     1      42.211 -18.106   2.155  1.00  0.00     0.011 A 
HETATM   19  C   UNL     1      42.802 -19.326   1.808  1.00  0.00     0.020 A 
HETATM   20  C   UNL     1      43.725 -19.918   2.660  1.00  0.00     0.011 A 
HETATM   21 BR   UNL     1      44.511 -21.572   2.199  1.00  0.00    -0.051 Br
HETATM   22  C   UNL     1      44.079 -19.286   3.846  1.00  0.00     0.020 A 
HETATM   23  C   UNL     1      43.487 -18.066   4.191  1.00  0.00     0.011 A 
ENDBRANCH  12  17
ENDBRANCH   4   8
BRANCH   1  24
HETATM   24  C   UNL     1      38.418 -14.043  -2.882  1.00  0.00     0.045 A 
HETATM   25  C   UNL     1      37.520 -14.962  -3.450  1.00  0.00     0.033 A 
HETATM   26  C   UNL     1      36.456 -14.546  -4.268  1.00  0.00     0.039 A 
HETATM   27  C   UNL     1      36.264 -13.197  -4.537  1.00  0.00     0.068 A 
HETATM   28  C   UNL     1      37.169 -12.276  -4.023  1.00  0.00     0.039 A 
HETATM   29  C   UNL     1      38.229 -12.691  -3.205  1.00  0.00     0.033 A 
BRANCH  27  30
HETATM   30  O   UNL     1      35.256 -12.663  -5.286  1.00  0.00    -0.351 OA
BRANCH  30  31
HETATM   31  C   UNL     1      34.339 -11.801  -4.609  1.00  0.00     0.175 C 
BRANCH  31  32
HETATM   32  C   UNL     1      33.106 -12.622  -4.247  1.00  0.00     0.022 C 
HETATM   33  C   UNL     1      32.282 -11.955  -3.161  1.00  0.00     0.007 C 
ENDBRANCH  31  32
ENDBRANCH  30  31
ENDBRANCH  27  30
ENDBRANCH   1  24
TORSDOF 7
ENDMDL
MODEL 5
REMARK VINA RESULT:      -8.1      4.749      9.756
REMARK  7 active torsions:
REMARK  status: ('A' for Active; 'I' for Inactive)
REMARK    1  A    between atoms: C_2  and  C_3 
REMARK    2  A    between atoms: C_3  and  O_4 
REMARK    3  A    between atoms: O_4  and  C_5 
REMARK    4  A    between atoms: C_8  and  N_9 
REMARK    5  A    between atoms: C_12  and  N_13 
REMARK    6  A    between atoms: C_17  and  O_18 
REMARK    7  A    between atoms: C_17  and  C_19 
ROOT
HETATM    1  N   UNL     1      42.051 -15.108   0.833  1.00  0.00    -0.251 N 
HETATM    2  C   UNL     1      42.166 -13.780   1.175  1.00  0.00     0.262 C 
HETATM    3  O   UNL     1      42.802 -13.218   2.056  1.00  0.00    -0.270 OA
HETATM    4  C   UNL     1      41.329 -12.983   0.203  1.00  0.00     0.289 C 
HETATM    5  C   UNL     1      41.265 -13.870  -1.011  1.00  0.00     0.146 C 
HETATM    6  C   UNL     1      41.431 -15.232  -0.396  1.00  0.00     0.233 C 
HETATM    7  O   UNL     1      41.053 -16.230  -0.989  1.00  0.00    -0.273 OA
ENDROOT
BRANCH   4   8
HETATM    8  N   UNL     1      41.832 -11.554  -0.066  1.00  0.00    -0.058 N 
HETATM    9  H   UNL     1      42.220 -11.264   0.850  1.00  0.00     0.281 HD
HETATM   10  C   UNL     1      43.000 -11.442  -1.025  1.00  0.00     0.239 C 
HETATM   11  C   UNL     1      43.456  -9.994  -1.112  1.00  0.00     0.071 C 
HETATM   12  C   UNL     1      42.317  -9.058  -1.572  1.00  0.00     0.088 C 
HETATM   13  C   UNL     1      41.210  -9.189  -0.507  1.00  0.00     0.071 C 
HETATM   14  C   UNL     1      40.697 -10.614  -0.389  1.00  0.00     0.239 C 
BRANCH  12  15
HETATM   15  O   UNL     1      42.816  -7.724  -1.474  1.00  0.00    -0.385 OA
HETATM   16  H   UNL     1      43.328  -7.503  -2.275  1.00  0.00     0.211 HD
ENDBRANCH  12  15
BRANCH  12  17
HETATM   17  C   UNL     1      41.852  -9.287  -3.016  1.00  0.00    -0.024 A 
HETATM   18  C   UNL     1      42.538 -10.153  -3.890  1.00  0.00     0.011 A 
HETATM   19  C   UNL     1      42.123 -10.337  -5.214  1.00  0.00     0.020 A 
HETATM   20  C   UNL     1      40.991  -9.682  -5.683  1.00  0.00     0.011 A 
HETATM   21 BR   UNL     1      40.437  -9.918  -7.472  1.00  0.00    -0.051 Br
HETATM   22  C   UNL     1      40.259  -8.865  -4.830  1.00  0.00     0.020 A 
HETATM   23  C   UNL     1      40.677  -8.684  -3.507  1.00  0.00     0.011 A 
ENDBRANCH  12  17
ENDBRANCH   4   8
BRANCH   1  24
HETATM   24  C   UNL     1      42.476 -16.202   1.650  1.00  0.00     0.045 A 
HETATM   25  C   UNL     1      41.740 -16.609   2.776  1.00  0.00     0.033 A 
HETATM   26  C   UNL     1      42.115 -17.727   3.539  1.00  0.00     0.039 A 
HETATM   27  C   UNL     1      43.237 -18.468   3.193  1.00  0.00     0.068 A 
HETATM   28  C   UNL     1      44.005 -18.054   2.112  1.00  0.00     0.039 A 
HETATM   29  C   UNL     1      43.630 -16.941   1.349  1.00  0.00     0.033 A 
BRANCH  27  30
HETATM   30  O   UNL     1      43.687 -19.588   3.831  1.00  0.00    -0.351 OA
BRANCH  30  31
HETATM   31  C   UNL     1      44.796 -20.265   3.233  1.00  0.00     0.175 C 
BRANCH  31  32
HETATM   32  C   UNL     1      44.365 -21.699   2.944  1.00  0.00     0.022 C 
HETATM   33  C   UNL     1      43.921 -21.875   1.503  1.00  0.00     0.007 C 
ENDBRANCH  31  32
ENDBRANCH  30  31
ENDBRANCH  27  30
ENDBRANCH   1  24
TORSDOF 7
ENDMDL
MODEL 6
REMARK VINA RESULT:      -7.9      5.105      9.134
REMARK  7 active torsions:
REMARK  status: ('A' for Active; 'I' for Inactive)
REMARK    1  A    between atoms: C_2  and  C_3 
REMARK    2  A    between atoms: C_3  and  O_4 
REMARK    3  A    between atoms: O_4  and  C_5 
REMARK    4  A    between atoms: C_8  and  N_9 
REMARK    5  A    between atoms: C_12  and  N_13 
REMARK    6  A    between atoms: C_17  and  O_18 
REMARK    7  A    between atoms: C_17  and  C_19 
ROOT
HETATM    1  N   UNL     1      43.211 -15.840   5.646  1.00  0.00    -0.251 N 
HETATM    2  C   UNL     1      42.213 -15.218   4.932  1.00  0.00     0.262 C 
HETATM    3  O   UNL     1      41.231 -15.660   4.351  1.00  0.00    -0.270 OA
HETATM    4  C   UNL     1      42.484 -13.733   4.966  1.00  0.00     0.289 C 
HETATM    5  C   UNL     1      43.303 -13.556   6.216  1.00  0.00     0.146 C 
HETATM    6  C   UNL     1      43.956 -14.905   6.340  1.00  0.00     0.233 C 
HETATM    7  O   UNL     1      44.979 -15.040   6.991  1.00  0.00    -0.273 OA
ENDROOT
BRANCH   4   8
HETATM    8  N   UNL     1      41.232 -12.844   4.882  1.00  0.00    -0.058 N 
HETATM    9  H   UNL     1      40.766 -13.172   4.016  1.00  0.00     0.281 HD
HETATM   10  C   UNL     1      40.200 -13.061   5.971  1.00  0.00     0.239 C 
HETATM   11  C   UNL     1      38.978 -12.197   5.703  1.00  0.00     0.071 C 
HETATM   12  C   UNL     1      39.340 -10.698   5.625  1.00  0.00     0.088 C 
HETATM   13  C   UNL     1      40.334 -10.566   4.453  1.00  0.00     0.071 C 
HETATM   14  C   UNL     1      41.589 -11.392   4.675  1.00  0.00     0.239 C 
BRANCH  12  15
HETATM   15  O   UNL     1      38.154 -10.010   5.227  1.00  0.00    -0.385 OA
HETATM   16  H   UNL     1      38.374  -9.329   4.565  1.00  0.00     0.211 HD
ENDBRANCH  12  15
BRANCH  12  17
HETATM   17  C   UNL     1      39.820 -10.090   6.949  1.00  0.00    -0.024 A 
HETATM   18  C   UNL     1      40.562  -8.893   6.991  1.00  0.00     0.011 A 
HETATM   19  C   UNL     1      41.019  -8.359   8.201  1.00  0.00     0.020 A 
HETATM   20  C   UNL     1      40.717  -8.994   9.399  1.00  0.00     0.011 A 
HETATM   21 BR   UNL     1      41.346  -8.282  11.030  1.00  0.00    -0.051 Br
HETATM   22  C   UNL     1      39.939 -10.145   9.396  1.00  0.00     0.020 A 
HETATM   23  C   UNL     1      39.483 -10.677   8.185  1.00  0.00     0.011 A 
ENDBRANCH  12  17
ENDBRANCH   4   8
BRANCH   1  24
HETATM   24  C   UNL     1      43.465 -17.248   5.641  1.00  0.00     0.045 A 
HETATM   25  C   UNL     1      43.898 -17.913   4.481  1.00  0.00     0.033 A 
HETATM   26  C   UNL     1      44.217 -19.281   4.489  1.00  0.00     0.039 A 
HETATM   27  C   UNL     1      44.111 -20.019   5.661  1.00  0.00     0.068 A 
HETATM   28  C   UNL     1      43.639 -19.391   6.807  1.00  0.00     0.039 A 
HETATM   29  C   UNL     1      43.324 -18.026   6.800  1.00  0.00     0.033 A 
BRANCH  27  30
HETATM   30  O   UNL     1      44.419 -21.340   5.808  1.00  0.00    -0.351 OA
BRANCH  30  31
HETATM   31  C   UNL     1      45.365 -21.886   4.886  1.00  0.00     0.175 C 
BRANCH  31  32
HETATM   32  C   UNL     1      44.614 -22.827   3.950  1.00  0.00     0.022 C 
HETATM   33  C   UNL     1      44.383 -22.202   2.586  1.00  0.00     0.007 C 
ENDBRANCH  31  32
ENDBRANCH  30  31
ENDBRANCH  27  30
ENDBRANCH   1  24
TORSDOF 7
ENDMDL
MODEL 7
REMARK VINA RESULT:      -7.8      3.361      9.366
REMARK  7 active torsions:
REMARK  status: ('A' for Active; 'I' for Inactive)
REMARK    1  A    between atoms: C_2  and  C_3 
REMARK    2  A    between atoms: C_3  and  O_4 
REMARK    3  A    between atoms: O_4  and  C_5 
REMARK    4  A    between atoms: C_8  and  N_9 
REMARK    5  A    between atoms: C_12  and  N_13 
REMARK    6  A    between atoms: C_17  and  O_18 
REMARK    7  A    between atoms: C_17  and  C_19 
ROOT
HETATM    1  N   UNL     1      41.594 -14.714   3.278  1.00  0.00    -0.251 N 
HETATM    2  C   UNL     1      41.388 -15.295   2.047  1.00  0.00     0.262 C 
HETATM    3  O   UNL     1      41.179 -16.455   1.720  1.00  0.00    -0.270 OA
HETATM    4  C   UNL     1      41.434 -14.199   1.010  1.00  0.00     0.289 C 
HETATM    5  C   UNL     1      41.066 -12.966   1.790  1.00  0.00     0.146 C 
HETATM    6  C   UNL     1      41.523 -13.337   3.173  1.00  0.00     0.233 C 
HETATM    7  O   UNL     1      41.754 -12.473   4.003  1.00  0.00    -0.273 OA
ENDROOT
BRANCH   4   8
HETATM    8  N   UNL     1      40.575 -14.454  -0.241  1.00  0.00    -0.058 N 
HETATM    9  H   UNL     1      40.023 -15.291   0.018  1.00  0.00     0.281 HD
HETATM   10  C   UNL     1      39.535 -13.395  -0.546  1.00  0.00     0.239 C 
HETATM   11  C   UNL     1      38.695 -13.828  -1.738  1.00  0.00     0.071 C 
HETATM   12  C   UNL     1      39.562 -14.079  -2.991  1.00  0.00     0.088 C 
HETATM   13  C   UNL     1      40.538 -15.210  -2.608  1.00  0.00     0.071 C 
HETATM   14  C   UNL     1      41.421 -14.827  -1.433  1.00  0.00     0.239 C 
BRANCH  12  15
HETATM   15  O   UNL     1      38.694 -14.616  -3.990  1.00  0.00    -0.385 OA
HETATM   16  H   UNL     1      37.782 -14.308  -3.835  1.00  0.00     0.211 HD
ENDBRANCH  12  15
BRANCH  12  17
HETATM   17  C   UNL     1      40.228 -12.821  -3.566  1.00  0.00    -0.024 A 
HETATM   18  C   UNL     1      39.480 -11.681  -3.920  1.00  0.00     0.011 A 
HETATM   19  C   UNL     1      40.091 -10.548  -4.469  1.00  0.00     0.020 A 
HETATM   20  C   UNL     1      41.468 -10.518  -4.644  1.00  0.00     0.011 A 
HETATM   21 BR   UNL     1      42.293  -8.996  -5.397  1.00  0.00    -0.051 Br
HETATM   22  C   UNL     1      42.241 -11.604  -4.252  1.00  0.00     0.020 A 
HETATM   23  C   UNL     1      41.627 -12.737  -3.704  1.00  0.00     0.011 A 
ENDBRANCH  12  17
ENDBRANCH   4   8
BRANCH   1  24
HETATM   24  C   UNL     1      41.879 -15.430   4.483  1.00  0.00     0.045 A 
HETATM   25  C   UNL     1      40.852 -15.901   5.319  1.00  0.00     0.033 A 
HETATM   26  C   UNL     1      41.125 -16.665   6.465  1.00  0.00     0.039 A 
HETATM   27  C   UNL     1      42.435 -16.980   6.803  1.00  0.00     0.068 A 
HETATM   28  C   UNL     1      43.467 -16.484   6.016  1.00  0.00     0.039 A 
HETATM   29  C   UNL     1      43.195 -15.723   4.871  1.00  0.00     0.033 A 
BRANCH  27  30
HETATM   30  O   UNL     1      42.830 -17.737   7.868  1.00  0.00    -0.351 OA
BRANCH  30  31
HETATM   31  C   UNL     1      44.056 -18.457   7.724  1.00  0.00     0.175 C 
BRANCH  31  32
HETATM   32  C   UNL     1      43.712 -19.888   7.324  1.00  0.00     0.022 C 
HETATM   33  C   UNL     1      44.185 -20.210   5.917  1.00  0.00     0.007 C 
ENDBRANCH  31  32
ENDBRANCH  30  31
ENDBRANCH  27  30
ENDBRANCH   1  24
TORSDOF 7
ENDMDL
MODEL 8
REMARK VINA RESULT:      -7.7      3.973      5.987
REMARK  7 active torsions:
REMARK  status: ('A' for Active; 'I' for Inactive)
REMARK    1  A    between atoms: C_2  and  C_3 
REMARK    2  A    between atoms: C_3  and  O_4 
REMARK    3  A    between atoms: O_4  and  C_5 
REMARK    4  A    between atoms: C_8  and  N_9 
REMARK    5  A    between atoms: C_12  and  N_13 
REMARK    6  A    between atoms: C_17  and  O_18 
REMARK    7  A    between atoms: C_17  and  C_19 
ROOT
HETATM    1  N   UNL     1      41.279 -12.956  -2.472  1.00  0.00    -0.251 N 
HETATM    2  C   UNL     1      41.394 -12.816  -1.107  1.00  0.00     0.262 C 
HETATM    3  O   UNL     1      41.272 -11.843  -0.376  1.00  0.00    -0.270 OA
HETATM    4  C   UNL     1      41.705 -14.177  -0.533  1.00  0.00     0.289 C 
HETATM    5  C   UNL     1      41.152 -15.125  -1.563  1.00  0.00     0.146 C 
HETATM    6  C   UNL     1      41.240 -14.295  -2.813  1.00  0.00     0.233 C 
HETATM    7  O   UNL     1      41.253 -14.827  -3.911  1.00  0.00    -0.273 OA
ENDROOT
BRANCH   4   8
HETATM    8  N   UNL     1      41.195 -14.409   0.899  1.00  0.00    -0.058 N 
HETATM    9  H   UNL     1      40.507 -13.645   1.031  1.00  0.00     0.281 HD
HETATM   10  C   UNL     1      40.395 -15.679   1.112  1.00  0.00     0.239 C 
HETATM   11  C   UNL     1      39.868 -15.723   2.537  1.00  0.00     0.071 C 
HETATM   12  C   UNL     1      41.009 -15.650   3.575  1.00  0.00     0.088 C 
HETATM   13  C   UNL     1      41.718 -14.303   3.327  1.00  0.00     0.071 C 
HETATM   14  C   UNL     1      42.287 -14.209   1.921  1.00  0.00     0.239 C 
BRANCH  12  15
HETATM   15  O   UNL     1      40.391 -15.551   4.858  1.00  0.00    -0.385 OA
HETATM   16  H   UNL     1      40.827 -14.853   5.381  1.00  0.00     0.211 HD
ENDBRANCH  12  15
BRANCH  12  17
HETATM   17  C   UNL     1      41.936 -16.873   3.587  1.00  0.00    -0.024 A 
HETATM   18  C   UNL     1      42.052 -17.728   2.473  1.00  0.00     0.011 A 
HETATM   19  C   UNL     1      42.880 -18.856   2.501  1.00  0.00     0.020 A 
HETATM   20  C   UNL     1      43.635 -19.135   3.633  1.00  0.00     0.011 A 
HETATM   21 BR   UNL     1      44.741 -20.664   3.677  1.00  0.00    -0.051 Br
HETATM   22  C   UNL     1      43.586 -18.281   4.727  1.00  0.00     0.020 A 
HETATM   23  C   UNL     1      42.757 -17.153   4.697  1.00  0.00     0.011 A 
ENDBRANCH  12  17
ENDBRANCH   4   8
BRANCH   1  24
HETATM   24  C   UNL     1      41.245 -11.872  -3.405  1.00  0.00     0.045 A 
HETATM   25  C   UNL     1      42.399 -11.133  -3.717  1.00  0.00     0.033 A 
HETATM   26  C   UNL     1      42.385 -10.115  -4.684  1.00  0.00     0.039 A 
HETATM   27  C   UNL     1      41.214  -9.811  -5.366  1.00  0.00     0.068 A 
HETATM   28  C   UNL     1      40.051 -10.498  -5.039  1.00  0.00     0.039 A 
HETATM   29  C   UNL     1      40.065 -11.516  -4.075  1.00  0.00     0.033 A 
BRANCH  27  30
HETATM   30  O   UNL     1      41.076  -8.871  -6.346  1.00  0.00    -0.351 OA
BRANCH  30  31
HETATM   31  C   UNL     1      41.902  -9.024  -7.503  1.00  0.00     0.175 C 
BRANCH  31  32
HETATM   32  C   UNL     1      42.675  -7.724  -7.699  1.00  0.00     0.022 C 
HETATM   33  C   UNL     1      44.153  -7.895  -7.398  1.00  0.00     0.007 C 
ENDBRANCH  31  32
ENDBRANCH  30  31
ENDBRANCH  27  30
ENDBRANCH   1  24
TORSDOF 7
ENDMDL
MODEL 9
REMARK VINA RESULT:      -7.6      2.652      8.123
REMARK  7 active torsions:
REMARK  status: ('A' for Active; 'I' for Inactive)
REMARK    1  A    between atoms: C_2  and  C_3 
REMARK    2  A    between atoms: C_3  and  O_4 
REMARK    3  A    between atoms: O_4  and  C_5 
REMARK    4  A    between atoms: C_8  and  N_9 
REMARK    5  A    between atoms: C_12  and  N_13 
REMARK    6  A    between atoms: C_17  and  O_18 
REMARK    7  A    between atoms: C_17  and  C_19 
ROOT
HETATM    1  N   UNL     1      41.574 -15.519   4.290  1.00  0.00    -0.251 N 
HETATM    2  C   UNL     1      41.683 -14.423   3.465  1.00  0.00     0.262 C 
HETATM    3  O   UNL     1      42.217 -14.276   2.374  1.00  0.00    -0.270 OA
HETATM    4  C   UNL     1      40.961 -13.277   4.131  1.00  0.00     0.289 C 
HETATM    5  C   UNL     1      39.965 -13.963   5.025  1.00  0.00     0.146 C 
HETATM    6  C   UNL     1      40.655 -15.272   5.293  1.00  0.00     0.233 C 
HETATM    7  O   UNL     1      40.359 -15.940   6.271  1.00  0.00    -0.273 OA
ENDROOT
BRANCH   4   8
HETATM    8  N   UNL     1      40.357 -12.243   3.164  1.00  0.00    -0.058 N 
HETATM    9  H   UNL     1      40.256 -11.398   3.755  1.00  0.00     0.281 HD
HETATM   10  C   UNL     1      41.260 -11.804   2.029  1.00  0.00     0.239 C 
HETATM   11  C   UNL     1      40.578 -10.710   1.223  1.00  0.00     0.071 C 
HETATM   12  C   UNL     1      39.220 -11.176   0.654  1.00  0.00     0.088 C 
HETATM   13  C   UNL     1      38.352 -11.534   1.877  1.00  0.00     0.071 C 
HETATM   14  C   UNL     1      38.974 -12.641   2.712  1.00  0.00     0.239 C 
BRANCH  12  15
HETATM   15  O   UNL     1      38.614 -10.033   0.050  1.00  0.00    -0.385 OA
HETATM   16  H   UNL     1      38.856  -9.990  -0.894  1.00  0.00     0.211 HD
ENDBRANCH  12  15
BRANCH  12  17
HETATM   17  C   UNL     1      39.321 -12.278  -0.409  1.00  0.00    -0.024 A 
HETATM   18  C   UNL     1      38.199 -13.031  -0.807  1.00  0.00     0.011 A 
HETATM   19  C   UNL     1      38.304 -14.052  -1.758  1.00  0.00     0.020 A 
HETATM   20  C   UNL     1      39.528 -14.320  -2.357  1.00  0.00     0.011 A 
HETATM   21 BR   UNL     1      39.675 -15.707  -3.630  1.00  0.00    -0.051 Br
HETATM   22  C   UNL     1      40.642 -13.557  -2.029  1.00  0.00     0.020 A 
HETATM   23  C   UNL     1      40.535 -12.536  -1.077  1.00  0.00     0.011 A 
ENDBRANCH  12  17
ENDBRANCH   4   8
BRANCH   1  24
HETATM   24  C   UNL     1      42.330 -16.726   4.152  1.00  0.00     0.045 A 
HETATM   25  C   UNL     1      42.089 -17.629   3.103  1.00  0.00     0.033 A 
HETATM   26  C   UNL     1      42.875 -18.779   2.922  1.00  0.00     0.039 A 
HETATM   27  C   UNL     1      43.926 -19.053   3.788  1.00  0.00     0.068 A 
HETATM   28  C   UNL     1      44.151 -18.197   4.859  1.00  0.00     0.039 A 
HETATM   29  C   UNL     1      43.368 -17.049   5.038  1.00  0.00     0.033 A 
BRANCH  27  30
HETATM   30  O   UNL     1      44.780 -20.114   3.703  1.00  0.00    -0.351 OA
BRANCH  30  31
HETATM   31  C   UNL     1      44.714 -20.898   2.509  1.00  0.00     0.175 C 
BRANCH  31  32
HETATM   32  C   UNL     1      44.376 -22.330   2.911  1.00  0.00     0.022 C 
HETATM   33  C   UNL     1      44.719 -22.604   4.364  1.00  0.00     0.007 C 
ENDBRANCH  31  32
ENDBRANCH  30  31
ENDBRANCH  27  30
ENDBRANCH   1  24
TORSDOF 7
ENDMDL
MODEL 10
REMARK VINA RESULT:      -7.5      4.705      9.962
REMARK  7 active torsions:
REMARK  status: ('A' for Active; 'I' for Inactive)
REMARK    1  A    between atoms: C_2  and  C_3 
REMARK    2  A    between atoms: C_3  and  O_4 
REMARK    3  A    between atoms: O_4  and  C_5 
REMARK    4  A    between atoms: C_8  and  N_9 
REMARK    5  A    between atoms: C_12  and  N_13 
REMARK    6  A    between atoms: C_17  and  O_18 
REMARK    7  A    between atoms: C_17  and  C_19 
ROOT
HETATM    1  N   UNL     1      42.044 -15.126   0.904  1.00  0.00    -0.251 N 
HETATM    2  C   UNL     1      42.167 -13.791   1.217  1.00  0.00     0.262 C 
HETATM    3  O   UNL     1      42.785 -13.216   2.102  1.00  0.00    -0.270 OA
HETATM    4  C   UNL     1      41.367 -13.009   0.203  1.00  0.00     0.289 C 
HETATM    5  C   UNL     1      41.326 -13.924  -0.991  1.00  0.00     0.146 C 
HETATM    6  C   UNL     1      41.457 -15.273  -0.339  1.00  0.00     0.233 C 
HETATM    7  O   UNL     1      41.083 -16.279  -0.918  1.00  0.00    -0.273 OA
ENDROOT
BRANCH   4   8
HETATM    8  N   UNL     1      41.895 -11.593  -0.086  1.00  0.00    -0.058 N 
HETATM    9  H   UNL     1      42.349 -11.323   0.806  1.00  0.00     0.281 HD
HETATM   10  C   UNL     1      43.004 -11.505  -1.116  1.00  0.00     0.239 C 
HETATM   11  C   UNL     1      43.497 -10.071  -1.220  1.00  0.00     0.071 C 
HETATM   12  C   UNL     1      42.360  -9.097  -1.600  1.00  0.00     0.088 C 
HETATM   13  C   UNL     1      41.319  -9.205  -0.468  1.00  0.00     0.071 C 
HETATM   14  C   UNL     1      40.771 -10.615  -0.329  1.00  0.00     0.239 C 
BRANCH  12  15
HETATM   15  O   UNL     1      42.905  -7.780  -1.523  1.00  0.00    -0.385 OA
HETATM   16  H   UNL     1      42.192  -7.137  -1.350  1.00  0.00     0.211 HD
ENDBRANCH  12  15
BRANCH  12  17
HETATM   17  C   UNL     1      41.798  -9.298  -3.013  1.00  0.00    -0.024 A 
HETATM   18  C   UNL     1      40.532  -8.804  -3.386  1.00  0.00     0.011 A 
HETATM   19  C   UNL     1      40.015  -9.013  -4.669  1.00  0.00     0.020 A 
HETATM   20  C   UNL     1      40.767  -9.694  -5.618  1.00  0.00     0.011 A 
HETATM   21 BR   UNL     1      40.064  -9.989  -7.345  1.00  0.00    -0.051 Br
HETATM   22  C   UNL     1      42.042 -10.144  -5.300  1.00  0.00     0.020 A 
HETATM   23  C   UNL     1      42.557  -9.933  -4.016  1.00  0.00     0.011 A 
ENDBRANCH  12  17
ENDBRANCH   4   8
BRANCH   1  24
HETATM   24  C   UNL     1      42.433 -16.205   1.759  1.00  0.00     0.045 A 
HETATM   25  C   UNL     1      43.583 -16.970   1.500  1.00  0.00     0.033 A 
HETATM   26  C   UNL     1      44.008 -17.984   2.375  1.00  0.00     0.039 A 
HETATM   27  C   UNL     1      43.291 -18.257   3.533  1.00  0.00     0.068 A 
HETATM   28  C   UNL     1      42.124 -17.544   3.782  1.00  0.00     0.039 A 
HETATM   29  C   UNL     1      41.702 -16.531   2.911  1.00  0.00     0.033 A 
BRANCH  27  30
HETATM   30  O   UNL     1      43.613 -19.190   4.475  1.00  0.00    -0.351 OA
BRANCH  30  31
HETATM   31  C   UNL     1      44.398 -18.740   5.582  1.00  0.00     0.175 C 
BRANCH  31  32
HETATM   32  C   UNL     1      43.619 -19.040   6.858  1.00  0.00     0.022 C 
HETATM   33  C   UNL     1      43.518 -17.821   7.758  1.00  0.00     0.007 C 
ENDBRANCH  31  32
ENDBRANCH  30  31
ENDBRANCH  27  30
ENDBRANCH   1  24
TORSDOF 7
ENDMDL
