MODEL 1
REMARK VINA RESULT:      -9.4      0.000      0.000
REMARK  7 active torsions:
REMARK  status: ('A' for Active; 'I' for Inactive)
REMARK    1  A    between atoms: C_2  and  O_3 
REMARK    2  A    between atoms: O_3  and  C_4 
REMARK    3  A    between atoms: C_7  and  N_8 
REMARK    4  A    between atoms: C_9  and  O_10 
REMARK    5  A    between atoms: C_9  and  C_11 
REMARK       I    between atoms: C_11  and  N_12 
REMARK    6  A    between atoms: N_12  and  C_13 
REMARK    7  A    between atoms: C_13  and  C_14 
ROOT
HETATM    1  N   UNL     1      41.313 -14.859   2.548  1.00  0.00    -0.254 N 
HETATM    2  C   UNL     1      41.218 -16.190   3.174  1.00  0.00     0.256 C 
HETATM    3  C   UNL     1      41.816 -16.219   4.563  1.00  0.00     0.034 A 
HETATM    4  C   UNL     1      42.850 -15.330   4.837  1.00  0.00     0.048 A 
HETATM    5  N   UNL     1      43.216 -14.415   3.854  1.00  0.00    -0.308 N 
HETATM    6  C   UNL     1      42.471 -14.115   2.743  1.00  0.00     0.330 C 
HETATM    7  O   UNL     1      42.853 -13.175   2.046  1.00  0.00    -0.246 OA
HETATM    8  C   UNL     1      41.443 -17.147   5.546  1.00  0.00     0.015 A 
HETATM    9  C   UNL     1      42.094 -17.169   6.780  1.00  0.00     0.001 A 
HETATM   10  C   UNL     1      43.135 -16.276   7.034  1.00  0.00     0.002 A 
HETATM   11  C   UNL     1      43.523 -15.359   6.058  1.00  0.00     0.030 A 
HETATM   12  H   UNL     1      43.972 -13.762   4.029  1.00  0.00     0.170 HD
ENDROOT
BRANCH   2  13
HETATM   13  O   UNL     1      39.853 -16.599   3.307  1.00  0.00    -0.359 OA
HETATM   14  H   UNL     1      39.716 -17.235   2.578  1.00  0.00     0.213 HD
ENDBRANCH   2  13
BRANCH   2  15
HETATM   15  C   UNL     1      41.953 -17.241   2.236  1.00  0.00     0.279 C 
HETATM   16  N   UNL     1      43.271 -17.532   2.519  1.00  0.00    -0.352 N 
HETATM   17  H   UNL     1      43.716 -17.125   3.333  1.00  0.00     0.162 HD
HETATM   18  O   UNL     1      41.362 -17.763   1.286  1.00  0.00    -0.268 OA
BRANCH  16  19
HETATM   19  C   UNL     1      44.008 -18.508   1.754  1.00  0.00     0.161 C 
BRANCH  19  20
HETATM   20  C   UNL     1      44.264 -19.742   2.578  1.00  0.00    -0.040 A 
HETATM   21  C   UNL     1      44.181 -21.016   1.992  1.00  0.00     0.012 A 
HETATM   22  C   UNL     1      44.387 -22.161   2.762  1.00  0.00     0.043 A 
HETATM   23  C   UNL     1      44.669 -22.036   4.117  1.00  0.00     0.116 A 
HETATM   24  F   UNL     1      44.866 -23.136   4.855  1.00  0.00    -0.206 F 
HETATM   25  C   UNL     1      44.744 -20.785   4.718  1.00  0.00     0.043 A 
HETATM   26  C   UNL     1      44.536 -19.637   3.951  1.00  0.00     0.012 A 
ENDBRANCH  19  20
ENDBRANCH  16  19
ENDBRANCH   2  15
BRANCH   1  27
HETATM   27  C   UNL     1      40.435 -14.543   1.462  1.00  0.00     0.043 A 
HETATM   28  C   UNL     1      39.093 -14.203   1.671  1.00  0.00     0.032 A 
HETATM   29  C   UNL     1      38.251 -13.899   0.591  1.00  0.00     0.039 A 
HETATM   30  C   UNL     1      38.738 -13.944  -0.714  1.00  0.00     0.068 A 
HETATM   31  C   UNL     1      40.062 -14.320  -0.930  1.00  0.00     0.039 A 
HETATM   32  C   UNL     1      40.902 -14.616   0.145  1.00  0.00     0.032 A 
BRANCH  30  33
HETATM   33  O   UNL     1      38.031 -13.673  -1.850  1.00  0.00    -0.352 OA
BRANCH  33  34
HETATM   34  C   UNL     1      38.473 -14.301  -3.052  1.00  0.00     0.171 C 
HETATM   35  C   UNL     1      37.321 -15.132  -3.589  1.00  0.00     0.034 C 
ENDBRANCH  33  34
ENDBRANCH  30  33
ENDBRANCH   1  27
TORSDOF 7
ENDMDL
MODEL 2
REMARK VINA RESULT:      -9.1      1.082      1.398
REMARK  7 active torsions:
REMARK  status: ('A' for Active; 'I' for Inactive)
REMARK    1  A    between atoms: C_2  and  O_3 
REMARK    2  A    between atoms: O_3  and  C_4 
REMARK    3  A    between atoms: C_7  and  N_8 
REMARK    4  A    between atoms: C_9  and  O_10 
REMARK    5  A    between atoms: C_9  and  C_11 
REMARK       I    between atoms: C_11  and  N_12 
REMARK    6  A    between atoms: N_12  and  C_13 
REMARK    7  A    between atoms: C_13  and  C_14 
ROOT
HETATM    1  N   UNL     1      41.644 -14.915   3.154  1.00  0.00    -0.254 N 
HETATM    2  C   UNL     1      41.584 -16.256   3.763  1.00  0.00     0.256 C 
HETATM    3  C   UNL     1      42.256 -16.304   5.118  1.00  0.00     0.034 A 
HETATM    4  C   UNL     1      43.300 -15.417   5.351  1.00  0.00     0.048 A 
HETATM    5  N   UNL     1      43.612 -14.486   4.365  1.00  0.00    -0.308 N 
HETATM    6  C   UNL     1      42.808 -14.170   3.300  1.00  0.00     0.330 C 
HETATM    7  O   UNL     1      43.150 -13.218   2.598  1.00  0.00    -0.246 OA
HETATM    8  C   UNL     1      41.937 -17.249   6.104  1.00  0.00     0.015 A 
HETATM    9  C   UNL     1      42.652 -17.288   7.302  1.00  0.00     0.001 A 
HETATM   10  C   UNL     1      43.703 -16.396   7.515  1.00  0.00     0.002 A 
HETATM   11  C   UNL     1      44.036 -15.463   6.534  1.00  0.00     0.030 A 
HETATM   12  H   UNL     1      44.374 -13.833   4.510  1.00  0.00     0.170 HD
ENDROOT
BRANCH   2  13
HETATM   13  O   UNL     1      40.229 -16.671   3.961  1.00  0.00    -0.359 OA
HETATM   14  H   UNL     1      40.142 -16.767   4.930  1.00  0.00     0.213 HD
ENDBRANCH   2  13
BRANCH   2  15
HETATM   15  C   UNL     1      42.272 -17.289   2.772  1.00  0.00     0.279 C 
HETATM   16  N   UNL     1      43.630 -17.488   2.902  1.00  0.00    -0.352 N 
HETATM   17  H   UNL     1      44.140 -17.027   3.645  1.00  0.00     0.162 HD
HETATM   18  O   UNL     1      41.609 -17.879   1.912  1.00  0.00    -0.268 OA
BRANCH  16  19
HETATM   19  C   UNL     1      44.335 -18.441   2.080  1.00  0.00     0.161 C 
BRANCH  19  20
HETATM   20  C   UNL     1      44.453 -19.765   2.787  1.00  0.00    -0.040 A 
HETATM   21  C   UNL     1      44.270 -20.965   2.081  1.00  0.00     0.012 A 
HETATM   22  C   UNL     1      44.348 -22.192   2.743  1.00  0.00     0.043 A 
HETATM   23  C   UNL     1      44.602 -22.219   4.109  1.00  0.00     0.116 A 
HETATM   24  F   UNL     1      44.677 -23.397   4.743  1.00  0.00    -0.206 F 
HETATM   25  C   UNL     1      44.775 -21.042   4.827  1.00  0.00     0.043 A 
HETATM   26  C   UNL     1      44.695 -19.814   4.169  1.00  0.00     0.012 A 
ENDBRANCH  19  20
ENDBRANCH  16  19
ENDBRANCH   2  15
BRANCH   1  27
HETATM   27  C   UNL     1      40.708 -14.584   2.121  1.00  0.00     0.043 A 
HETATM   28  C   UNL     1      40.993 -14.800   0.768  1.00  0.00     0.032 A 
HETATM   29  C   UNL     1      40.062 -14.466  -0.226  1.00  0.00     0.039 A 
HETATM   30  C   UNL     1      38.838 -13.897   0.121  1.00  0.00     0.068 A 
HETATM   31  C   UNL     1      38.565 -13.643   1.463  1.00  0.00     0.039 A 
HETATM   32  C   UNL     1      39.489 -13.982   2.453  1.00  0.00     0.032 A 
BRANCH  30  33
HETATM   33  O   UNL     1      37.845 -13.526  -0.741  1.00  0.00    -0.352 OA
BRANCH  33  34
HETATM   34  C   UNL     1      37.402 -12.173  -0.671  1.00  0.00     0.171 C 
HETATM   35  C   UNL     1      37.706 -11.517  -2.007  1.00  0.00     0.034 C 
ENDBRANCH  33  34
ENDBRANCH  30  33
ENDBRANCH   1  27
TORSDOF 7
ENDMDL
MODEL 3
REMARK VINA RESULT:      -9.0      3.486      7.441
REMARK  7 active torsions:
REMARK  status: ('A' for Active; 'I' for Inactive)
REMARK    1  A    between atoms: C_2  and  O_3 
REMARK    2  A    between atoms: O_3  and  C_4 
REMARK    3  A    between atoms: C_7  and  N_8 
REMARK    4  A    between atoms: C_9  and  O_10 
REMARK    5  A    between atoms: C_9  and  C_11 
REMARK       I    between atoms: C_11  and  N_12 
REMARK    6  A    between atoms: N_12  and  C_13 
REMARK    7  A    between atoms: C_13  and  C_14 
ROOT
HETATM    1  N   UNL     1      41.971 -15.954   5.082  1.00  0.00    -0.254 N 
HETATM    2  C   UNL     1      41.989 -14.864   4.090  1.00  0.00     0.256 C 
HETATM    3  C   UNL     1      41.499 -13.553   4.664  1.00  0.00     0.034 A 
HETATM    4  C   UNL     1      40.578 -13.610   5.704  1.00  0.00     0.048 A 
HETATM    5  N   UNL     1      40.225 -14.857   6.210  1.00  0.00    -0.308 N 
HETATM    6  C   UNL     1      40.907 -16.023   5.974  1.00  0.00     0.330 C 
HETATM    7  O   UNL     1      40.563 -17.016   6.614  1.00  0.00    -0.246 OA
HETATM    8  C   UNL     1      41.859 -12.301   4.145  1.00  0.00     0.015 A 
HETATM    9  C   UNL     1      41.305 -11.133   4.672  1.00  0.00     0.001 A 
HETATM   10  C   UNL     1      40.376 -11.209   5.708  1.00  0.00     0.002 A 
HETATM   11  C   UNL     1      40.002 -12.451   6.222  1.00  0.00     0.030 A 
HETATM   12  H   UNL     1      39.549 -14.923   6.963  1.00  0.00     0.170 HD
ENDROOT
BRANCH   2  13
HETATM   13  O   UNL     1      43.316 -14.631   3.607  1.00  0.00    -0.359 OA
HETATM   14  H   UNL     1      43.443 -13.667   3.698  1.00  0.00     0.213 HD
ENDBRANCH   2  13
BRANCH   2  15
HETATM   15  C   UNL     1      41.088 -15.295   2.855  1.00  0.00     0.279 C 
HETATM   16  N   UNL     1      41.726 -15.532   1.655  1.00  0.00    -0.352 N 
HETATM   17  H   UNL     1      42.736 -15.485   1.601  1.00  0.00     0.162 HD
HETATM   18  O   UNL     1      39.863 -15.399   2.970  1.00  0.00    -0.268 OA
BRANCH  16  19
HETATM   19  C   UNL     1      40.999 -15.974   0.490  1.00  0.00     0.161 C 
BRANCH  19  20
HETATM   20  C   UNL     1      41.263 -15.060  -0.677  1.00  0.00    -0.040 A 
HETATM   21  C   UNL     1      41.027 -15.499  -1.990  1.00  0.00     0.012 A 
HETATM   22  C   UNL     1      41.302 -14.663  -3.073  1.00  0.00     0.043 A 
HETATM   23  C   UNL     1      41.818 -13.393  -2.847  1.00  0.00     0.116 A 
HETATM   24  F   UNL     1      42.082 -12.593  -3.888  1.00  0.00    -0.206 F 
HETATM   25  C   UNL     1      42.070 -12.944  -1.556  1.00  0.00     0.043 A 
HETATM   26  C   UNL     1      41.798 -13.778  -0.470  1.00  0.00     0.012 A 
ENDBRANCH  19  20
ENDBRANCH  16  19
ENDBRANCH   2  15
BRANCH   1  27
HETATM   27  C   UNL     1      42.789 -17.108   4.856  1.00  0.00     0.043 A 
HETATM   28  C   UNL     1      42.502 -18.031   3.844  1.00  0.00     0.032 A 
HETATM   29  C   UNL     1      43.317 -19.155   3.643  1.00  0.00     0.039 A 
HETATM   30  C   UNL     1      44.423 -19.376   4.461  1.00  0.00     0.068 A 
HETATM   31  C   UNL     1      44.690 -18.482   5.495  1.00  0.00     0.039 A 
HETATM   32  C   UNL     1      43.883 -17.359   5.691  1.00  0.00     0.032 A 
BRANCH  30  33
HETATM   33  O   UNL     1      45.295 -20.424   4.375  1.00  0.00    -0.352 OA
BRANCH  33  34
HETATM   34  C   UNL     1      44.936 -21.621   5.062  1.00  0.00     0.171 C 
HETATM   35  C   UNL     1      44.658 -22.687   4.016  1.00  0.00     0.034 C 
ENDBRANCH  33  34
ENDBRANCH  30  33
ENDBRANCH   1  27
TORSDOF 7
ENDMDL
MODEL 4
REMARK VINA RESULT:      -8.7      2.411      6.578
REMARK  7 active torsions:
REMARK  status: ('A' for Active; 'I' for Inactive)
REMARK    1  A    between atoms: C_2  and  O_3 
REMARK    2  A    between atoms: O_3  and  C_4 
REMARK    3  A    between atoms: C_7  and  N_8 
REMARK    4  A    between atoms: C_9  and  O_10 
REMARK    5  A    between atoms: C_9  and  C_11 
REMARK       I    between atoms: C_11  and  N_12 
REMARK    6  A    between atoms: N_12  and  C_13 
REMARK    7  A    between atoms: C_13  and  C_14 
ROOT
HETATM    1  N   UNL     1      41.765 -14.394   4.443  1.00  0.00    -0.254 N 
HETATM    2  C   UNL     1      42.157 -14.152   3.043  1.00  0.00     0.256 C 
HETATM    3  C   UNL     1      40.963 -14.016   2.125  1.00  0.00     0.034 A 
HETATM    4  C   UNL     1      39.800 -14.694   2.474  1.00  0.00     0.048 A 
HETATM    5  N   UNL     1      39.774 -15.385   3.681  1.00  0.00    -0.308 N 
HETATM    6  C   UNL     1      40.685 -15.233   4.695  1.00  0.00     0.330 C 
HETATM    7  O   UNL     1      40.443 -15.800   5.760  1.00  0.00    -0.246 OA
HETATM    8  C   UNL     1      41.001 -13.319   0.908  1.00  0.00     0.015 A 
HETATM    9  C   UNL     1      39.885 -13.301   0.070  1.00  0.00     0.001 A 
HETATM   10  C   UNL     1      38.731 -13.994   0.432  1.00  0.00     0.002 A 
HETATM   11  C   UNL     1      38.688 -14.701   1.633  1.00  0.00     0.030 A 
HETATM   12  H   UNL     1      38.939 -15.893   3.954  1.00  0.00     0.170 HD
ENDROOT
BRANCH   2  13
HETATM   13  O   UNL     1      42.909 -12.941   2.922  1.00  0.00    -0.359 OA
HETATM   14  H   UNL     1      43.755 -13.133   3.371  1.00  0.00     0.213 HD
ENDBRANCH   2  13
BRANCH   2  15
HETATM   15  C   UNL     1      43.083 -15.352   2.567  1.00  0.00     0.279 C 
HETATM   16  N   UNL     1      42.464 -16.532   2.215  1.00  0.00    -0.352 N 
HETATM   17  H   UNL     1      41.453 -16.592   2.211  1.00  0.00     0.162 HD
HETATM   18  O   UNL     1      44.311 -15.226   2.527  1.00  0.00    -0.268 OA
BRANCH  16  19
HETATM   19  C   UNL     1      43.216 -17.661   1.724  1.00  0.00     0.161 C 
BRANCH  19  20
HETATM   20  C   UNL     1      43.576 -18.589   2.854  1.00  0.00    -0.040 A 
HETATM   21  C   UNL     1      43.238 -18.261   4.177  1.00  0.00     0.012 A 
HETATM   22  C   UNL     1      43.600 -19.106   5.228  1.00  0.00     0.043 A 
HETATM   23  C   UNL     1      44.305 -20.273   4.958  1.00  0.00     0.116 A 
HETATM   24  F   UNL     1      44.652 -21.082   5.967  1.00  0.00    -0.206 F 
HETATM   25  C   UNL     1      44.659 -20.609   3.657  1.00  0.00     0.043 A 
HETATM   26  C   UNL     1      44.301 -19.765   2.604  1.00  0.00     0.012 A 
ENDBRANCH  19  20
ENDBRANCH  16  19
ENDBRANCH   2  15
BRANCH   1  27
HETATM   27  C   UNL     1      42.708 -14.112   5.483  1.00  0.00     0.043 A 
HETATM   28  C   UNL     1      43.713 -15.019   5.836  1.00  0.00     0.032 A 
HETATM   29  C   UNL     1      44.625 -14.721   6.860  1.00  0.00     0.039 A 
HETATM   30  C   UNL     1      44.532 -13.516   7.554  1.00  0.00     0.068 A 
HETATM   31  C   UNL     1      43.509 -12.627   7.234  1.00  0.00     0.039 A 
HETATM   32  C   UNL     1      42.605 -12.920   6.210  1.00  0.00     0.032 A 
BRANCH  30  33
HETATM   33  O   UNL     1      45.349 -13.101   8.567  1.00  0.00    -0.352 OA
BRANCH  33  34
HETATM   34  C   UNL     1      44.770 -12.258   9.560  1.00  0.00     0.171 C 
HETATM   35  C   UNL     1      45.689 -11.062   9.743  1.00  0.00     0.034 C 
ENDBRANCH  33  34
ENDBRANCH  30  33
ENDBRANCH   1  27
TORSDOF 7
ENDMDL
MODEL 5
REMARK VINA RESULT:      -8.6      2.145      6.261
REMARK  7 active torsions:
REMARK  status: ('A' for Active; 'I' for Inactive)
REMARK    1  A    between atoms: C_2  and  O_3 
REMARK    2  A    between atoms: O_3  and  C_4 
REMARK    3  A    between atoms: C_7  and  N_8 
REMARK    4  A    between atoms: C_9  and  O_10 
REMARK    5  A    between atoms: C_9  and  C_11 
REMARK       I    between atoms: C_11  and  N_12 
REMARK    6  A    between atoms: N_12  and  C_13 
REMARK    7  A    between atoms: C_13  and  C_14 
ROOT
HETATM    1  N   UNL     1      41.309 -13.812   3.769  1.00  0.00    -0.254 N 
HETATM    2  C   UNL     1      41.802 -14.033   2.398  1.00  0.00     0.256 C 
HETATM    3  C   UNL     1      41.254 -13.022   1.417  1.00  0.00     0.034 A 
HETATM    4  C   UNL     1      40.005 -12.473   1.688  1.00  0.00     0.048 A 
HETATM    5  N   UNL     1      39.374 -12.818   2.879  1.00  0.00    -0.308 N 
HETATM    6  C   UNL     1      39.985 -13.428   3.945  1.00  0.00     0.330 C 
HETATM    7  O   UNL     1      39.334 -13.530   4.985  1.00  0.00    -0.246 OA
HETATM    8  C   UNL     1      41.896 -12.683   0.217  1.00  0.00     0.015 A 
HETATM    9  C   UNL     1      41.293 -11.802  -0.682  1.00  0.00     0.001 A 
HETATM   10  C   UNL     1      40.037 -11.267  -0.397  1.00  0.00     0.002 A 
HETATM   11  C   UNL     1      39.384 -11.610   0.786  1.00  0.00     0.030 A 
HETATM   12  H   UNL     1      38.460 -12.435   3.095  1.00  0.00     0.170 HD
ENDROOT
BRANCH   2  13
HETATM   13  O   UNL     1      43.229 -13.929   2.341  1.00  0.00    -0.359 OA
HETATM   14  H   UNL     1      43.490 -13.664   3.245  1.00  0.00     0.213 HD
ENDBRANCH   2  13
BRANCH   2  15
HETATM   15  C   UNL     1      41.403 -15.505   1.952  1.00  0.00     0.279 C 
HETATM   16  N   UNL     1      42.407 -16.448   1.899  1.00  0.00    -0.352 N 
HETATM   17  H   UNL     1      43.345 -16.205   2.192  1.00  0.00     0.162 HD
HETATM   18  O   UNL     1      40.236 -15.782   1.657  1.00  0.00    -0.268 OA
BRANCH  16  19
HETATM   19  C   UNL     1      42.134 -17.821   1.552  1.00  0.00     0.161 C 
BRANCH  19  20
HETATM   20  C   UNL     1      42.989 -18.754   2.369  1.00  0.00    -0.040 A 
HETATM   21  C   UNL     1      43.378 -18.403   3.672  1.00  0.00     0.012 A 
HETATM   22  C   UNL     1      44.196 -19.253   4.417  1.00  0.00     0.043 A 
HETATM   23  C   UNL     1      44.632 -20.449   3.859  1.00  0.00     0.116 A 
HETATM   24  F   UNL     1      45.418 -21.264   4.576  1.00  0.00    -0.206 F 
HETATM   25  C   UNL     1      44.268 -20.809   2.568  1.00  0.00     0.043 A 
HETATM   26  C   UNL     1      43.451 -19.960   1.818  1.00  0.00     0.012 A 
ENDBRANCH  19  20
ENDBRANCH  16  19
ENDBRANCH   2  15
BRANCH   1  27
HETATM   27  C   UNL     1      42.043 -14.370   4.865  1.00  0.00     0.043 A 
HETATM   28  C   UNL     1      43.151 -13.720   5.422  1.00  0.00     0.032 A 
HETATM   29  C   UNL     1      43.855 -14.287   6.494  1.00  0.00     0.039 A 
HETATM   30  C   UNL     1      43.468 -15.520   7.014  1.00  0.00     0.068 A 
HETATM   31  C   UNL     1      42.391 -16.190   6.439  1.00  0.00     0.039 A 
HETATM   32  C   UNL     1      41.685 -15.623   5.376  1.00  0.00     0.032 A 
BRANCH  30  33
HETATM   33  O   UNL     1      44.062 -16.183   8.051  1.00  0.00    -0.352 OA
BRANCH  33  34
HETATM   34  C   UNL     1      43.422 -17.372   8.508  1.00  0.00     0.171 C 
HETATM   35  C   UNL     1      44.295 -18.549   8.108  1.00  0.00     0.034 C 
ENDBRANCH  33  34
ENDBRANCH  30  33
ENDBRANCH   1  27
TORSDOF 7
ENDMDL
MODEL 6
REMARK VINA RESULT:      -8.6      3.028      6.390
REMARK  7 active torsions:
REMARK  status: ('A' for Active; 'I' for Inactive)
REMARK    1  A    between atoms: C_2  and  O_3 
REMARK    2  A    between atoms: O_3  and  C_4 
REMARK    3  A    between atoms: C_7  and  N_8 
REMARK    4  A    between atoms: C_9  and  O_10 
REMARK    5  A    between atoms: C_9  and  C_11 
REMARK       I    between atoms: C_11  and  N_12 
REMARK    6  A    between atoms: N_12  and  C_13 
REMARK    7  A    between atoms: C_13  and  C_14 
ROOT
HETATM    1  N   UNL     1      39.788 -13.631   1.403  1.00  0.00    -0.254 N 
HETATM    2  C   UNL     1      41.149 -13.689   0.840  1.00  0.00     0.256 C 
HETATM    3  C   UNL     1      41.167 -13.446  -0.653  1.00  0.00     0.034 A 
HETATM    4  C   UNL     1      40.036 -13.806  -1.378  1.00  0.00     0.048 A 
HETATM    5  N   UNL     1      38.929 -14.287  -0.684  1.00  0.00    -0.308 N 
HETATM    6  C   UNL     1      38.742 -14.177   0.670  1.00  0.00     0.330 C 
HETATM    7  O   UNL     1      37.645 -14.514   1.116  1.00  0.00    -0.246 OA
HETATM    8  C   UNL     1      42.288 -12.964  -1.343  1.00  0.00     0.015 A 
HETATM    9  C   UNL     1      42.262 -12.840  -2.733  1.00  0.00     0.001 A 
HETATM   10  C   UNL     1      41.122 -13.213  -3.445  1.00  0.00     0.002 A 
HETATM   11  C   UNL     1      40.007 -13.707  -2.768  1.00  0.00     0.030 A 
HETATM   12  H   UNL     1      38.096 -14.561  -1.192  1.00  0.00     0.170 HD
ENDROOT
BRANCH   2  13
HETATM   13  O   UNL     1      41.993 -12.694   1.428  1.00  0.00    -0.359 OA
HETATM   14  H   UNL     1      41.941 -12.867   2.388  1.00  0.00     0.213 HD
ENDBRANCH   2  13
BRANCH   2  15
HETATM   15  C   UNL     1      41.769 -15.114   1.172  1.00  0.00     0.279 C 
HETATM   16  N   UNL     1      42.846 -15.154   2.032  1.00  0.00    -0.352 N 
HETATM   17  H   UNL     1      43.176 -14.302   2.469  1.00  0.00     0.162 HD
HETATM   18  O   UNL     1      41.304 -16.140   0.666  1.00  0.00    -0.268 OA
BRANCH  16  19
HETATM   19  C   UNL     1      43.446 -16.403   2.431  1.00  0.00     0.161 C 
BRANCH  19  20
HETATM   20  C   UNL     1      43.200 -16.666   3.893  1.00  0.00    -0.040 A 
HETATM   21  C   UNL     1      42.900 -17.963   4.341  1.00  0.00     0.012 A 
HETATM   22  C   UNL     1      42.641 -18.200   5.692  1.00  0.00     0.043 A 
HETATM   23  C   UNL     1      42.673 -17.143   6.593  1.00  0.00     0.116 A 
HETATM   24  F   UNL     1      42.423 -17.373   7.889  1.00  0.00    -0.206 F 
HETATM   25  C   UNL     1      42.956 -15.851   6.169  1.00  0.00     0.043 A 
HETATM   26  C   UNL     1      43.214 -15.609   4.818  1.00  0.00     0.012 A 
ENDBRANCH  19  20
ENDBRANCH  16  19
ENDBRANCH   2  15
BRANCH   1  27
HETATM   27  C   UNL     1      39.632 -13.398   2.808  1.00  0.00     0.043 A 
HETATM   28  C   UNL     1      39.886 -14.397   3.755  1.00  0.00     0.032 A 
HETATM   29  C   UNL     1      39.723 -14.147   5.126  1.00  0.00     0.039 A 
HETATM   30  C   UNL     1      39.292 -12.896   5.565  1.00  0.00     0.068 A 
HETATM   31  C   UNL     1      39.000 -11.912   4.624  1.00  0.00     0.039 A 
HETATM   32  C   UNL     1      39.168 -12.159   3.260  1.00  0.00     0.032 A 
BRANCH  30  33
HETATM   33  O   UNL     1      39.093 -12.520   6.863  1.00  0.00    -0.352 OA
BRANCH  33  34
HETATM   34  C   UNL     1      39.738 -11.324   7.294  1.00  0.00     0.171 C 
HETATM   35  C   UNL     1      39.334 -11.076   8.738  1.00  0.00     0.034 C 
ENDBRANCH  33  34
ENDBRANCH  30  33
ENDBRANCH   1  27
TORSDOF 7
ENDMDL
MODEL 7
REMARK VINA RESULT:      -8.5      3.755      8.033
REMARK  7 active torsions:
REMARK  status: ('A' for Active; 'I' for Inactive)
REMARK    1  A    between atoms: C_2  and  O_3 
REMARK    2  A    between atoms: O_3  and  C_4 
REMARK    3  A    between atoms: C_7  and  N_8 
REMARK    4  A    between atoms: C_9  and  O_10 
REMARK    5  A    between atoms: C_9  and  C_11 
REMARK       I    between atoms: C_11  and  N_12 
REMARK    6  A    between atoms: N_12  and  C_13 
REMARK    7  A    between atoms: C_13  and  C_14 
ROOT
HETATM    1  N   UNL     1      41.881 -15.866   5.217  1.00  0.00    -0.254 N 
HETATM    2  C   UNL     1      41.975 -14.715   4.301  1.00  0.00     0.256 C 
HETATM    3  C   UNL     1      41.449 -13.440   4.920  1.00  0.00     0.034 A 
HETATM    4  C   UNL     1      40.453 -13.555   5.884  1.00  0.00     0.048 A 
HETATM    5  N   UNL     1      40.060 -14.829   6.282  1.00  0.00    -0.308 N 
HETATM    6  C   UNL     1      40.754 -15.983   6.023  1.00  0.00     0.330 C 
HETATM    7  O   UNL     1      40.360 -17.012   6.571  1.00  0.00    -0.246 OA
HETATM    8  C   UNL     1      41.850 -12.160   4.509  1.00  0.00     0.015 A 
HETATM    9  C   UNL     1      41.263 -11.024   5.068  1.00  0.00     0.001 A 
HETATM   10  C   UNL     1      40.260 -11.158   6.028  1.00  0.00     0.002 A 
HETATM   11  C   UNL     1      39.845 -12.426   6.432  1.00  0.00     0.030 A 
HETATM   12  H   UNL     1      39.331 -14.937   6.979  1.00  0.00     0.170 HD
ENDROOT
BRANCH   2  13
HETATM   13  O   UNL     1      43.334 -14.463   3.931  1.00  0.00    -0.359 OA
HETATM   14  H   UNL     1      43.276 -14.062   3.042  1.00  0.00     0.213 HD
ENDBRANCH   2  13
BRANCH   2  15
HETATM   15  C   UNL     1      41.165 -15.059   2.978  1.00  0.00     0.279 C 
HETATM   16  N   UNL     1      39.789 -14.993   3.039  1.00  0.00    -0.352 N 
HETATM   17  H   UNL     1      39.336 -14.678   3.888  1.00  0.00     0.162 HD
HETATM   18  O   UNL     1      41.754 -15.384   1.942  1.00  0.00    -0.268 OA
BRANCH  16  19
HETATM   19  C   UNL     1      38.971 -15.240   1.878  1.00  0.00     0.161 C 
BRANCH  19  20
HETATM   20  C   UNL     1      38.478 -13.944   1.291  1.00  0.00    -0.040 A 
HETATM   21  C   UNL     1      38.033 -13.890  -0.040  1.00  0.00     0.012 A 
HETATM   22  C   UNL     1      37.607 -12.683  -0.594  1.00  0.00     0.043 A 
HETATM   23  C   UNL     1      37.629 -11.528   0.179  1.00  0.00     0.116 A 
HETATM   24  F   UNL     1      37.220 -10.369  -0.354  1.00  0.00    -0.206 F 
HETATM   25  C   UNL     1      38.076 -11.557   1.494  1.00  0.00     0.043 A 
HETATM   26  C   UNL     1      38.507 -12.763   2.050  1.00  0.00     0.012 A 
ENDBRANCH  19  20
ENDBRANCH  16  19
ENDBRANCH   2  15
BRANCH   1  27
HETATM   27  C   UNL     1      42.709 -17.009   4.977  1.00  0.00     0.043 A 
HETATM   28  C   UNL     1      42.415 -17.939   3.973  1.00  0.00     0.032 A 
HETATM   29  C   UNL     1      43.241 -19.053   3.758  1.00  0.00     0.039 A 
HETATM   30  C   UNL     1      44.365 -19.258   4.556  1.00  0.00     0.068 A 
HETATM   31  C   UNL     1      44.640 -18.357   5.583  1.00  0.00     0.039 A 
HETATM   32  C   UNL     1      43.822 -17.245   5.792  1.00  0.00     0.032 A 
BRANCH  30  33
HETATM   33  O   UNL     1      45.249 -20.294   4.456  1.00  0.00    -0.352 OA
BRANCH  33  34
HETATM   34  C   UNL     1      44.875 -21.524   5.074  1.00  0.00     0.171 C 
HETATM   35  C   UNL     1      44.641 -22.542   3.970  1.00  0.00     0.034 C 
ENDBRANCH  33  34
ENDBRANCH  30  33
ENDBRANCH   1  27
TORSDOF 7
ENDMDL
MODEL 8
REMARK VINA RESULT:      -8.5      1.864      6.061
REMARK  7 active torsions:
REMARK  status: ('A' for Active; 'I' for Inactive)
REMARK    1  A    between atoms: C_2  and  O_3 
REMARK    2  A    between atoms: O_3  and  C_4 
REMARK    3  A    between atoms: C_7  and  N_8 
REMARK    4  A    between atoms: C_9  and  O_10 
REMARK    5  A    between atoms: C_9  and  C_11 
REMARK       I    between atoms: C_11  and  N_12 
REMARK    6  A    between atoms: N_12  and  C_13 
REMARK    7  A    between atoms: C_13  and  C_14 
ROOT
HETATM    1  N   UNL     1      41.007 -14.472   2.854  1.00  0.00    -0.254 N 
HETATM    2  C   UNL     1      41.332 -15.069   1.547  1.00  0.00     0.256 C 
HETATM    3  C   UNL     1      40.535 -14.456   0.417  1.00  0.00     0.034 A 
HETATM    4  C   UNL     1      39.277 -13.947   0.720  1.00  0.00     0.048 A 
HETATM    5  N   UNL     1      38.861 -13.953   2.048  1.00  0.00    -0.308 N 
HETATM    6  C   UNL     1      39.682 -14.154   3.128  1.00  0.00     0.330 C 
HETATM    7  O   UNL     1      39.196 -13.979   4.245  1.00  0.00    -0.246 OA
HETATM    8  C   UNL     1      40.961 -14.458  -0.919  1.00  0.00     0.015 A 
HETATM    9  C   UNL     1      40.138 -13.947  -1.923  1.00  0.00     0.001 A 
HETATM   10  C   UNL     1      38.876 -13.448  -1.603  1.00  0.00     0.002 A 
HETATM   11  C   UNL     1      38.437 -13.455  -0.279  1.00  0.00     0.030 A 
HETATM   12  H   UNL     1      37.944 -13.593   2.291  1.00  0.00     0.170 HD
ENDROOT
BRANCH   2  13
HETATM   13  O   UNL     1      42.714 -14.879   1.224  1.00  0.00    -0.359 OA
HETATM   14  H   UNL     1      42.959 -15.678   0.719  1.00  0.00     0.213 HD
ENDBRANCH   2  13
BRANCH   2  15
HETATM   15  C   UNL     1      41.061 -16.632   1.627  1.00  0.00     0.279 C 
HETATM   16  N   UNL     1      42.096 -17.476   1.285  1.00  0.00    -0.352 N 
HETATM   17  H   UNL     1      43.004 -17.094   1.051  1.00  0.00     0.162 HD
HETATM   18  O   UNL     1      39.957 -17.066   1.973  1.00  0.00    -0.268 OA
BRANCH  16  19
HETATM   19  C   UNL     1      41.961 -18.909   1.372  1.00  0.00     0.161 C 
BRANCH  19  20
HETATM   20  C   UNL     1      43.018 -19.487   2.276  1.00  0.00    -0.040 A 
HETATM   21  C   UNL     1      43.625 -20.714   1.964  1.00  0.00     0.012 A 
HETATM   22  C   UNL     1      44.581 -21.266   2.818  1.00  0.00     0.043 A 
HETATM   23  C   UNL     1      44.927 -20.595   3.985  1.00  0.00     0.116 A 
HETATM   24  F   UNL     1      45.845 -21.126   4.803  1.00  0.00    -0.206 F 
HETATM   25  C   UNL     1      44.330 -19.385   4.317  1.00  0.00     0.043 A 
HETATM   26  C   UNL     1      43.371 -18.832   3.467  1.00  0.00     0.012 A 
ENDBRANCH  19  20
ENDBRANCH  16  19
ENDBRANCH   2  15
BRANCH   1  27
HETATM   27  C   UNL     1      41.946 -14.605   3.927  1.00  0.00     0.043 A 
HETATM   28  C   UNL     1      42.009 -15.760   4.716  1.00  0.00     0.032 A 
HETATM   29  C   UNL     1      42.936 -15.867   5.763  1.00  0.00     0.039 A 
HETATM   30  C   UNL     1      43.803 -14.812   6.044  1.00  0.00     0.068 A 
HETATM   31  C   UNL     1      43.717 -13.645   5.288  1.00  0.00     0.039 A 
HETATM   32  C   UNL     1      42.799 -13.541   4.241  1.00  0.00     0.032 A 
BRANCH  30  33
HETATM   33  O   UNL     1      44.749 -14.784   7.029  1.00  0.00    -0.352 OA
BRANCH  33  34
HETATM   34  C   UNL     1      45.415 -13.542   7.249  1.00  0.00     0.171 C 
HETATM   35  C   UNL     1      44.893 -12.964   8.554  1.00  0.00     0.034 C 
ENDBRANCH  33  34
ENDBRANCH  30  33
ENDBRANCH   1  27
TORSDOF 7
ENDMDL
MODEL 9
REMARK VINA RESULT:      -8.3      1.992      2.786
REMARK  7 active torsions:
REMARK  status: ('A' for Active; 'I' for Inactive)
REMARK    1  A    between atoms: C_2  and  O_3 
REMARK    2  A    between atoms: O_3  and  C_4 
REMARK    3  A    between atoms: C_7  and  N_8 
REMARK    4  A    between atoms: C_9  and  O_10 
REMARK    5  A    between atoms: C_9  and  C_11 
REMARK       I    between atoms: C_11  and  N_12 
REMARK    6  A    between atoms: N_12  and  C_13 
REMARK    7  A    between atoms: C_13  and  C_14 
ROOT
HETATM    1  N   UNL     1      40.829 -13.719   1.169  1.00  0.00    -0.254 N 
HETATM    2  C   UNL     1      40.547 -14.653   2.274  1.00  0.00     0.256 C 
HETATM    3  C   UNL     1      40.723 -14.011   3.632  1.00  0.00     0.034 A 
HETATM    4  C   UNL     1      41.642 -12.972   3.739  1.00  0.00     0.048 A 
HETATM    5  N   UNL     1      42.281 -12.531   2.585  1.00  0.00    -0.308 N 
HETATM    6  C   UNL     1      41.887 -12.829   1.305  1.00  0.00     0.330 C 
HETATM    7  O   UNL     1      42.460 -12.240   0.388  1.00  0.00    -0.246 OA
HETATM    8  C   UNL     1      40.076 -14.466   4.790  1.00  0.00     0.015 A 
HETATM    9  C   UNL     1      40.347 -13.877   6.027  1.00  0.00     0.001 A 
HETATM   10  C   UNL     1      41.278 -12.843   6.117  1.00  0.00     0.002 A 
HETATM   11  C   UNL     1      41.936 -12.393   4.973  1.00  0.00     0.030 A 
HETATM   12  H   UNL     1      42.960 -11.780   2.640  1.00  0.00     0.170 HD
ENDROOT
BRANCH   2  13
HETATM   13  O   UNL     1      39.198 -15.128   2.215  1.00  0.00    -0.359 OA
HETATM   14  H   UNL     1      38.760 -14.713   2.983  1.00  0.00     0.213 HD
ENDBRANCH   2  13
BRANCH   2  15
HETATM   15  C   UNL     1      41.513 -15.907   2.130  1.00  0.00     0.279 C 
HETATM   16  N   UNL     1      42.728 -15.852   2.780  1.00  0.00    -0.352 N 
HETATM   17  H   UNL     1      42.951 -15.058   3.368  1.00  0.00     0.162 HD
HETATM   18  O   UNL     1      41.184 -16.884   1.450  1.00  0.00    -0.268 OA
BRANCH  16  19
HETATM   19  C   UNL     1      43.650 -16.960   2.747  1.00  0.00     0.161 C 
BRANCH  19  20
HETATM   20  C   UNL     1      43.690 -17.655   4.082  1.00  0.00    -0.040 A 
HETATM   21  C   UNL     1      44.090 -18.998   4.172  1.00  0.00     0.012 A 
HETATM   22  C   UNL     1      44.096 -19.652   5.405  1.00  0.00     0.043 A 
HETATM   23  C   UNL     1      43.698 -18.967   6.546  1.00  0.00     0.116 A 
HETATM   24  F   UNL     1      43.704 -19.597   7.729  1.00  0.00    -0.206 F 
HETATM   25  C   UNL     1      43.288 -17.642   6.478  1.00  0.00     0.043 A 
HETATM   26  C   UNL     1      43.278 -16.985   5.246  1.00  0.00     0.012 A 
ENDBRANCH  19  20
ENDBRANCH  16  19
ENDBRANCH   2  15
BRANCH   1  27
HETATM   27  C   UNL     1      40.301 -14.008  -0.130  1.00  0.00     0.043 A 
HETATM   28  C   UNL     1      41.023 -14.744  -1.076  1.00  0.00     0.032 A 
HETATM   29  C   UNL     1      40.486 -15.012  -2.344  1.00  0.00     0.039 A 
HETATM   30  C   UNL     1      39.223 -14.534  -2.686  1.00  0.00     0.068 A 
HETATM   31  C   UNL     1      38.515 -13.768  -1.763  1.00  0.00     0.039 A 
HETATM   32  C   UNL     1      39.047 -13.506  -0.499  1.00  0.00     0.032 A 
BRANCH  30  33
HETATM   33  O   UNL     1      38.584 -14.722  -3.879  1.00  0.00    -0.352 OA
BRANCH  33  34
HETATM   34  C   UNL     1      37.234 -15.177  -3.824  1.00  0.00     0.171 C 
HETATM   35  C   UNL     1      36.389 -14.218  -4.645  1.00  0.00     0.034 C 
ENDBRANCH  33  34
ENDBRANCH  30  33
ENDBRANCH   1  27
TORSDOF 7
ENDMDL
MODEL 10
REMARK VINA RESULT:      -8.2      3.816      7.087
REMARK  7 active torsions:
REMARK  status: ('A' for Active; 'I' for Inactive)
REMARK    1  A    between atoms: C_2  and  O_3 
REMARK    2  A    between atoms: O_3  and  C_4 
REMARK    3  A    between atoms: C_7  and  N_8 
REMARK    4  A    between atoms: C_9  and  O_10 
REMARK    5  A    between atoms: C_9  and  C_11 
REMARK       I    between atoms: C_11  and  N_12 
REMARK    6  A    between atoms: N_12  and  C_13 
REMARK    7  A    between atoms: C_13  and  C_14 
ROOT
HETATM    1  N   UNL     1      41.761 -14.267   3.701  1.00  0.00    -0.254 N 
HETATM    2  C   UNL     1      41.100 -15.047   2.639  1.00  0.00     0.256 C 
HETATM    3  C   UNL     1      41.855 -16.312   2.297  1.00  0.00     0.034 A 
HETATM    4  C   UNL     1      43.234 -16.309   2.483  1.00  0.00     0.048 A 
HETATM    5  N   UNL     1      43.825 -15.182   3.046  1.00  0.00    -0.308 N 
HETATM    6  C   UNL     1      43.148 -14.183   3.698  1.00  0.00     0.330 C 
HETATM    7  O   UNL     1      43.823 -13.330   4.275  1.00  0.00    -0.246 OA
HETATM    8  C   UNL     1      41.251 -17.442   1.726  1.00  0.00     0.015 A 
HETATM    9  C   UNL     1      42.023 -18.546   1.361  1.00  0.00     0.001 A 
HETATM   10  C   UNL     1      43.405 -18.522   1.546  1.00  0.00     0.002 A 
HETATM   11  C   UNL     1      44.016 -17.398   2.099  1.00  0.00     0.030 A 
HETATM   12  H   UNL     1      44.829 -15.155   3.184  1.00  0.00     0.170 HD
ENDROOT
BRANCH   2  13
HETATM   13  O   UNL     1      39.786 -15.449   3.039  1.00  0.00    -0.359 OA
HETATM   14  H   UNL     1      39.601 -16.246   2.506  1.00  0.00     0.213 HD
ENDBRANCH   2  13
BRANCH   2  15
HETATM   15  C   UNL     1      40.959 -14.126   1.353  1.00  0.00     0.279 C 
HETATM   16  N   UNL     1      39.753 -14.145   0.685  1.00  0.00    -0.352 N 
HETATM   17  H   UNL     1      38.981 -14.689   1.052  1.00  0.00     0.162 HD
HETATM   18  O   UNL     1      41.904 -13.430   0.966  1.00  0.00    -0.268 OA
BRANCH  16  19
HETATM   19  C   UNL     1      39.513 -13.308  -0.463  1.00  0.00     0.161 C 
BRANCH  19  20
HETATM   20  C   UNL     1      39.372 -14.143  -1.708  1.00  0.00    -0.040 A 
HETATM   21  C   UNL     1      38.147 -14.198  -2.392  1.00  0.00     0.012 A 
HETATM   22  C   UNL     1      38.007 -14.997  -3.528  1.00  0.00     0.043 A 
HETATM   23  C   UNL     1      39.088 -15.747  -3.976  1.00  0.00     0.116 A 
HETATM   24  F   UNL     1      38.952 -16.514  -5.066  1.00  0.00    -0.206 F 
HETATM   25  C   UNL     1      40.305 -15.716  -3.307  1.00  0.00     0.043 A 
HETATM   26  C   UNL     1      40.448 -14.920  -2.169  1.00  0.00     0.012 A 
ENDBRANCH  19  20
ENDBRANCH  16  19
ENDBRANCH   2  15
BRANCH   1  27
HETATM   27  C   UNL     1      40.989 -13.312   4.439  1.00  0.00     0.043 A 
HETATM   28  C   UNL     1      40.404 -13.627   5.670  1.00  0.00     0.032 A 
HETATM   29  C   UNL     1      39.650 -12.676   6.373  1.00  0.00     0.039 A 
HETATM   30  C   UNL     1      39.460 -11.400   5.845  1.00  0.00     0.068 A 
HETATM   31  C   UNL     1      40.007 -11.094   4.601  1.00  0.00     0.039 A 
HETATM   32  C   UNL     1      40.763 -12.039   3.904  1.00  0.00     0.032 A 
BRANCH  30  33
HETATM   33  O   UNL     1      38.753 -10.384   6.421  1.00  0.00    -0.352 OA
BRANCH  33  34
HETATM   34  C   UNL     1      39.483  -9.216   6.790  1.00  0.00     0.171 C 
HETATM   35  C   UNL     1      39.320  -9.023   8.288  1.00  0.00     0.034 C 
ENDBRANCH  33  34
ENDBRANCH  30  33
ENDBRANCH   1  27
TORSDOF 7
ENDMDL
