MODEL 1
REMARK VINA RESULT:      -9.0      0.000      0.000
REMARK  8 active torsions:
REMARK  status: ('A' for Active; 'I' for Inactive)
REMARK    1  A    between atoms: C_4  and  O_5 
REMARK    2  A    between atoms: O_5  and  C_6 
REMARK    3  A    between atoms: C_6  and  C_7 
REMARK       I    between atoms: C_7  and  N_8 
REMARK    4  A    between atoms: N_8  and  N_9 
REMARK       I    between atoms: N_9  and  C_10 
REMARK    5  A    between atoms: C_10  and  C_11 
REMARK    6  A    between atoms: C_11  and  C_12 
REMARK    7  A    between atoms: C_12  and  N_13 
REMARK    8  A    between atoms: C_12  and  C_17 
REMARK       I    between atoms: N_13  and  C_14 
REMARK       I    between atoms: C_14  and  N_15 
ROOT
HETATM    1  N   UNL     1      44.220 -14.217   7.924  1.00  0.00    -0.267 N 
HETATM    2  C   UNL     1      44.216 -14.658   6.614  1.00  0.00     0.238 C 
HETATM    3  O   UNL     1      44.136 -13.905   5.643  1.00  0.00    -0.272 OA
HETATM    4  H   UNL     1      44.586 -14.785   8.681  1.00  0.00     0.190 HD
ENDROOT
BRANCH   2   5
HETATM    5  C   UNL     1      44.311 -16.160   6.461  1.00  0.00     0.134 C 
BRANCH   5   6
HETATM    6  C   UNL     1      43.095 -16.748   5.721  1.00  0.00     0.129 C 
BRANCH   6   7
HETATM    7  N   UNL     1      42.029 -15.762   5.597  1.00  0.00    -0.339 N 
HETATM    8  C   UNL     1      40.750 -16.043   5.967  1.00  0.00     0.292 C 
HETATM    9  N   UNL     1      39.910 -15.002   5.747  1.00  0.00    -0.254 NA
HETATM   10  O   UNL     1      40.357 -17.094   6.448  1.00  0.00    -0.254 OA
HETATM   11  H   UNL     1      40.278 -14.085   5.952  1.00  0.00     0.128 HD
HETATM   12  H   UNL     1      38.984 -15.166   6.124  1.00  0.00     0.128 HD
HETATM   13  H   UNL     1      42.136 -15.021   4.918  1.00  0.00     0.164 HD
ENDBRANCH   6   7
BRANCH   6  14
HETATM   14  C   UNL     1      43.425 -17.286   4.329  1.00  0.00    -0.013 A 
HETATM   15  C   UNL     1      43.791 -18.633   4.127  1.00  0.00     0.042 A 
HETATM   16 CL   UNL     1      43.926 -19.762   5.431  1.00  0.00    -0.084 Cl
HETATM   17  C   UNL     1      44.046 -19.125   2.842  1.00  0.00     0.024 A 
HETATM   18  C   UNL     1      43.935 -18.292   1.733  1.00  0.00     0.002 A 
HETATM   19  C   UNL     1      43.560 -16.963   1.906  1.00  0.00     0.001 A 
HETATM   20  C   UNL     1      43.299 -16.468   3.187  1.00  0.00     0.011 A 
ENDBRANCH   6  14
ENDBRANCH   5   6
ENDBRANCH   2   5
BRANCH   1  21
HETATM   21  N   UNL     1      44.209 -12.834   8.145  1.00  0.00    -0.266 N 
HETATM   22  C   UNL     1      44.544 -12.377   9.407  1.00  0.00     0.260 C 
HETATM   23  O   UNL     1      44.642 -13.119  10.385  1.00  0.00    -0.269 OA
HETATM   24  H   UNL     1      44.371 -12.257   7.321  1.00  0.00     0.190 HD
BRANCH  22  25
HETATM   25  C   UNL     1      44.787 -10.877   9.472  1.00  0.00     0.280 C 
BRANCH  25  26
HETATM   26  O   UNL     1      43.531 -10.227   9.647  1.00  0.00    -0.342 OA
BRANCH  26  27
HETATM   27  C   UNL     1      42.986 -10.342  10.896  1.00  0.00     0.069 A 
HETATM   28  C   UNL     1      41.794 -11.010  11.186  1.00  0.00     0.043 A 
HETATM   29  C   UNL     1      41.327 -11.084  12.509  1.00  0.00    -0.059 A 
HETATM   30  C   UNL     1      40.069 -11.833  12.836  1.00  0.00     0.048 C 
HETATM   31  C   UNL     1      42.082 -10.503  13.535  1.00  0.00     0.007 A 
HETATM   32  C   UNL     1      43.280  -9.851  13.246  1.00  0.00     0.003 A 
HETATM   33  C   UNL     1      43.733  -9.778  11.930  1.00  0.00     0.037 A 
ENDBRANCH  26  27
ENDBRANCH  25  26
ENDBRANCH  22  25
ENDBRANCH   1  21
TORSDOF 8
ENDMDL
MODEL 2
REMARK VINA RESULT:      -9.0      2.078      3.065
REMARK  8 active torsions:
REMARK  status: ('A' for Active; 'I' for Inactive)
REMARK    1  A    between atoms: C_4  and  O_5 
REMARK    2  A    between atoms: O_5  and  C_6 
REMARK    3  A    between atoms: C_6  and  C_7 
REMARK       I    between atoms: C_7  and  N_8 
REMARK    4  A    between atoms: N_8  and  N_9 
REMARK       I    between atoms: N_9  and  C_10 
REMARK    5  A    between atoms: C_10  and  C_11 
REMARK    6  A    between atoms: C_11  and  C_12 
REMARK    7  A    between atoms: C_12  and  N_13 
REMARK    8  A    between atoms: C_12  and  C_17 
REMARK       I    between atoms: N_13  and  C_14 
REMARK       I    between atoms: C_14  and  N_15 
ROOT
HETATM    1  N   UNL     1      43.081 -15.477   7.111  1.00  0.00    -0.267 N 
HETATM    2  C   UNL     1      43.505 -16.729   6.707  1.00  0.00     0.238 C 
HETATM    3  O   UNL     1      44.631 -17.172   6.936  1.00  0.00    -0.272 OA
HETATM    4  H   UNL     1      42.097 -15.244   7.195  1.00  0.00     0.190 HD
ENDROOT
BRANCH   2   5
HETATM    5  C   UNL     1      42.467 -17.524   5.946  1.00  0.00     0.134 C 
BRANCH   5   6
HETATM    6  C   UNL     1      42.610 -17.359   4.422  1.00  0.00     0.129 C 
BRANCH   6   7
HETATM    7  N   UNL     1      43.429 -16.198   4.094  1.00  0.00    -0.339 N 
HETATM    8  C   UNL     1      42.907 -15.112   3.463  1.00  0.00     0.292 C 
HETATM    9  N   UNL     1      43.839 -14.156   3.228  1.00  0.00    -0.254 NA
HETATM   10  O   UNL     1      41.741 -14.967   3.130  1.00  0.00    -0.254 OA
HETATM   11  H   UNL     1      44.514 -14.006   3.963  1.00  0.00     0.128 HD
HETATM   12  H   UNL     1      43.433 -13.302   2.863  1.00  0.00     0.128 HD
HETATM   13  H   UNL     1      44.426 -16.326   3.993  1.00  0.00     0.164 HD
ENDBRANCH   6   7
BRANCH   6  14
HETATM   14  C   UNL     1      43.202 -18.584   3.725  1.00  0.00    -0.013 A 
HETATM   15  C   UNL     1      42.856 -18.915   2.398  1.00  0.00     0.042 A 
HETATM   16 CL   UNL     1      41.722 -17.989   1.477  1.00  0.00    -0.084 Cl
HETATM   17  C   UNL     1      43.440 -20.013   1.754  1.00  0.00     0.024 A 
HETATM   18  C   UNL     1      44.382 -20.797   2.413  1.00  0.00     0.002 A 
HETATM   19  C   UNL     1      44.751 -20.480   3.716  1.00  0.00     0.001 A 
HETATM   20  C   UNL     1      44.174 -19.382   4.362  1.00  0.00     0.011 A 
ENDBRANCH   6  14
ENDBRANCH   5   6
ENDBRANCH   2   5
BRANCH   1  21
HETATM   21  N   UNL     1      43.961 -14.711   7.886  1.00  0.00    -0.266 N 
HETATM   22  C   UNL     1      44.714 -13.744   7.244  1.00  0.00     0.260 C 
HETATM   23  O   UNL     1      44.806 -13.667   6.018  1.00  0.00    -0.269 OA
HETATM   24  H   UNL     1      43.706 -14.609   8.867  1.00  0.00     0.190 HD
BRANCH  22  25
HETATM   25  C   UNL     1      45.411 -12.780   8.193  1.00  0.00     0.280 C 
BRANCH  25  26
HETATM   26  O   UNL     1      44.867 -12.965   9.497  1.00  0.00    -0.342 OA
BRANCH  26  27
HETATM   27  C   UNL     1      44.140 -11.912   9.980  1.00  0.00     0.069 A 
HETATM   28  C   UNL     1      44.197 -11.439  11.292  1.00  0.00     0.043 A 
HETATM   29  C   UNL     1      43.419 -10.338  11.684  1.00  0.00    -0.059 A 
HETATM   30  C   UNL     1      43.503  -9.798  13.082  1.00  0.00     0.048 C 
HETATM   31  C   UNL     1      42.605  -9.704  10.737  1.00  0.00     0.007 A 
HETATM   32  C   UNL     1      42.561 -10.166   9.423  1.00  0.00     0.003 A 
HETATM   33  C   UNL     1      43.334 -11.263   9.045  1.00  0.00     0.037 A 
ENDBRANCH  26  27
ENDBRANCH  25  26
ENDBRANCH  22  25
ENDBRANCH   1  21
TORSDOF 8
ENDMDL
MODEL 3
REMARK VINA RESULT:      -8.8      3.674      9.930
REMARK  8 active torsions:
REMARK  status: ('A' for Active; 'I' for Inactive)
REMARK    1  A    between atoms: C_4  and  O_5 
REMARK    2  A    between atoms: O_5  and  C_6 
REMARK    3  A    between atoms: C_6  and  C_7 
REMARK       I    between atoms: C_7  and  N_8 
REMARK    4  A    between atoms: N_8  and  N_9 
REMARK       I    between atoms: N_9  and  C_10 
REMARK    5  A    between atoms: C_10  and  C_11 
REMARK    6  A    between atoms: C_11  and  C_12 
REMARK    7  A    between atoms: C_12  and  N_13 
REMARK    8  A    between atoms: C_12  and  C_17 
REMARK       I    between atoms: N_13  and  C_14 
REMARK       I    between atoms: C_14  and  N_15 
ROOT
HETATM    1  N   UNL     1      43.754 -11.386   9.821  1.00  0.00    -0.267 N 
HETATM    2  C   UNL     1      43.970 -11.810  11.118  1.00  0.00     0.238 C 
HETATM    3  O   UNL     1      44.261 -12.969  11.414  1.00  0.00    -0.272 OA
HETATM    4  H   UNL     1      43.821 -10.407   9.557  1.00  0.00     0.190 HD
ENDROOT
BRANCH   2   5
HETATM    5  C   UNL     1      43.815 -10.728  12.163  1.00  0.00     0.134 C 
BRANCH   5   6
HETATM    6  C   UNL     1      42.337 -10.419  12.466  1.00  0.00     0.129 C 
BRANCH   6   7
HETATM    7  N   UNL     1      41.578 -11.645  12.685  1.00  0.00    -0.339 N 
HETATM    8  C   UNL     1      40.222 -11.673  12.579  1.00  0.00     0.292 C 
HETATM    9  N   UNL     1      39.711 -12.900  12.846  1.00  0.00    -0.254 NA
HETATM   10  O   UNL     1      39.506 -10.730  12.279  1.00  0.00    -0.254 OA
HETATM   11  H   UNL     1      40.236 -13.685  12.491  1.00  0.00     0.128 HD
HETATM   12  H   UNL     1      38.716 -12.953  12.658  1.00  0.00     0.128 HD
HETATM   13  H   UNL     1      41.988 -12.368  13.259  1.00  0.00     0.164 HD
ENDBRANCH   6   7
BRANCH   6  14
HETATM   14  C   UNL     1      42.137  -9.501  13.672  1.00  0.00    -0.013 A 
HETATM   15  C   UNL     1      41.736  -8.158  13.517  1.00  0.00     0.042 A 
HETATM   16 CL   UNL     1      41.475  -7.442  11.964  1.00  0.00    -0.084 Cl
HETATM   17  C   UNL     1      41.510  -7.341  14.631  1.00  0.00     0.024 A 
HETATM   18  C   UNL     1      41.672  -7.843  15.919  1.00  0.00     0.002 A 
HETATM   19  C   UNL     1      42.051  -9.170  16.096  1.00  0.00     0.001 A 
HETATM   20  C   UNL     1      42.272  -9.992  14.987  1.00  0.00     0.011 A 
ENDBRANCH   6  14
ENDBRANCH   5   6
ENDBRANCH   2   5
BRANCH   1  21
HETATM   21  N   UNL     1      43.952 -12.313   8.790  1.00  0.00    -0.266 N 
HETATM   22  C   UNL     1      45.211 -12.389   8.221  1.00  0.00     0.260 C 
HETATM   23  O   UNL     1      46.092 -11.553   8.424  1.00  0.00    -0.269 OA
HETATM   24  H   UNL     1      43.336 -13.124   8.806  1.00  0.00     0.190 HD
BRANCH  22  25
HETATM   25  C   UNL     1      45.407 -13.606   7.329  1.00  0.00     0.280 C 
BRANCH  25  26
HETATM   26  O   UNL     1      44.456 -14.597   7.708  1.00  0.00    -0.342 OA
BRANCH  26  27
HETATM   27  C   UNL     1      44.163 -15.522   6.745  1.00  0.00     0.069 A 
HETATM   28  C   UNL     1      44.558 -16.861   6.778  1.00  0.00     0.043 A 
HETATM   29  C   UNL     1      44.191 -17.735   5.743  1.00  0.00    -0.059 A 
HETATM   30  C   UNL     1      44.577 -19.185   5.790  1.00  0.00     0.048 C 
HETATM   31  C   UNL     1      43.403 -17.256   4.689  1.00  0.00     0.007 A 
HETATM   32  C   UNL     1      42.995 -15.923   4.665  1.00  0.00     0.003 A 
HETATM   33  C   UNL     1      43.368 -15.061   5.695  1.00  0.00     0.037 A 
ENDBRANCH  26  27
ENDBRANCH  25  26
ENDBRANCH  22  25
ENDBRANCH   1  21
TORSDOF 8
ENDMDL
MODEL 4
REMARK VINA RESULT:      -8.6      3.461      8.686
REMARK  8 active torsions:
REMARK  status: ('A' for Active; 'I' for Inactive)
REMARK    1  A    between atoms: C_4  and  O_5 
REMARK    2  A    between atoms: O_5  and  C_6 
REMARK    3  A    between atoms: C_6  and  C_7 
REMARK       I    between atoms: C_7  and  N_8 
REMARK    4  A    between atoms: N_8  and  N_9 
REMARK       I    between atoms: N_9  and  C_10 
REMARK    5  A    between atoms: C_10  and  C_11 
REMARK    6  A    between atoms: C_11  and  C_12 
REMARK    7  A    between atoms: C_12  and  N_13 
REMARK    8  A    between atoms: C_12  and  C_17 
REMARK       I    between atoms: N_13  and  C_14 
REMARK       I    between atoms: C_14  and  N_15 
ROOT
HETATM    1  N   UNL     1      40.678 -11.723   7.409  1.00  0.00    -0.267 N 
HETATM    2  C   UNL     1      40.054 -11.136   8.494  1.00  0.00     0.238 C 
HETATM    3  O   UNL     1      38.961 -11.500   8.928  1.00  0.00    -0.272 OA
HETATM    4  H   UNL     1      41.677 -11.635   7.252  1.00  0.00     0.190 HD
ENDROOT
BRANCH   2   5
HETATM    5  C   UNL     1      40.824  -9.990   9.113  1.00  0.00     0.134 C 
BRANCH   5   6
HETATM    6  C   UNL     1      41.551 -10.408  10.404  1.00  0.00     0.129 C 
BRANCH   6   7
HETATM    7  N   UNL     1      40.880 -11.533  11.044  1.00  0.00    -0.339 N 
HETATM    8  C   UNL     1      40.313 -11.419  12.275  1.00  0.00     0.292 C 
HETATM    9  N   UNL     1      39.766 -12.585  12.700  1.00  0.00    -0.254 NA
HETATM   10  O   UNL     1      40.274 -10.406  12.956  1.00  0.00    -0.254 OA
HETATM   11  H   UNL     1      39.286 -13.129  11.999  1.00  0.00     0.128 HD
HETATM   12  H   UNL     1      39.246 -12.476  13.563  1.00  0.00     0.128 HD
HETATM   13  H   UNL     1      41.140 -12.469  10.766  1.00  0.00     0.164 HD
ENDBRANCH   6   7
BRANCH   6  14
HETATM   14  C   UNL     1      43.020 -10.774  10.190  1.00  0.00    -0.013 A 
HETATM   15  C   UNL     1      43.987 -10.557  11.193  1.00  0.00     0.042 A 
HETATM   16 CL   UNL     1      43.597  -9.836  12.716  1.00  0.00    -0.084 Cl
HETATM   17  C   UNL     1      45.320 -10.941  11.003  1.00  0.00     0.024 A 
HETATM   18  C   UNL     1      45.715 -11.552   9.817  1.00  0.00     0.002 A 
HETATM   19  C   UNL     1      44.776 -11.791   8.820  1.00  0.00     0.001 A 
HETATM   20  C   UNL     1      43.442 -11.415   9.007  1.00  0.00     0.011 A 
ENDBRANCH   6  14
ENDBRANCH   5   6
ENDBRANCH   2   5
BRANCH   1  21
HETATM   21  N   UNL     1      40.062 -12.839   6.829  1.00  0.00    -0.266 N 
HETATM   22  C   UNL     1      40.729 -13.486   5.804  1.00  0.00     0.260 C 
HETATM   23  O   UNL     1      41.719 -13.015   5.243  1.00  0.00    -0.269 OA
HETATM   24  H   UNL     1      39.412 -13.343   7.430  1.00  0.00     0.190 HD
BRANCH  22  25
HETATM   25  C   UNL     1      40.130 -14.837   5.441  1.00  0.00     0.280 C 
BRANCH  25  26
HETATM   26  O   UNL     1      40.636 -15.810   6.350  1.00  0.00    -0.342 OA
BRANCH  26  27
HETATM   27  C   UNL     1      41.632 -16.606   5.856  1.00  0.00     0.069 A 
HETATM   28  C   UNL     1      42.865 -16.819   6.476  1.00  0.00     0.043 A 
HETATM   29  C   UNL     1      43.815 -17.671   5.892  1.00  0.00    -0.059 A 
HETATM   30  C   UNL     1      45.127 -17.937   6.571  1.00  0.00     0.048 C 
HETATM   31  C   UNL     1      43.503 -18.325   4.693  1.00  0.00     0.007 A 
HETATM   32  C   UNL     1      42.266 -18.125   4.083  1.00  0.00     0.003 A 
HETATM   33  C   UNL     1      41.330 -17.274   4.669  1.00  0.00     0.037 A 
ENDBRANCH  26  27
ENDBRANCH  25  26
ENDBRANCH  22  25
ENDBRANCH   1  21
TORSDOF 8
ENDMDL
MODEL 5
REMARK VINA RESULT:      -8.6      1.943      2.710
REMARK  8 active torsions:
REMARK  status: ('A' for Active; 'I' for Inactive)
REMARK    1  A    between atoms: C_4  and  O_5 
REMARK    2  A    between atoms: O_5  and  C_6 
REMARK    3  A    between atoms: C_6  and  C_7 
REMARK       I    between atoms: C_7  and  N_8 
REMARK    4  A    between atoms: N_8  and  N_9 
REMARK       I    between atoms: N_9  and  C_10 
REMARK    5  A    between atoms: C_10  and  C_11 
REMARK    6  A    between atoms: C_11  and  C_12 
REMARK    7  A    between atoms: C_12  and  N_13 
REMARK    8  A    between atoms: C_12  and  C_17 
REMARK       I    between atoms: N_13  and  C_14 
REMARK       I    between atoms: C_14  and  N_15 
ROOT
HETATM    1  N   UNL     1      43.890 -14.738   5.455  1.00  0.00    -0.267 N 
HETATM    2  C   UNL     1      43.661 -14.537   4.107  1.00  0.00     0.238 C 
HETATM    3  O   UNL     1      43.784 -13.445   3.552  1.00  0.00    -0.272 OA
HETATM    4  H   UNL     1      44.086 -15.659   5.836  1.00  0.00     0.190 HD
ENDROOT
BRANCH   2   5
HETATM    5  C   UNL     1      43.234 -15.778   3.354  1.00  0.00     0.134 C 
BRANCH   5   6
HETATM    6  C   UNL     1      43.000 -16.977   4.292  1.00  0.00     0.129 C 
BRANCH   6   7
HETATM    7  N   UNL     1      41.614 -17.030   4.741  1.00  0.00    -0.339 N 
HETATM    8  C   UNL     1      41.284 -16.905   6.055  1.00  0.00     0.292 C 
HETATM    9  N   UNL     1      39.948 -17.009   6.262  1.00  0.00    -0.254 NA
HETATM   10  O   UNL     1      42.065 -16.718   6.976  1.00  0.00    -0.254 OA
HETATM   11  H   UNL     1      39.359 -16.564   5.575  1.00  0.00     0.128 HD
HETATM   12  H   UNL     1      39.689 -16.804   7.220  1.00  0.00     0.128 HD
HETATM   13  H   UNL     1      40.940 -17.513   4.163  1.00  0.00     0.164 HD
ENDBRANCH   6   7
BRANCH   6  14
HETATM   14  C   UNL     1      43.361 -18.324   3.667  1.00  0.00    -0.013 A 
HETATM   15  C   UNL     1      42.801 -18.741   2.442  1.00  0.00     0.042 A 
HETATM   16 CL   UNL     1      41.648 -17.785   1.577  1.00  0.00    -0.084 Cl
HETATM   17  C   UNL     1      43.174 -19.956   1.855  1.00  0.00     0.024 A 
HETATM   18  C   UNL     1      44.116 -20.776   2.471  1.00  0.00     0.002 A 
HETATM   19  C   UNL     1      44.694 -20.377   3.672  1.00  0.00     0.001 A 
HETATM   20  C   UNL     1      44.328 -19.162   4.259  1.00  0.00     0.011 A 
ENDBRANCH   6  14
ENDBRANCH   5   6
ENDBRANCH   2   5
BRANCH   1  21
HETATM   21  N   UNL     1      44.360 -13.652   6.205  1.00  0.00    -0.266 N 
HETATM   22  C   UNL     1      44.651 -13.865   7.540  1.00  0.00     0.260 C 
HETATM   23  O   UNL     1      44.324 -14.887   8.145  1.00  0.00    -0.269 OA
HETATM   24  H   UNL     1      44.842 -12.929   5.674  1.00  0.00     0.190 HD
BRANCH  22  25
HETATM   25  C   UNL     1      45.420 -12.724   8.189  1.00  0.00     0.280 C 
BRANCH  25  26
HETATM   26  O   UNL     1      45.172 -12.757   9.592  1.00  0.00    -0.342 OA
BRANCH  26  27
HETATM   27  C   UNL     1      44.335 -11.781  10.058  1.00  0.00     0.069 A 
HETATM   28  C   UNL     1      44.344 -11.279  11.361  1.00  0.00     0.043 A 
HETATM   29  C   UNL     1      43.451 -10.262  11.735  1.00  0.00    -0.059 A 
HETATM   30  C   UNL     1      43.480  -9.689  13.122  1.00  0.00     0.048 C 
HETATM   31  C   UNL     1      42.568  -9.740  10.781  1.00  0.00     0.007 A 
HETATM   32  C   UNL     1      42.571 -10.231   9.476  1.00  0.00     0.003 A 
HETATM   33  C   UNL     1      43.459 -11.244   9.115  1.00  0.00     0.037 A 
ENDBRANCH  26  27
ENDBRANCH  25  26
ENDBRANCH  22  25
ENDBRANCH   1  21
TORSDOF 8
ENDMDL
MODEL 6
REMARK VINA RESULT:      -8.5      6.268     10.003
REMARK  8 active torsions:
REMARK  status: ('A' for Active; 'I' for Inactive)
REMARK    1  A    between atoms: C_4  and  O_5 
REMARK    2  A    between atoms: O_5  and  C_6 
REMARK    3  A    between atoms: C_6  and  C_7 
REMARK       I    between atoms: C_7  and  N_8 
REMARK    4  A    between atoms: N_8  and  N_9 
REMARK       I    between atoms: N_9  and  C_10 
REMARK    5  A    between atoms: C_10  and  C_11 
REMARK    6  A    between atoms: C_11  and  C_12 
REMARK    7  A    between atoms: C_12  and  N_13 
REMARK    8  A    between atoms: C_12  and  C_17 
REMARK       I    between atoms: N_13  and  C_14 
REMARK       I    between atoms: C_14  and  N_15 
ROOT
HETATM    1  N   UNL     1      42.494 -15.359   1.003  1.00  0.00    -0.267 N 
HETATM    2  C   UNL     1      42.502 -16.741   1.036  1.00  0.00     0.238 C 
HETATM    3  O   UNL     1      41.545 -17.434   0.691  1.00  0.00    -0.272 OA
HETATM    4  H   UNL     1      43.353 -14.817   0.989  1.00  0.00     0.190 HD
ENDROOT
BRANCH   2   5
HETATM    5  C   UNL     1      43.793 -17.346   1.543  1.00  0.00     0.134 C 
BRANCH   5   6
HETATM    6  C   UNL     1      43.621 -18.015   2.919  1.00  0.00     0.129 C 
BRANCH   6   7
HETATM    7  N   UNL     1      42.265 -17.836   3.424  1.00  0.00    -0.339 N 
HETATM    8  C   UNL     1      42.015 -17.136   4.564  1.00  0.00     0.292 C 
HETATM    9  N   UNL     1      40.695 -17.111   4.873  1.00  0.00    -0.254 NA
HETATM   10  O   UNL     1      42.849 -16.577   5.260  1.00  0.00    -0.254 OA
HETATM   11  H   UNL     1      40.061 -17.004   4.095  1.00  0.00     0.128 HD
HETATM   12  H   UNL     1      40.493 -16.498   5.655  1.00  0.00     0.128 HD
HETATM   13  H   UNL     1      41.561 -18.511   3.161  1.00  0.00     0.164 HD
ENDBRANCH   6   7
BRANCH   6  14
HETATM   14  C   UNL     1      43.948 -19.508   2.920  1.00  0.00    -0.013 A 
HETATM   15  C   UNL     1      44.558 -20.128   4.031  1.00  0.00     0.042 A 
HETATM   16 CL   UNL     1      45.009 -19.249   5.450  1.00  0.00    -0.084 Cl
HETATM   17  C   UNL     1      44.809 -21.505   4.039  1.00  0.00     0.024 A 
HETATM   18  C   UNL     1      44.454 -22.293   2.948  1.00  0.00     0.002 A 
HETATM   19  C   UNL     1      43.837 -21.707   1.848  1.00  0.00     0.001 A 
HETATM   20  C   UNL     1      43.579 -20.332   1.838  1.00  0.00     0.011 A 
ENDBRANCH   6  14
ENDBRANCH   5   6
ENDBRANCH   2   5
BRANCH   1  21
HETATM   21  N   UNL     1      41.361 -14.727   0.476  1.00  0.00    -0.266 N 
HETATM   22  C   UNL     1      41.439 -13.370   0.217  1.00  0.00     0.260 C 
HETATM   23  O   UNL     1      42.364 -12.662   0.615  1.00  0.00    -0.269 OA
HETATM   24  H   UNL     1      40.734 -15.326  -0.058  1.00  0.00     0.190 HD
BRANCH  22  25
HETATM   25  C   UNL     1      40.280 -12.838  -0.614  1.00  0.00     0.280 C 
BRANCH  25  26
HETATM   26  O   UNL     1      40.606 -13.000  -1.992  1.00  0.00    -0.342 OA
BRANCH  26  27
HETATM   27  C   UNL     1      39.857 -13.926  -2.663  1.00  0.00     0.069 A 
HETATM   28  C   UNL     1      38.554 -13.717  -3.120  1.00  0.00     0.043 A 
HETATM   29  C   UNL     1      37.875 -14.731  -3.815  1.00  0.00    -0.059 A 
HETATM   30  C   UNL     1      36.490 -14.502  -4.345  1.00  0.00     0.048 C 
HETATM   31  C   UNL     1      38.528 -15.945  -4.065  1.00  0.00     0.007 A 
HETATM   32  C   UNL     1      39.834 -16.147  -3.622  1.00  0.00     0.003 A 
HETATM   33  C   UNL     1      40.498 -15.136  -2.929  1.00  0.00     0.037 A 
ENDBRANCH  26  27
ENDBRANCH  25  26
ENDBRANCH  22  25
ENDBRANCH   1  21
TORSDOF 8
ENDMDL
MODEL 7
REMARK VINA RESULT:      -8.4      7.678     10.718
REMARK  8 active torsions:
REMARK  status: ('A' for Active; 'I' for Inactive)
REMARK    1  A    between atoms: C_4  and  O_5 
REMARK    2  A    between atoms: O_5  and  C_6 
REMARK    3  A    between atoms: C_6  and  C_7 
REMARK       I    between atoms: C_7  and  N_8 
REMARK    4  A    between atoms: N_8  and  N_9 
REMARK       I    between atoms: N_9  and  C_10 
REMARK    5  A    between atoms: C_10  and  C_11 
REMARK    6  A    between atoms: C_11  and  C_12 
REMARK    7  A    between atoms: C_12  and  N_13 
REMARK    8  A    between atoms: C_12  and  C_17 
REMARK       I    between atoms: N_13  and  C_14 
REMARK       I    between atoms: C_14  and  N_15 
ROOT
HETATM    1  N   UNL     1      40.014 -14.893  -0.198  1.00  0.00    -0.267 N 
HETATM    2  C   UNL     1      38.913 -14.063  -0.292  1.00  0.00     0.238 C 
HETATM    3  O   UNL     1      37.959 -14.110   0.485  1.00  0.00    -0.272 OA
HETATM    4  H   UNL     1      40.904 -14.655  -0.626  1.00  0.00     0.190 HD
ENDROOT
BRANCH   2   5
HETATM    5  C   UNL     1      38.967 -13.080  -1.441  1.00  0.00     0.134 C 
BRANCH   5   6
HETATM    6  C   UNL     1      40.014 -13.478  -2.498  1.00  0.00     0.129 C 
BRANCH   6   7
HETATM    7  N   UNL     1      39.389 -14.163  -3.624  1.00  0.00    -0.339 N 
HETATM    8  C   UNL     1      39.548 -15.499  -3.823  1.00  0.00     0.292 C 
HETATM    9  N   UNL     1      38.909 -15.933  -4.937  1.00  0.00    -0.254 NA
HETATM   10  O   UNL     1      40.181 -16.261  -3.108  1.00  0.00    -0.254 OA
HETATM   11  H   UNL     1      38.003 -15.526  -5.114  1.00  0.00     0.128 HD
HETATM   12  H   UNL     1      38.930 -16.942  -5.026  1.00  0.00     0.128 HD
HETATM   13  H   UNL     1      39.153 -13.622  -4.444  1.00  0.00     0.164 HD
ENDBRANCH   6   7
BRANCH   6  14
HETATM   14  C   UNL     1      40.822 -12.297  -3.035  1.00  0.00    -0.013 A 
HETATM   15  C   UNL     1      41.892 -11.743  -2.301  1.00  0.00     0.042 A 
HETATM   16 CL   UNL     1      42.346 -12.329  -0.739  1.00  0.00    -0.084 Cl
HETATM   17  C   UNL     1      42.655 -10.692  -2.824  1.00  0.00     0.024 A 
HETATM   18  C   UNL     1      42.375 -10.176  -4.086  1.00  0.00     0.002 A 
HETATM   19  C   UNL     1      41.335 -10.718  -4.834  1.00  0.00     0.001 A 
HETATM   20  C   UNL     1      40.573 -11.771  -4.319  1.00  0.00     0.011 A 
ENDBRANCH   6  14
ENDBRANCH   5   6
ENDBRANCH   2   5
BRANCH   1  21
HETATM   21  N   UNL     1      40.071 -15.779   0.885  1.00  0.00    -0.266 N 
HETATM   22  C   UNL     1      41.179 -16.601   0.990  1.00  0.00     0.260 C 
HETATM   23  O   UNL     1      42.001 -16.741   0.084  1.00  0.00    -0.269 OA
HETATM   24  H   UNL     1      39.552 -15.493   1.713  1.00  0.00     0.190 HD
BRANCH  22  25
HETATM   25  C   UNL     1      41.292 -17.307   2.333  1.00  0.00     0.280 C 
BRANCH  25  26
HETATM   26  O   UNL     1      42.641 -17.205   2.781  1.00  0.00    -0.342 OA
BRANCH  26  27
HETATM   27  C   UNL     1      43.265 -18.397   3.024  1.00  0.00     0.069 A 
HETATM   28  C   UNL     1      43.296 -19.476   2.139  1.00  0.00     0.043 A 
HETATM   29  C   UNL     1      43.981 -20.654   2.479  1.00  0.00    -0.059 A 
HETATM   30  C   UNL     1      44.053 -21.803   1.517  1.00  0.00     0.048 C 
HETATM   31  C   UNL     1      44.654 -20.724   3.705  1.00  0.00     0.007 A 
HETATM   32  C   UNL     1      44.636 -19.640   4.582  1.00  0.00     0.003 A 
HETATM   33  C   UNL     1      43.950 -18.477   4.237  1.00  0.00     0.037 A 
ENDBRANCH  26  27
ENDBRANCH  25  26
ENDBRANCH  22  25
ENDBRANCH   1  21
TORSDOF 8
ENDMDL
MODEL 8
REMARK VINA RESULT:      -8.3      2.359      3.468
REMARK  8 active torsions:
REMARK  status: ('A' for Active; 'I' for Inactive)
REMARK    1  A    between atoms: C_4  and  O_5 
REMARK    2  A    between atoms: O_5  and  C_6 
REMARK    3  A    between atoms: C_6  and  C_7 
REMARK       I    between atoms: C_7  and  N_8 
REMARK    4  A    between atoms: N_8  and  N_9 
REMARK       I    between atoms: N_9  and  C_10 
REMARK    5  A    between atoms: C_10  and  C_11 
REMARK    6  A    between atoms: C_11  and  C_12 
REMARK    7  A    between atoms: C_12  and  N_13 
REMARK    8  A    between atoms: C_12  and  C_17 
REMARK       I    between atoms: N_13  and  C_14 
REMARK       I    between atoms: C_14  and  N_15 
ROOT
HETATM    1  N   UNL     1      43.372 -15.049   6.730  1.00  0.00    -0.267 N 
HETATM    2  C   UNL     1      42.943 -16.338   6.982  1.00  0.00     0.238 C 
HETATM    3  O   UNL     1      43.122 -16.916   8.055  1.00  0.00    -0.272 OA
HETATM    4  H   UNL     1      42.966 -14.483   5.990  1.00  0.00     0.190 HD
ENDROOT
BRANCH   2   5
HETATM    5  C   UNL     1      42.230 -16.998   5.823  1.00  0.00     0.134 C 
BRANCH   5   6
HETATM    6  C   UNL     1      43.163 -17.225   4.619  1.00  0.00     0.129 C 
BRANCH   6   7
HETATM    7  N   UNL     1      43.597 -18.615   4.547  1.00  0.00    -0.339 N 
HETATM    8  C   UNL     1      44.709 -19.051   5.199  1.00  0.00     0.292 C 
HETATM    9  N   UNL     1      44.952 -20.367   4.981  1.00  0.00    -0.254 NA
HETATM   10  O   UNL     1      45.433 -18.373   5.912  1.00  0.00    -0.254 OA
HETATM   11  H   UNL     1      44.142 -20.968   4.959  1.00  0.00     0.128 HD
HETATM   12  H   UNL     1      45.710 -20.720   5.553  1.00  0.00     0.128 HD
HETATM   13  H   UNL     1      43.313 -19.167   3.749  1.00  0.00     0.164 HD
ENDBRANCH   6   7
BRANCH   6  14
HETATM   14  C   UNL     1      42.539 -16.840   3.278  1.00  0.00    -0.013 A 
HETATM   15  C   UNL     1      42.762 -15.573   2.699  1.00  0.00     0.042 A 
HETATM   16 CL   UNL     1      43.723 -14.359   3.469  1.00  0.00    -0.084 Cl
HETATM   17  C   UNL     1      42.224 -15.248   1.448  1.00  0.00     0.024 A 
HETATM   18  C   UNL     1      41.460 -16.177   0.747  1.00  0.00     0.002 A 
HETATM   19  C   UNL     1      41.240 -17.438   1.291  1.00  0.00     0.001 A 
HETATM   20  C   UNL     1      41.780 -17.769   2.537  1.00  0.00     0.011 A 
ENDBRANCH   6  14
ENDBRANCH   5   6
ENDBRANCH   2   5
BRANCH   1  21
HETATM   21  N   UNL     1      43.974 -14.345   7.780  1.00  0.00    -0.266 N 
HETATM   22  C   UNL     1      45.052 -13.531   7.479  1.00  0.00     0.260 C 
HETATM   23  O   UNL     1      45.631 -13.556   6.393  1.00  0.00    -0.269 OA
HETATM   24  H   UNL     1      43.369 -14.140   8.573  1.00  0.00     0.190 HD
BRANCH  22  25
HETATM   25  C   UNL     1      45.448 -12.596   8.612  1.00  0.00     0.280 C 
BRANCH  25  26
HETATM   26  O   UNL     1      44.607 -12.867   9.730  1.00  0.00    -0.342 OA
BRANCH  26  27
HETATM   27  C   UNL     1      43.935 -11.786  10.230  1.00  0.00     0.069 A 
HETATM   28  C   UNL     1      44.042 -11.316  11.540  1.00  0.00     0.043 A 
HETATM   29  C   UNL     1      43.319 -10.184  11.950  1.00  0.00    -0.059 A 
HETATM   30  C   UNL     1      43.459  -9.649  13.345  1.00  0.00     0.048 C 
HETATM   31  C   UNL     1      42.510  -9.516  11.022  1.00  0.00     0.007 A 
HETATM   32  C   UNL     1      42.416  -9.976   9.709  1.00  0.00     0.003 A 
HETATM   33  C   UNL     1      43.134 -11.104   9.314  1.00  0.00     0.037 A 
ENDBRANCH  26  27
ENDBRANCH  25  26
ENDBRANCH  22  25
ENDBRANCH   1  21
TORSDOF 8
ENDMDL
MODEL 9
REMARK VINA RESULT:      -8.2      6.250      8.981
REMARK  8 active torsions:
REMARK  status: ('A' for Active; 'I' for Inactive)
REMARK    1  A    between atoms: C_4  and  O_5 
REMARK    2  A    between atoms: O_5  and  C_6 
REMARK    3  A    between atoms: C_6  and  C_7 
REMARK       I    between atoms: C_7  and  N_8 
REMARK    4  A    between atoms: N_8  and  N_9 
REMARK       I    between atoms: N_9  and  C_10 
REMARK    5  A    between atoms: C_10  and  C_11 
REMARK    6  A    between atoms: C_11  and  C_12 
REMARK    7  A    between atoms: C_12  and  N_13 
REMARK    8  A    between atoms: C_12  and  C_17 
REMARK       I    between atoms: N_13  and  C_14 
REMARK       I    between atoms: C_14  and  N_15 
ROOT
HETATM    1  N   UNL     1      40.054 -15.848   3.543  1.00  0.00    -0.267 N 
HETATM    2  C   UNL     1      39.970 -15.992   2.172  1.00  0.00     0.238 C 
HETATM    3  O   UNL     1      40.591 -16.846   1.539  1.00  0.00    -0.272 OA
HETATM    4  H   UNL     1      39.335 -15.372   4.079  1.00  0.00     0.190 HD
ENDROOT
BRANCH   2   5
HETATM    5  C   UNL     1      39.047 -15.003   1.495  1.00  0.00     0.134 C 
BRANCH   5   6
HETATM    6  C   UNL     1      39.819 -13.959   0.667  1.00  0.00     0.129 C 
BRANCH   6   7
HETATM    7  N   UNL     1      41.191 -13.823   1.142  1.00  0.00    -0.339 N 
HETATM    8  C   UNL     1      41.542 -12.868   2.045  1.00  0.00     0.292 C 
HETATM    9  N   UNL     1      42.867 -12.894   2.334  1.00  0.00    -0.254 NA
HETATM   10  O   UNL     1      40.788 -12.060   2.565  1.00  0.00    -0.254 OA
HETATM   11  H   UNL     1      43.283 -13.810   2.417  1.00  0.00     0.128 HD
HETATM   12  H   UNL     1      43.111 -12.263   3.087  1.00  0.00     0.128 HD
HETATM   13  H   UNL     1      41.939 -14.169   0.557  1.00  0.00     0.164 HD
ENDBRANCH   6   7
BRANCH   6  14
HETATM   14  C   UNL     1      39.851 -14.264  -0.830  1.00  0.00    -0.013 A 
HETATM   15  C   UNL     1      38.896 -13.718  -1.713  1.00  0.00     0.042 A 
HETATM   16 CL   UNL     1      37.608 -12.698  -1.171  1.00  0.00    -0.084 Cl
HETATM   17  C   UNL     1      38.962 -13.967  -3.089  1.00  0.00     0.024 A 
HETATM   18  C   UNL     1      39.981 -14.757  -3.614  1.00  0.00     0.002 A 
HETATM   19  C   UNL     1      40.944 -15.292  -2.765  1.00  0.00     0.001 A 
HETATM   20  C   UNL     1      40.885 -15.042  -1.390  1.00  0.00     0.011 A 
ENDBRANCH   6  14
ENDBRANCH   5   6
ENDBRANCH   2   5
BRANCH   1  21
HETATM   21  N   UNL     1      40.831 -16.775   4.249  1.00  0.00    -0.266 N 
HETATM   22  C   UNL     1      42.039 -16.345   4.768  1.00  0.00     0.260 C 
HETATM   23  O   UNL     1      42.555 -15.268   4.467  1.00  0.00    -0.269 OA
HETATM   24  H   UNL     1      40.315 -17.536   4.688  1.00  0.00     0.190 HD
BRANCH  22  25
HETATM   25  C   UNL     1      42.665 -17.322   5.753  1.00  0.00     0.280 C 
BRANCH  25  26
HETATM   26  O   UNL     1      44.015 -17.550   5.360  1.00  0.00    -0.342 OA
BRANCH  26  27
HETATM   27  C   UNL     1      44.237 -18.723   4.691  1.00  0.00     0.069 A 
HETATM   28  C   UNL     1      44.598 -19.929   5.296  1.00  0.00     0.043 A 
HETATM   29  C   UNL     1      44.787 -21.083   4.518  1.00  0.00    -0.059 A 
HETATM   30  C   UNL     1      45.137 -22.392   5.163  1.00  0.00     0.048 C 
HETATM   31  C   UNL     1      44.585 -21.017   3.134  1.00  0.00     0.007 A 
HETATM   32  C   UNL     1      44.208 -19.816   2.534  1.00  0.00     0.003 A 
HETATM   33  C   UNL     1      44.027 -18.675   3.313  1.00  0.00     0.037 A 
ENDBRANCH  26  27
ENDBRANCH  25  26
ENDBRANCH  22  25
ENDBRANCH   1  21
TORSDOF 8
ENDMDL
MODEL 10
REMARK VINA RESULT:      -8.1      4.745      8.665
REMARK  8 active torsions:
REMARK  status: ('A' for Active; 'I' for Inactive)
REMARK    1  A    between atoms: C_4  and  O_5 
REMARK    2  A    between atoms: O_5  and  C_6 
REMARK    3  A    between atoms: C_6  and  C_7 
REMARK       I    between atoms: C_7  and  N_8 
REMARK    4  A    between atoms: N_8  and  N_9 
REMARK       I    between atoms: N_9  and  C_10 
REMARK    5  A    between atoms: C_10  and  C_11 
REMARK    6  A    between atoms: C_11  and  C_12 
REMARK    7  A    between atoms: C_12  and  N_13 
REMARK    8  A    between atoms: C_12  and  C_17 
REMARK       I    between atoms: N_13  and  C_14 
REMARK       I    between atoms: C_14  and  N_15 
ROOT
HETATM    1  N   UNL     1      41.271 -14.805   3.971  1.00  0.00    -0.267 N 
HETATM    2  C   UNL     1      40.940 -16.074   3.538  1.00  0.00     0.238 C 
HETATM    3  O   UNL     1      40.337 -16.298   2.488  1.00  0.00    -0.272 OA
HETATM    4  H   UNL     1      42.011 -14.644   4.649  1.00  0.00     0.190 HD
ENDROOT
BRANCH   2   5
HETATM    5  C   UNL     1      41.375 -17.186   4.468  1.00  0.00     0.134 C 
BRANCH   5   6
HETATM    6  C   UNL     1      42.897 -17.185   4.704  1.00  0.00     0.129 C 
BRANCH   6   7
HETATM    7  N   UNL     1      43.213 -16.843   6.086  1.00  0.00    -0.339 N 
HETATM    8  C   UNL     1      43.625 -15.594   6.436  1.00  0.00     0.292 C 
HETATM    9  N   UNL     1      43.892 -15.492   7.761  1.00  0.00    -0.254 NA
HETATM   10  O   UNL     1      43.752 -14.643   5.680  1.00  0.00    -0.254 OA
HETATM   11  H   UNL     1      43.259 -15.980   8.378  1.00  0.00     0.128 HD
HETATM   12  H   UNL     1      44.088 -14.539   8.043  1.00  0.00     0.128 HD
HETATM   13  H   UNL     1      43.483 -17.586   6.715  1.00  0.00     0.164 HD
ENDBRANCH   6   7
BRANCH   6  14
HETATM   14  C   UNL     1      43.571 -18.514   4.365  1.00  0.00    -0.013 A 
HETATM   15  C   UNL     1      43.903 -18.854   3.037  1.00  0.00     0.042 A 
HETATM   16 CL   UNL     1      43.547 -17.818   1.699  1.00  0.00    -0.084 Cl
HETATM   17  C   UNL     1      44.563 -20.054   2.744  1.00  0.00     0.024 A 
HETATM   18  C   UNL     1      44.910 -20.934   3.765  1.00  0.00     0.002 A 
HETATM   19  C   UNL     1      44.608 -20.612   5.084  1.00  0.00     0.001 A 
HETATM   20  C   UNL     1      43.954 -19.413   5.382  1.00  0.00     0.011 A 
ENDBRANCH   6  14
ENDBRANCH   5   6
ENDBRANCH   2   5
BRANCH   1  21
HETATM   21  N   UNL     1      40.968 -13.729   3.128  1.00  0.00    -0.266 N 
HETATM   22  C   UNL     1      42.008 -13.134   2.437  1.00  0.00     0.260 C 
HETATM   23  O   UNL     1      43.194 -13.361   2.682  1.00  0.00    -0.269 OA
HETATM   24  H   UNL     1      40.019 -13.717   2.757  1.00  0.00     0.190 HD
BRANCH  22  25
HETATM   25  C   UNL     1      41.551 -12.182   1.341  1.00  0.00     0.280 C 
BRANCH  25  26
HETATM   26  O   UNL     1      42.623 -12.017   0.417  1.00  0.00    -0.342 OA
BRANCH  26  27
HETATM   27  C   UNL     1      42.355 -12.419  -0.862  1.00  0.00     0.069 A 
HETATM   28  C   UNL     1      41.797 -13.651  -1.210  1.00  0.00     0.043 A 
HETATM   29  C   UNL     1      41.547 -13.961  -2.557  1.00  0.00    -0.059 A 
HETATM   30  C   UNL     1      40.910 -15.266  -2.937  1.00  0.00     0.048 C 
HETATM   31  C   UNL     1      41.840 -13.012  -3.544  1.00  0.00     0.007 A 
HETATM   32  C   UNL     1      42.382 -11.777  -3.194  1.00  0.00     0.003 A 
HETATM   33  C   UNL     1      42.631 -11.479  -1.855  1.00  0.00     0.037 A 
ENDBRANCH  26  27
ENDBRANCH  25  26
ENDBRANCH  22  25
ENDBRANCH   1  21
TORSDOF 8
ENDMDL
