MODEL 1
REMARK VINA RESULT:      -8.6      0.000      0.000
REMARK  9 active torsions:
REMARK  status: ('A' for Active; 'I' for Inactive)
REMARK    1  A    between atoms: C_2  and  N_3 
REMARK    2  A    between atoms: C_4  and  S_5 
REMARK    3  A    between atoms: S_5  and  C_6 
REMARK    4  A    between atoms: C_6  and  C_7 
REMARK       I    between atoms: C_7  and  N_8 
REMARK    5  A    between atoms: N_8  and  C_9 
REMARK    6  A    between atoms: C_9  and  C_10 
REMARK    7  A    between atoms: C_10  and  O_11 
REMARK    8  A    between atoms: O_11  and  C_12 
REMARK    9  A    between atoms: C_22  and  C_23 
ROOT
HETATM    1  C   UNL     1      43.108 -13.716   3.889  1.00  0.00     0.185 C 
ENDROOT
BRANCH   1   2
HETATM    2  S   UNL     1      41.754 -14.853   3.476  1.00  0.00    -0.081 SA
BRANCH   2   3
HETATM    3  C   UNL     1      42.680 -16.192   2.892  1.00  0.00     0.192 A 
HETATM    4  N   UNL     1      42.558 -17.481   3.341  1.00  0.00    -0.308 N 
HETATM    5  C   UNL     1      43.523 -18.201   2.659  1.00  0.00     0.164 A 
HETATM    6  N   UNL     1      44.157 -17.374   1.844  1.00  0.00    -0.128 NA
HETATM    7  N   UNL     1      43.618 -16.122   1.979  1.00  0.00    -0.122 NA
BRANCH   4   8
HETATM    8  C   UNL     1      41.699 -17.957   4.406  1.00  0.00     0.128 C 
HETATM    9  C   UNL     1      42.275 -17.704   5.790  1.00  0.00     0.027 C 
ENDBRANCH   4   8
BRANCH   5  10
HETATM   10  C   UNL     1      43.871 -19.608   2.846  1.00  0.00     0.012 A 
HETATM   11  C   UNL     1      44.532 -19.996   4.020  1.00  0.00     0.015 A 
HETATM   12  C   UNL     1      44.888 -21.329   4.232  1.00  0.00     0.001 A 
HETATM   13  C   UNL     1      44.595 -22.289   3.265  1.00  0.00     0.000 A 
HETATM   14  C   UNL     1      43.958 -21.913   2.084  1.00  0.00     0.001 A 
HETATM   15  C   UNL     1      43.603 -20.577   1.872  1.00  0.00     0.015 A 
ENDBRANCH   5  10
ENDBRANCH   2   3
ENDBRANCH   1   2
BRANCH   1  16
HETATM   16  C   UNL     1      43.202 -13.542   5.393  1.00  0.00     0.227 C 
HETATM   17  N   UNL     1      44.352 -14.052   5.962  1.00  0.00    -0.358 N 
HETATM   18  H   UNL     1      45.020 -14.539   5.377  1.00  0.00     0.162 HD
HETATM   19  O   UNL     1      42.320 -12.997   6.054  1.00  0.00    -0.273 OA
BRANCH  17  20
HETATM   20  C   UNL     1      44.518 -14.140   7.401  1.00  0.00     0.149 C 
BRANCH  20  21
HETATM   21  C   UNL     1      45.284 -12.974   8.028  1.00  0.00     0.195 C 
BRANCH  21  22
HETATM   22  O   UNL     1      44.999 -12.977   9.430  1.00  0.00    -0.350 OA
BRANCH  22  23
HETATM   23  C   UNL     1      44.257 -11.940   9.922  1.00  0.00     0.069 A 
HETATM   24  C   UNL     1      44.276 -11.465  11.236  1.00  0.00     0.043 A 
HETATM   25  C   UNL     1      43.466 -10.382  11.613  1.00  0.00    -0.059 A 
HETATM   26  C   UNL     1      43.474  -9.870  13.024  1.00  0.00     0.048 C 
HETATM   27  C   UNL     1      42.625  -9.789  10.664  1.00  0.00     0.007 A 
HETATM   28  C   UNL     1      42.598 -10.264   9.355  1.00  0.00     0.003 A 
HETATM   29  C   UNL     1      43.411 -11.336   8.988  1.00  0.00     0.037 A 
ENDBRANCH  22  23
ENDBRANCH  21  22
ENDBRANCH  20  21
ENDBRANCH  17  20
ENDBRANCH   1  16
TORSDOF 9
ENDMDL
MODEL 2
REMARK VINA RESULT:      -8.4      1.863      2.629
REMARK  9 active torsions:
REMARK  status: ('A' for Active; 'I' for Inactive)
REMARK    1  A    between atoms: C_2  and  N_3 
REMARK    2  A    between atoms: C_4  and  S_5 
REMARK    3  A    between atoms: S_5  and  C_6 
REMARK    4  A    between atoms: C_6  and  C_7 
REMARK       I    between atoms: C_7  and  N_8 
REMARK    5  A    between atoms: N_8  and  C_9 
REMARK    6  A    between atoms: C_9  and  C_10 
REMARK    7  A    between atoms: C_10  and  O_11 
REMARK    8  A    between atoms: O_11  and  C_12 
REMARK    9  A    between atoms: C_22  and  C_23 
ROOT
HETATM    1  C   UNL     1      43.512 -14.704   6.193  1.00  0.00     0.185 C 
ENDROOT
BRANCH   1   2
HETATM    2  S   UNL     1      43.096 -16.164   7.188  1.00  0.00    -0.081 SA
BRANCH   2   3
HETATM    3  C   UNL     1      43.986 -17.362   6.312  1.00  0.00     0.192 A 
HETATM    4  N   UNL     1      43.466 -18.145   5.314  1.00  0.00    -0.308 N 
HETATM    5  C   UNL     1      44.492 -18.997   4.944  1.00  0.00     0.164 A 
HETATM    6  N   UNL     1      45.554 -18.708   5.677  1.00  0.00    -0.128 NA
HETATM    7  N   UNL     1      45.241 -17.676   6.520  1.00  0.00    -0.122 NA
BRANCH   4   8
HETATM    8  C   UNL     1      42.095 -18.169   4.848  1.00  0.00     0.128 C 
HETATM    9  C   UNL     1      41.816 -17.133   3.771  1.00  0.00     0.027 C 
ENDBRANCH   4   8
BRANCH   5  10
HETATM   10  C   UNL     1      44.423 -20.094   3.982  1.00  0.00     0.012 A 
HETATM   11  C   UNL     1      44.008 -19.824   2.669  1.00  0.00     0.015 A 
HETATM   12  C   UNL     1      43.922 -20.847   1.723  1.00  0.00     0.001 A 
HETATM   13  C   UNL     1      44.240 -22.155   2.083  1.00  0.00     0.000 A 
HETATM   14  C   UNL     1      44.632 -22.440   3.389  1.00  0.00     0.001 A 
HETATM   15  C   UNL     1      44.717 -21.416   4.336  1.00  0.00     0.015 A 
ENDBRANCH   5  10
ENDBRANCH   2   3
ENDBRANCH   1   2
BRANCH   1  16
HETATM   16  C   UNL     1      44.642 -13.931   6.849  1.00  0.00     0.227 C 
HETATM   17  N   UNL     1      44.382 -13.518   8.141  1.00  0.00    -0.358 N 
HETATM   18  H   UNL     1      43.473 -13.701   8.546  1.00  0.00     0.162 HD
HETATM   19  O   UNL     1      45.699 -13.687   6.274  1.00  0.00    -0.273 OA
BRANCH  17  20
HETATM   20  C   UNL     1      45.271 -12.612   8.845  1.00  0.00     0.149 C 
BRANCH  20  21
HETATM   21  C   UNL     1      44.585 -11.387   9.453  1.00  0.00     0.195 C 
BRANCH  21  22
HETATM   22  O   UNL     1      43.712 -11.853  10.486  1.00  0.00    -0.350 OA
BRANCH  22  23
HETATM   23  C   UNL     1      43.142 -10.912  11.298  1.00  0.00     0.069 A 
HETATM   24  C   UNL     1      43.062 -10.970  12.692  1.00  0.00     0.043 A 
HETATM   25  C   UNL     1      42.454  -9.929  13.413  1.00  0.00    -0.059 A 
HETATM   26  C   UNL     1      42.356  -9.984  14.909  1.00  0.00     0.048 C 
HETATM   27  C   UNL     1      41.914  -8.838  12.722  1.00  0.00     0.007 A 
HETATM   28  C   UNL     1      41.986  -8.781  11.332  1.00  0.00     0.003 A 
HETATM   29  C   UNL     1      42.597  -9.816  10.626  1.00  0.00     0.037 A 
ENDBRANCH  22  23
ENDBRANCH  21  22
ENDBRANCH  20  21
ENDBRANCH  17  20
ENDBRANCH   1  16
TORSDOF 9
ENDMDL
MODEL 3
REMARK VINA RESULT:      -8.4      1.532      2.041
REMARK  9 active torsions:
REMARK  status: ('A' for Active; 'I' for Inactive)
REMARK    1  A    between atoms: C_2  and  N_3 
REMARK    2  A    between atoms: C_4  and  S_5 
REMARK    3  A    between atoms: S_5  and  C_6 
REMARK    4  A    between atoms: C_6  and  C_7 
REMARK       I    between atoms: C_7  and  N_8 
REMARK    5  A    between atoms: N_8  and  C_9 
REMARK    6  A    between atoms: C_9  and  C_10 
REMARK    7  A    between atoms: C_10  and  O_11 
REMARK    8  A    between atoms: O_11  and  C_12 
REMARK    9  A    between atoms: C_22  and  C_23 
ROOT
HETATM    1  C   UNL     1      43.064 -13.445   5.607  1.00  0.00     0.185 C 
ENDROOT
BRANCH   1   2
HETATM    2  S   UNL     1      41.763 -14.708   5.520  1.00  0.00    -0.081 SA
BRANCH   2   3
HETATM    3  C   UNL     1      42.499 -15.792   4.391  1.00  0.00     0.192 A 
HETATM    4  N   UNL     1      42.501 -17.157   4.508  1.00  0.00    -0.308 N 
HETATM    5  C   UNL     1      43.249 -17.616   3.437  1.00  0.00     0.164 A 
HETATM    6  N   UNL     1      43.642 -16.571   2.729  1.00  0.00    -0.128 NA
HETATM    7  N   UNL     1      43.159 -15.433   3.317  1.00  0.00    -0.122 NA
BRANCH   4   8
HETATM    8  C   UNL     1      41.958 -17.941   5.597  1.00  0.00     0.128 C 
HETATM    9  C   UNL     1      42.848 -17.939   6.831  1.00  0.00     0.027 C 
ENDBRANCH   4   8
BRANCH   5  10
HETATM   10  C   UNL     1      43.633 -18.998   3.158  1.00  0.00     0.012 A 
HETATM   11  C   UNL     1      44.540 -19.639   4.015  1.00  0.00     0.015 A 
HETATM   12  C   UNL     1      44.938 -20.956   3.777  1.00  0.00     0.001 A 
HETATM   13  C   UNL     1      44.441 -21.644   2.672  1.00  0.00     0.000 A 
HETATM   14  C   UNL     1      43.556 -21.011   1.801  1.00  0.00     0.001 A 
HETATM   15  C   UNL     1      43.159 -19.692   2.039  1.00  0.00     0.015 A 
ENDBRANCH   5  10
ENDBRANCH   2   3
ENDBRANCH   1   2
BRANCH   1  16
HETATM   16  C   UNL     1      43.956 -13.698   6.808  1.00  0.00     0.227 C 
HETATM   17  N   UNL     1      43.913 -12.714   7.775  1.00  0.00    -0.358 N 
HETATM   18  H   UNL     1      43.352 -11.887   7.615  1.00  0.00     0.162 HD
HETATM   19  O   UNL     1      44.666 -14.697   6.908  1.00  0.00    -0.273 OA
BRANCH  17  20
HETATM   20  C   UNL     1      44.838 -12.702   8.894  1.00  0.00     0.149 C 
BRANCH  20  21
HETATM   21  C   UNL     1      45.158 -11.311   9.443  1.00  0.00     0.195 C 
BRANCH  21  22
HETATM   22  O   UNL     1      43.924 -10.595   9.545  1.00  0.00    -0.350 OA
BRANCH  22  23
HETATM   23  C   UNL     1      43.291 -10.604  10.757  1.00  0.00     0.069 A 
HETATM   24  C   UNL     1      42.039 -11.163  11.026  1.00  0.00     0.043 A 
HETATM   25  C   UNL     1      41.501 -11.110  12.322  1.00  0.00    -0.059 A 
HETATM   26  C   UNL     1      40.154 -11.701  12.621  1.00  0.00     0.048 C 
HETATM   27  C   UNL     1      42.223 -10.479  13.342  1.00  0.00     0.007 A 
HETATM   28  C   UNL     1      43.468  -9.914  13.074  1.00  0.00     0.003 A 
HETATM   29  C   UNL     1      43.996  -9.977  11.786  1.00  0.00     0.037 A 
ENDBRANCH  22  23
ENDBRANCH  21  22
ENDBRANCH  20  21
ENDBRANCH  17  20
ENDBRANCH   1  16
TORSDOF 9
ENDMDL
MODEL 4
REMARK VINA RESULT:      -8.2      4.134      8.114
REMARK  9 active torsions:
REMARK  status: ('A' for Active; 'I' for Inactive)
REMARK    1  A    between atoms: C_2  and  N_3 
REMARK    2  A    between atoms: C_4  and  S_5 
REMARK    3  A    between atoms: S_5  and  C_6 
REMARK    4  A    between atoms: C_6  and  C_7 
REMARK       I    between atoms: C_7  and  N_8 
REMARK    5  A    between atoms: N_8  and  C_9 
REMARK    6  A    between atoms: C_9  and  C_10 
REMARK    7  A    between atoms: C_10  and  O_11 
REMARK    8  A    between atoms: O_11  and  C_12 
REMARK    9  A    between atoms: C_22  and  C_23 
ROOT
HETATM    1  C   UNL     1      39.084 -13.748   0.993  1.00  0.00     0.185 C 
ENDROOT
BRANCH   1   2
HETATM    2  S   UNL     1      39.889 -12.251   1.631  1.00  0.00    -0.081 SA
BRANCH   2   3
HETATM    3  C   UNL     1      41.234 -12.979   2.439  1.00  0.00     0.192 A 
HETATM    4  N   UNL     1      41.148 -13.704   3.599  1.00  0.00    -0.308 N 
HETATM    5  C   UNL     1      42.451 -14.035   3.923  1.00  0.00     0.164 A 
HETATM    6  N   UNL     1      43.247 -13.544   2.988  1.00  0.00    -0.128 NA
HETATM    7  N   UNL     1      42.483 -12.898   2.053  1.00  0.00    -0.122 NA
BRANCH   4   8
HETATM    8  C   UNL     1      39.959 -13.946   4.391  1.00  0.00     0.128 C 
HETATM    9  C   UNL     1      39.786 -12.947   5.524  1.00  0.00     0.027 C 
ENDBRANCH   4   8
BRANCH   5  10
HETATM   10  C   UNL     1      42.913 -14.727   5.125  1.00  0.00     0.012 A 
HETATM   11  C   UNL     1      42.215 -15.858   5.571  1.00  0.00     0.015 A 
HETATM   12  C   UNL     1      42.621 -16.541   6.719  1.00  0.00     0.001 A 
HETATM   13  C   UNL     1      43.725 -16.092   7.441  1.00  0.00     0.000 A 
HETATM   14  C   UNL     1      44.415 -14.957   7.020  1.00  0.00     0.001 A 
HETATM   15  C   UNL     1      44.007 -14.273   5.871  1.00  0.00     0.015 A 
ENDBRANCH   5  10
ENDBRANCH   2   3
ENDBRANCH   1   2
BRANCH   1  16
HETATM   16  C   UNL     1      40.104 -14.634   0.303  1.00  0.00     0.227 C 
HETATM   17  N   UNL     1      40.280 -15.872   0.888  1.00  0.00    -0.358 N 
HETATM   18  H   UNL     1      39.778 -16.095   1.738  1.00  0.00     0.162 HD
HETATM   19  O   UNL     1      40.730 -14.274  -0.692  1.00  0.00    -0.273 OA
BRANCH  17  20
HETATM   20  C   UNL     1      41.346 -16.767   0.474  1.00  0.00     0.149 C 
BRANCH  20  21
HETATM   21  C   UNL     1      42.675 -16.556   1.200  1.00  0.00     0.195 C 
BRANCH  21  22
HETATM   22  O   UNL     1      43.522 -17.662   0.874  1.00  0.00    -0.350 OA
BRANCH  22  23
HETATM   23  C   UNL     1      43.825 -18.539   1.878  1.00  0.00     0.069 A 
HETATM   24  C   UNL     1      43.975 -19.921   1.745  1.00  0.00     0.043 A 
HETATM   25  C   UNL     1      44.294 -20.713   2.860  1.00  0.00    -0.059 A 
HETATM   26  C   UNL     1      44.450 -22.200   2.730  1.00  0.00     0.048 C 
HETATM   27  C   UNL     1      44.448 -20.107   4.113  1.00  0.00     0.007 A 
HETATM   28  C   UNL     1      44.292 -18.729   4.250  1.00  0.00     0.003 A 
HETATM   29  C   UNL     1      43.981 -17.951   3.135  1.00  0.00     0.037 A 
ENDBRANCH  22  23
ENDBRANCH  21  22
ENDBRANCH  20  21
ENDBRANCH  17  20
ENDBRANCH   1  16
TORSDOF 9
ENDMDL
MODEL 5
REMARK VINA RESULT:      -8.2      2.447      3.468
REMARK  9 active torsions:
REMARK  status: ('A' for Active; 'I' for Inactive)
REMARK    1  A    between atoms: C_2  and  N_3 
REMARK    2  A    between atoms: C_4  and  S_5 
REMARK    3  A    between atoms: S_5  and  C_6 
REMARK    4  A    between atoms: C_6  and  C_7 
REMARK       I    between atoms: C_7  and  N_8 
REMARK    5  A    between atoms: N_8  and  C_9 
REMARK    6  A    between atoms: C_9  and  C_10 
REMARK    7  A    between atoms: C_10  and  O_11 
REMARK    8  A    between atoms: O_11  and  C_12 
REMARK    9  A    between atoms: C_22  and  C_23 
ROOT
HETATM    1  C   UNL     1      39.599 -13.914   5.521  1.00  0.00     0.185 C 
ENDROOT
BRANCH   1   2
HETATM    2  S   UNL     1      41.294 -13.876   4.869  1.00  0.00    -0.081 SA
BRANCH   2   3
HETATM    3  C   UNL     1      41.650 -15.568   4.918  1.00  0.00     0.192 A 
HETATM    4  N   UNL     1      42.583 -16.192   4.132  1.00  0.00    -0.308 N 
HETATM    5  C   UNL     1      42.491 -17.536   4.449  1.00  0.00     0.164 A 
HETATM    6  N   UNL     1      41.567 -17.678   5.384  1.00  0.00    -0.128 NA
HETATM    7  N   UNL     1      41.053 -16.445   5.688  1.00  0.00    -0.122 NA
BRANCH   4   8
HETATM    8  C   UNL     1      43.389 -15.591   3.090  1.00  0.00     0.128 C 
HETATM    9  C   UNL     1      42.674 -15.524   1.750  1.00  0.00     0.027 C 
ENDBRANCH   4   8
BRANCH   5  10
HETATM   10  C   UNL     1      43.208 -18.642   3.818  1.00  0.00     0.012 A 
HETATM   11  C   UNL     1      42.820 -19.064   2.538  1.00  0.00     0.015 A 
HETATM   12  C   UNL     1      43.475 -20.122   1.905  1.00  0.00     0.001 A 
HETATM   13  C   UNL     1      44.520 -20.778   2.552  1.00  0.00     0.000 A 
HETATM   14  C   UNL     1      44.901 -20.384   3.833  1.00  0.00     0.001 A 
HETATM   15  C   UNL     1      44.244 -19.325   4.466  1.00  0.00     0.015 A 
ENDBRANCH   5  10
ENDBRANCH   2   3
ENDBRANCH   1   2
BRANCH   1  16
HETATM   16  C   UNL     1      39.294 -12.620   6.252  1.00  0.00     0.227 C 
HETATM   17  N   UNL     1      39.579 -12.640   7.603  1.00  0.00    -0.358 N 
HETATM   18  H   UNL     1      39.915 -13.497   8.025  1.00  0.00     0.162 HD
HETATM   19  O   UNL     1      38.823 -11.635   5.688  1.00  0.00    -0.273 OA
BRANCH  17  20
HETATM   20  C   UNL     1      39.175 -11.560   8.484  1.00  0.00     0.149 C 
BRANCH  20  21
HETATM   21  C   UNL     1      40.329 -10.852   9.196  1.00  0.00     0.195 C 
BRANCH  21  22
HETATM   22  O   UNL     1      40.320 -11.282  10.561  1.00  0.00    -0.350 OA
BRANCH  22  23
HETATM   23  C   UNL     1      41.332 -10.838  11.366  1.00  0.00     0.069 A 
HETATM   24  C   UNL     1      41.261 -10.653  12.749  1.00  0.00     0.043 A 
HETATM   25  C   UNL     1      42.380 -10.195  13.464  1.00  0.00    -0.059 A 
HETATM   26  C   UNL     1      42.312  -9.985  14.948  1.00  0.00     0.048 C 
HETATM   27  C   UNL     1      43.566  -9.910  12.776  1.00  0.00     0.007 A 
HETATM   28  C   UNL     1      43.637 -10.088  11.396  1.00  0.00     0.003 A 
HETATM   29  C   UNL     1      42.523 -10.548  10.697  1.00  0.00     0.037 A 
ENDBRANCH  22  23
ENDBRANCH  21  22
ENDBRANCH  20  21
ENDBRANCH  17  20
ENDBRANCH   1  16
TORSDOF 9
ENDMDL
MODEL 6
REMARK VINA RESULT:      -8.2      1.279      2.372
REMARK  9 active torsions:
REMARK  status: ('A' for Active; 'I' for Inactive)
REMARK    1  A    between atoms: C_2  and  N_3 
REMARK    2  A    between atoms: C_4  and  S_5 
REMARK    3  A    between atoms: S_5  and  C_6 
REMARK    4  A    between atoms: C_6  and  C_7 
REMARK       I    between atoms: C_7  and  N_8 
REMARK    5  A    between atoms: N_8  and  C_9 
REMARK    6  A    between atoms: C_9  and  C_10 
REMARK    7  A    between atoms: C_10  and  O_11 
REMARK    8  A    between atoms: O_11  and  C_12 
REMARK    9  A    between atoms: C_22  and  C_23 
ROOT
HETATM    1  C   UNL     1      41.962 -13.813   5.485  1.00  0.00     0.185 C 
ENDROOT
BRANCH   1   2
HETATM    2  S   UNL     1      41.807 -14.454   3.793  1.00  0.00    -0.081 SA
BRANCH   2   3
HETATM    3  C   UNL     1      42.106 -16.130   4.100  1.00  0.00     0.192 A 
HETATM    4  N   UNL     1      42.950 -16.919   3.364  1.00  0.00    -0.308 N 
HETATM    5  C   UNL     1      42.837 -18.186   3.909  1.00  0.00     0.164 A 
HETATM    6  N   UNL     1      41.987 -18.127   4.920  1.00  0.00    -0.128 NA
HETATM    7  N   UNL     1      41.543 -16.838   5.049  1.00  0.00    -0.122 NA
BRANCH   4   8
HETATM    8  C   UNL     1      43.690 -16.537   2.179  1.00  0.00     0.128 C 
HETATM    9  C   UNL     1      42.864 -16.633   0.906  1.00  0.00     0.027 C 
ENDBRANCH   4   8
BRANCH   5  10
HETATM   10  C   UNL     1      43.462 -19.414   3.422  1.00  0.00     0.012 A 
HETATM   11  C   UNL     1      43.061 -19.938   2.185  1.00  0.00     0.015 A 
HETATM   12  C   UNL     1      43.628 -21.114   1.690  1.00  0.00     0.001 A 
HETATM   13  C   UNL     1      44.597 -21.785   2.433  1.00  0.00     0.000 A 
HETATM   14  C   UNL     1      44.989 -21.287   3.674  1.00  0.00     0.001 A 
HETATM   15  C   UNL     1      44.419 -20.110   4.170  1.00  0.00     0.015 A 
ENDBRANCH   5  10
ENDBRANCH   2   3
ENDBRANCH   1   2
BRANCH   1  16
HETATM   16  C   UNL     1      43.426 -13.706   5.869  1.00  0.00     0.227 C 
HETATM   17  N   UNL     1      43.661 -13.626   7.227  1.00  0.00    -0.358 N 
HETATM   18  H   UNL     1      42.875 -13.593   7.865  1.00  0.00     0.162 HD
HETATM   19  O   UNL     1      44.330 -13.686   5.037  1.00  0.00    -0.273 OA
BRANCH  17  20
HETATM   20  C   UNL     1      44.979 -13.331   7.758  1.00  0.00     0.149 C 
BRANCH  20  21
HETATM   21  C   UNL     1      44.989 -12.364   8.943  1.00  0.00     0.195 C 
BRANCH  21  22
HETATM   22  O   UNL     1      43.944 -11.411   8.728  1.00  0.00    -0.350 OA
BRANCH  22  23
HETATM   23  C   UNL     1      43.506 -10.704   9.813  1.00  0.00     0.069 A 
HETATM   24  C   UNL     1      42.401  -9.849   9.846  1.00  0.00     0.043 A 
HETATM   25  C   UNL     1      42.052  -9.184  11.032  1.00  0.00    -0.059 A 
HETATM   26  C   UNL     1      40.872  -8.258  11.077  1.00  0.00     0.048 C 
HETATM   27  C   UNL     1      42.830  -9.372  12.181  1.00  0.00     0.007 A 
HETATM   28  C   UNL     1      43.936 -10.218  12.149  1.00  0.00     0.003 A 
HETATM   29  C   UNL     1      44.271 -10.879  10.968  1.00  0.00     0.037 A 
ENDBRANCH  22  23
ENDBRANCH  21  22
ENDBRANCH  20  21
ENDBRANCH  17  20
ENDBRANCH   1  16
TORSDOF 9
ENDMDL
MODEL 7
REMARK VINA RESULT:      -8.2      3.945      7.632
REMARK  9 active torsions:
REMARK  status: ('A' for Active; 'I' for Inactive)
REMARK    1  A    between atoms: C_2  and  N_3 
REMARK    2  A    between atoms: C_4  and  S_5 
REMARK    3  A    between atoms: S_5  and  C_6 
REMARK    4  A    between atoms: C_6  and  C_7 
REMARK       I    between atoms: C_7  and  N_8 
REMARK    5  A    between atoms: N_8  and  C_9 
REMARK    6  A    between atoms: C_9  and  C_10 
REMARK    7  A    between atoms: C_10  and  O_11 
REMARK    8  A    between atoms: O_11  and  C_12 
REMARK    9  A    between atoms: C_22  and  C_23 
ROOT
HETATM    1  C   UNL     1      39.601 -12.168   4.288  1.00  0.00     0.185 C 
ENDROOT
BRANCH   1   2
HETATM    2  S   UNL     1      41.308 -12.315   4.888  1.00  0.00    -0.081 SA
BRANCH   2   3
HETATM    3  C   UNL     1      41.258 -13.939   5.482  1.00  0.00     0.192 A 
HETATM    4  N   UNL     1      42.359 -14.725   5.701  1.00  0.00    -0.308 N 
HETATM    5  C   UNL     1      41.861 -15.951   6.105  1.00  0.00     0.164 A 
HETATM    6  N   UNL     1      40.541 -15.872   6.136  1.00  0.00    -0.128 NA
HETATM    7  N   UNL     1      40.167 -14.609   5.762  1.00  0.00    -0.122 NA
BRANCH   4   8
HETATM    8  C   UNL     1      43.741 -14.386   5.430  1.00  0.00     0.128 C 
HETATM    9  C   UNL     1      44.557 -14.166   6.694  1.00  0.00     0.027 C 
ENDBRANCH   4   8
BRANCH   5  10
HETATM   10  C   UNL     1      42.624 -17.169   6.371  1.00  0.00     0.012 A 
HETATM   11  C   UNL     1      42.876 -18.059   5.317  1.00  0.00     0.015 A 
HETATM   12  C   UNL     1      43.595 -19.236   5.533  1.00  0.00     0.001 A 
HETATM   13  C   UNL     1      44.061 -19.542   6.810  1.00  0.00     0.000 A 
HETATM   14  C   UNL     1      43.799 -18.677   7.870  1.00  0.00     0.001 A 
HETATM   15  C   UNL     1      43.078 -17.499   7.653  1.00  0.00     0.015 A 
ENDBRANCH   5  10
ENDBRANCH   2   3
ENDBRANCH   1   2
BRANCH   1  16
HETATM   16  C   UNL     1      39.496 -12.715   2.876  1.00  0.00     0.227 C 
HETATM   17  N   UNL     1      39.116 -14.040   2.798  1.00  0.00    -0.358 N 
HETATM   18  H   UNL     1      38.983 -14.568   3.651  1.00  0.00     0.162 HD
HETATM   19  O   UNL     1      39.737 -12.034   1.882  1.00  0.00    -0.273 OA
BRANCH  17  20
HETATM   20  C   UNL     1      39.150 -14.771   1.544  1.00  0.00     0.149 C 
BRANCH  20  21
HETATM   21  C   UNL     1      40.515 -15.359   1.184  1.00  0.00     0.195 C 
BRANCH  21  22
HETATM   22  O   UNL     1      40.530 -16.716   1.637  1.00  0.00    -0.350 OA
BRANCH  22  23
HETATM   23  C   UNL     1      41.745 -17.339   1.713  1.00  0.00     0.069 A 
HETATM   24  C   UNL     1      41.959 -18.718   1.781  1.00  0.00     0.043 A 
HETATM   25  C   UNL     1      43.264 -19.232   1.850  1.00  0.00    -0.059 A 
HETATM   26  C   UNL     1      43.505 -20.711   1.931  1.00  0.00     0.048 C 
HETATM   27  C   UNL     1      44.351 -18.350   1.865  1.00  0.00     0.007 A 
HETATM   28  C   UNL     1      44.140 -16.975   1.804  1.00  0.00     0.003 A 
HETATM   29  C   UNL     1      42.841 -16.474   1.730  1.00  0.00     0.037 A 
ENDBRANCH  22  23
ENDBRANCH  21  22
ENDBRANCH  20  21
ENDBRANCH  17  20
ENDBRANCH   1  16
TORSDOF 9
ENDMDL
MODEL 8
REMARK VINA RESULT:      -8.1      4.423      8.227
REMARK  9 active torsions:
REMARK  status: ('A' for Active; 'I' for Inactive)
REMARK    1  A    between atoms: C_2  and  N_3 
REMARK    2  A    between atoms: C_4  and  S_5 
REMARK    3  A    between atoms: S_5  and  C_6 
REMARK    4  A    between atoms: C_6  and  C_7 
REMARK       I    between atoms: C_7  and  N_8 
REMARK    5  A    between atoms: N_8  and  C_9 
REMARK    6  A    between atoms: C_9  and  C_10 
REMARK    7  A    between atoms: C_10  and  O_11 
REMARK    8  A    between atoms: O_11  and  C_12 
REMARK    9  A    between atoms: C_22  and  C_23 
ROOT
HETATM    1  C   UNL     1      40.563 -15.106   5.511  1.00  0.00     0.185 C 
ENDROOT
BRANCH   1   2
HETATM    2  S   UNL     1      42.357 -14.834   5.589  1.00  0.00    -0.081 SA
BRANCH   2   3
HETATM    3  C   UNL     1      42.865 -15.977   4.394  1.00  0.00     0.192 A 
HETATM    4  N   UNL     1      42.871 -17.336   4.566  1.00  0.00    -0.308 N 
HETATM    5  C   UNL     1      43.408 -17.853   3.400  1.00  0.00     0.164 A 
HETATM    6  N   UNL     1      43.681 -16.845   2.589  1.00  0.00    -0.128 NA
HETATM    7  N   UNL     1      43.326 -15.674   3.205  1.00  0.00    -0.122 NA
BRANCH   4   8
HETATM    8  C   UNL     1      42.522 -18.065   5.768  1.00  0.00     0.128 C 
HETATM    9  C   UNL     1      43.630 -18.056   6.810  1.00  0.00     0.027 C 
ENDBRANCH   4   8
BRANCH   5  10
HETATM   10  C   UNL     1      43.719 -19.252   3.117  1.00  0.00     0.012 A 
HETATM   11  C   UNL     1      44.589 -19.944   3.972  1.00  0.00     0.015 A 
HETATM   12  C   UNL     1      44.916 -21.279   3.730  1.00  0.00     0.001 A 
HETATM   13  C   UNL     1      44.385 -21.935   2.622  1.00  0.00     0.000 A 
HETATM   14  C   UNL     1      43.538 -21.253   1.751  1.00  0.00     0.001 A 
HETATM   15  C   UNL     1      43.211 -19.915   1.994  1.00  0.00     0.015 A 
ENDBRANCH   5  10
ENDBRANCH   2   3
ENDBRANCH   1   2
BRANCH   1  16
HETATM   16  C   UNL     1      39.992 -14.458   4.264  1.00  0.00     0.227 C 
HETATM   17  N   UNL     1      39.819 -15.316   3.196  1.00  0.00    -0.358 N 
HETATM   18  H   UNL     1      40.116 -16.280   3.283  1.00  0.00     0.162 HD
HETATM   19  O   UNL     1      39.713 -13.262   4.206  1.00  0.00    -0.273 OA
BRANCH  17  20
HETATM   20  C   UNL     1      39.463 -14.830   1.876  1.00  0.00     0.149 C 
BRANCH  20  21
HETATM   21  C   UNL     1      40.640 -14.687   0.910  1.00  0.00     0.195 C 
BRANCH  21  22
HETATM   22  O   UNL     1      40.233 -13.796  -0.133  1.00  0.00    -0.350 OA
BRANCH  22  23
HETATM   23  C   UNL     1      39.883 -14.352  -1.332  1.00  0.00     0.069 A 
HETATM   24  C   UNL     1      38.665 -14.177  -1.995  1.00  0.00     0.043 A 
HETATM   25  C   UNL     1      38.432 -14.802  -3.231  1.00  0.00    -0.059 A 
HETATM   26  C   UNL     1      37.125 -14.627  -3.947  1.00  0.00     0.048 C 
HETATM   27  C   UNL     1      39.425 -15.615  -3.789  1.00  0.00     0.007 A 
HETATM   28  C   UNL     1      40.638 -15.797  -3.127  1.00  0.00     0.003 A 
HETATM   29  C   UNL     1      40.862 -15.168  -1.904  1.00  0.00     0.037 A 
ENDBRANCH  22  23
ENDBRANCH  21  22
ENDBRANCH  20  21
ENDBRANCH  17  20
ENDBRANCH   1  16
TORSDOF 9
ENDMDL
MODEL 9
REMARK VINA RESULT:      -8.0      2.291      3.042
REMARK  9 active torsions:
REMARK  status: ('A' for Active; 'I' for Inactive)
REMARK    1  A    between atoms: C_2  and  N_3 
REMARK    2  A    between atoms: C_4  and  S_5 
REMARK    3  A    between atoms: S_5  and  C_6 
REMARK    4  A    between atoms: C_6  and  C_7 
REMARK       I    between atoms: C_7  and  N_8 
REMARK    5  A    between atoms: N_8  and  C_9 
REMARK    6  A    between atoms: C_9  and  C_10 
REMARK    7  A    between atoms: C_10  and  O_11 
REMARK    8  A    between atoms: O_11  and  C_12 
REMARK    9  A    between atoms: C_22  and  C_23 
ROOT
HETATM    1  C   UNL     1      40.925 -13.233   5.631  1.00  0.00     0.185 C 
ENDROOT
BRANCH   1   2
HETATM    2  S   UNL     1      40.216 -14.003   4.148  1.00  0.00    -0.081 SA
BRANCH   2   3
HETATM    3  C   UNL     1      41.556 -14.990   3.676  1.00  0.00     0.192 A 
HETATM    4  N   UNL     1      41.697 -16.317   3.988  1.00  0.00    -0.308 N 
HETATM    5  C   UNL     1      42.928 -16.686   3.477  1.00  0.00     0.164 A 
HETATM    6  N   UNL     1      43.463 -15.632   2.884  1.00  0.00    -0.128 NA
HETATM    7  N   UNL     1      42.597 -14.577   2.995  1.00  0.00    -0.122 NA
BRANCH   4   8
HETATM    8  C   UNL     1      40.809 -17.120   4.803  1.00  0.00     0.128 C 
HETATM    9  C   UNL     1      41.056 -16.951   6.294  1.00  0.00     0.027 C 
ENDBRANCH   4   8
BRANCH   5  10
HETATM   10  C   UNL     1      43.594 -17.979   3.626  1.00  0.00     0.012 A 
HETATM   11  C   UNL     1      44.236 -18.278   4.837  1.00  0.00     0.015 A 
HETATM   12  C   UNL     1      44.889 -19.500   5.015  1.00  0.00     0.001 A 
HETATM   13  C   UNL     1      44.916 -20.431   3.979  1.00  0.00     0.000 A 
HETATM   14  C   UNL     1      44.301 -20.137   2.764  1.00  0.00     0.001 A 
HETATM   15  C   UNL     1      43.648 -18.913   2.586  1.00  0.00     0.015 A 
ENDBRANCH   5  10
ENDBRANCH   2   3
ENDBRANCH   1   2
BRANCH   1  16
HETATM   16  C   UNL     1      39.848 -12.486   6.396  1.00  0.00     0.227 C 
HETATM   17  N   UNL     1      40.246 -12.003   7.627  1.00  0.00    -0.358 N 
HETATM   18  H   UNL     1      41.179 -12.207   7.961  1.00  0.00     0.162 HD
HETATM   19  O   UNL     1      38.711 -12.331   5.958  1.00  0.00    -0.273 OA
BRANCH  17  20
HETATM   20  C   UNL     1      39.297 -11.433   8.565  1.00  0.00     0.149 C 
BRANCH  20  21
HETATM   21  C   UNL     1      39.918 -10.528   9.631  1.00  0.00     0.195 C 
BRANCH  21  22
HETATM   22  O   UNL     1      40.344 -11.364  10.710  1.00  0.00    -0.350 OA
BRANCH  22  23
HETATM   23  C   UNL     1      41.330 -10.883  11.526  1.00  0.00     0.069 A 
HETATM   24  C   UNL     1      41.219 -10.648  12.898  1.00  0.00     0.043 A 
HETATM   25  C   UNL     1      42.315 -10.155  13.626  1.00  0.00    -0.059 A 
HETATM   26  C   UNL     1      42.204  -9.891  15.099  1.00  0.00     0.048 C 
HETATM   27  C   UNL     1      43.518  -9.889  12.962  1.00  0.00     0.007 A 
HETATM   28  C   UNL     1      43.630 -10.117  11.592  1.00  0.00     0.003 A 
HETATM   29  C   UNL     1      42.538 -10.611  10.880  1.00  0.00     0.037 A 
ENDBRANCH  22  23
ENDBRANCH  21  22
ENDBRANCH  20  21
ENDBRANCH  17  20
ENDBRANCH   1  16
TORSDOF 9
ENDMDL
MODEL 10
REMARK VINA RESULT:      -8.0      3.751      7.768
REMARK  9 active torsions:
REMARK  status: ('A' for Active; 'I' for Inactive)
REMARK    1  A    between atoms: C_2  and  N_3 
REMARK    2  A    between atoms: C_4  and  S_5 
REMARK    3  A    between atoms: S_5  and  C_6 
REMARK    4  A    between atoms: C_6  and  C_7 
REMARK       I    between atoms: C_7  and  N_8 
REMARK    5  A    between atoms: N_8  and  C_9 
REMARK    6  A    between atoms: C_9  and  C_10 
REMARK    7  A    between atoms: C_10  and  O_11 
REMARK    8  A    between atoms: O_11  and  C_12 
REMARK    9  A    between atoms: C_22  and  C_23 
ROOT
HETATM    1  C   UNL     1      42.097 -12.775   5.086  1.00  0.00     0.185 C 
ENDROOT
BRANCH   1   2
HETATM    2  S   UNL     1      40.688 -13.637   4.333  1.00  0.00    -0.081 SA
BRANCH   2   3
HETATM    3  C   UNL     1      41.126 -13.485   2.666  1.00  0.00     0.192 A 
HETATM    4  N   UNL     1      40.410 -14.005   1.620  1.00  0.00    -0.308 N 
HETATM    5  C   UNL     1      41.146 -13.710   0.487  1.00  0.00     0.164 A 
HETATM    6  N   UNL     1      42.223 -13.036   0.857  1.00  0.00    -0.128 NA
HETATM    7  N   UNL     1      42.200 -12.883   2.218  1.00  0.00    -0.122 NA
BRANCH   4   8
HETATM    8  C   UNL     1      39.212 -14.816   1.700  1.00  0.00     0.128 C 
HETATM    9  C   UNL     1      37.985 -14.117   1.136  1.00  0.00     0.027 C 
ENDBRANCH   4   8
BRANCH   5  10
HETATM   10  C   UNL     1      40.863 -14.130  -0.884  1.00  0.00     0.012 A 
HETATM   11  C   UNL     1      40.239 -13.228  -1.758  1.00  0.00     0.015 A 
HETATM   12  C   UNL     1      39.945 -13.595  -3.072  1.00  0.00     0.001 A 
HETATM   13  C   UNL     1      40.262 -14.874  -3.525  1.00  0.00     0.000 A 
HETATM   14  C   UNL     1      40.863 -15.787  -2.660  1.00  0.00     0.001 A 
HETATM   15  C   UNL     1      41.156 -15.419  -1.343  1.00  0.00     0.015 A 
ENDBRANCH   5  10
ENDBRANCH   2   3
ENDBRANCH   1   2
BRANCH   1  16
HETATM   16  C   UNL     1      43.209 -13.761   5.389  1.00  0.00     0.227 C 
HETATM   17  N   UNL     1      42.861 -14.771   6.265  1.00  0.00    -0.358 N 
HETATM   18  H   UNL     1      41.938 -14.770   6.679  1.00  0.00     0.162 HD
HETATM   19  O   UNL     1      44.332 -13.665   4.901  1.00  0.00    -0.273 OA
BRANCH  17  20
HETATM   20  C   UNL     1      43.849 -15.685   6.808  1.00  0.00     0.149 C 
BRANCH  20  21
HETATM   21  C   UNL     1      43.830 -17.085   6.192  1.00  0.00     0.195 C 
BRANCH  21  22
HETATM   22  O   UNL     1      42.777 -17.114   5.224  1.00  0.00    -0.350 OA
BRANCH  22  23
HETATM   23  C   UNL     1      43.086 -17.574   3.974  1.00  0.00     0.069 A 
HETATM   24  C   UNL     1      43.313 -18.906   3.621  1.00  0.00     0.043 A 
HETATM   25  C   UNL     1      43.617 -19.248   2.293  1.00  0.00    -0.059 A 
HETATM   26  C   UNL     1      43.870 -20.675   1.904  1.00  0.00     0.048 C 
HETATM   27  C   UNL     1      43.705 -18.240   1.326  1.00  0.00     0.007 A 
HETATM   28  C   UNL     1      43.485 -16.910   1.676  1.00  0.00     0.003 A 
HETATM   29  C   UNL     1      43.178 -16.581   2.996  1.00  0.00     0.037 A 
ENDBRANCH  22  23
ENDBRANCH  21  22
ENDBRANCH  20  21
ENDBRANCH  17  20
ENDBRANCH   1  16
TORSDOF 9
ENDMDL
