MODEL 1
REMARK VINA RESULT:      -8.1      0.000      0.000
REMARK  7 active torsions:
REMARK  status: ('A' for Active; 'I' for Inactive)
REMARK    1  A    between atoms: C_2  and  C_3 
REMARK    2  A    between atoms: C_2  and  C_20 
REMARK    3  A    between atoms: C_3  and  C_4 
REMARK       I    between atoms: C_4  and  N_5 
REMARK    4  A    between atoms: N_5  and  C_6 
REMARK    5  A    between atoms: C_13  and  C_14 
REMARK       I    between atoms: C_14  and  N_15 
REMARK    6  A    between atoms: C_20  and  C_21 
REMARK    7  A    between atoms: C_22  and  O_23 
ROOT
HETATM    1  C   UNL     1      43.536 -17.991   1.706  1.00  0.00     0.222 C 
HETATM    2  N   UNL     1      42.159 -17.882   1.590  1.00  0.00    -0.327 N 
HETATM    3  O   UNL     1      44.366 -17.176   1.326  1.00  0.00    -0.273 OA
HETATM    4  H   UNL     1      41.617 -18.677   1.904  1.00  0.00     0.169 HD
ENDROOT
BRANCH   2   5
HETATM    5  C   UNL     1      41.413 -16.784   1.116  1.00  0.00     0.035 A 
HETATM    6  C   UNL     1      41.581 -16.209  -0.151  1.00  0.00     0.046 A 
HETATM    7  C   UNL     1      40.795 -15.093  -0.520  1.00  0.00     0.030 A 
HETATM    8  C   UNL     1      39.874 -14.591   0.391  1.00  0.00     0.063 A 
HETATM    9  C   UNL     1      40.668 -14.257  -1.670  1.00  0.00     0.156 A 
HETATM   10  N   UNL     1      39.283 -13.531  -0.236  1.00  0.00    -0.277 N 
HETATM   11  C   UNL     1      39.678 -15.139   1.659  1.00  0.00     0.034 A 
HETATM   12  H   UNL     1      38.562 -12.924   0.135  1.00  0.00     0.189 HD
HETATM   13  N   UNL     1      39.732 -13.298  -1.479  1.00  0.00    -0.168 NA
HETATM   14  C   UNL     1      40.465 -16.245   1.999  1.00  0.00     0.032 A 
BRANCH   9  15
HETATM   15  C   UNL     1      41.410 -14.349  -2.937  1.00  0.00     0.270 C 
HETATM   16  N   UNL     1      42.597 -13.668  -2.936  1.00  0.00    -0.365 N 
HETATM   17  H   UNL     1      42.868 -13.165  -2.101  1.00  0.00     0.159 HD
HETATM   18  H   UNL     1      43.171 -13.668  -3.764  1.00  0.00     0.159 HD
HETATM   19  O   UNL     1      41.034 -14.968  -3.924  1.00  0.00    -0.266 OA
ENDBRANCH   9  15
ENDBRANCH   2   5
BRANCH   1  20
HETATM   20  C   UNL     1      43.945 -19.309   2.357  1.00  0.00     0.107 C 
BRANCH  20  21
HETATM   21  C   UNL     1      43.848 -19.284   3.891  1.00  0.00    -0.006 C 
HETATM   22  C   UNL     1      44.790 -20.278   4.578  1.00  0.00     0.011 C 
BRANCH  21  23
HETATM   23  C   UNL     1      43.955 -17.853   4.474  1.00  0.00     0.046 C 
BRANCH  23  24
HETATM   24  C   UNL     1      42.766 -17.083   5.029  1.00  0.00    -0.024 A 
HETATM   25  C   UNL     1      42.662 -15.703   4.727  1.00  0.00     0.074 A 
HETATM   26  C   UNL     1      41.597 -14.943   5.229  1.00  0.00     0.037 A 
HETATM   27  C   UNL     1      40.612 -15.541   6.011  1.00  0.00     0.003 A 
HETATM   28  C   UNL     1      40.685 -16.899   6.292  1.00  0.00     0.001 A 
HETATM   29  C   UNL     1      41.749 -17.661   5.802  1.00  0.00     0.010 A 
BRANCH  25  30
HETATM   30  O   UNL     1      43.666 -15.182   3.947  1.00  0.00    -0.355 OA
HETATM   31  C   UNL     1      43.320 -14.114   3.074  1.00  0.00     0.210 C 
ENDBRANCH  25  30
ENDBRANCH  23  24
ENDBRANCH  21  23
ENDBRANCH  20  21
ENDBRANCH   1  20
TORSDOF 7
ENDMDL
MODEL 2
REMARK VINA RESULT:      -8.1      1.442      3.517
REMARK  7 active torsions:
REMARK  status: ('A' for Active; 'I' for Inactive)
REMARK    1  A    between atoms: C_2  and  C_3 
REMARK    2  A    between atoms: C_2  and  C_20 
REMARK    3  A    between atoms: C_3  and  C_4 
REMARK       I    between atoms: C_4  and  N_5 
REMARK    4  A    between atoms: N_5  and  C_6 
REMARK    5  A    between atoms: C_13  and  C_14 
REMARK       I    between atoms: C_14  and  N_15 
REMARK    6  A    between atoms: C_20  and  C_21 
REMARK    7  A    between atoms: C_22  and  O_23 
ROOT
HETATM    1  C   UNL     1      41.116 -16.181   3.697  1.00  0.00     0.222 C 
HETATM    2  N   UNL     1      40.483 -16.497   2.506  1.00  0.00    -0.327 N 
HETATM    3  O   UNL     1      41.466 -15.067   4.064  1.00  0.00    -0.273 OA
HETATM    4  H   UNL     1      40.316 -17.480   2.331  1.00  0.00     0.169 HD
ENDROOT
BRANCH   2   5
HETATM    5  C   UNL     1      40.011 -15.613   1.513  1.00  0.00     0.035 A 
HETATM    6  C   UNL     1      40.639 -15.415   0.276  1.00  0.00     0.046 A 
HETATM    7  C   UNL     1      40.095 -14.486  -0.640  1.00  0.00     0.030 A 
HETATM    8  C   UNL     1      38.947 -13.789  -0.286  1.00  0.00     0.063 A 
HETATM    9  C   UNL     1      40.421 -14.017  -1.949  1.00  0.00     0.156 A 
HETATM   10  N   UNL     1      38.671 -12.978  -1.351  1.00  0.00    -0.277 N 
HETATM   11  C   UNL     1      38.294 -13.963   0.935  1.00  0.00     0.034 A 
HETATM   12  H   UNL     1      37.902 -12.324  -1.440  1.00  0.00     0.189 HD
HETATM   13  N   UNL     1      39.534 -13.087  -2.372  1.00  0.00    -0.168 NA
HETATM   14  C   UNL     1      38.850 -14.890   1.823  1.00  0.00     0.032 A 
BRANCH   9  15
HETATM   15  C   UNL     1      41.548 -14.431  -2.798  1.00  0.00     0.270 C 
HETATM   16  N   UNL     1      42.622 -13.583  -2.749  1.00  0.00    -0.365 N 
HETATM   17  H   UNL     1      42.566 -12.763  -2.159  1.00  0.00     0.159 HD
HETATM   18  H   UNL     1      43.439 -13.782  -3.304  1.00  0.00     0.159 HD
HETATM   19  O   UNL     1      41.564 -15.434  -3.500  1.00  0.00    -0.266 OA
ENDBRANCH   9  15
ENDBRANCH   2   5
BRANCH   1  20
HETATM   20  C   UNL     1      41.382 -17.424   4.542  1.00  0.00     0.107 C 
BRANCH  20  21
HETATM   21  C   UNL     1      42.784 -17.440   5.172  1.00  0.00    -0.006 C 
HETATM   22  C   UNL     1      42.850 -18.215   6.493  1.00  0.00     0.011 C 
BRANCH  21  23
HETATM   23  C   UNL     1      43.886 -17.866   4.170  1.00  0.00     0.046 C 
BRANCH  23  24
HETATM   24  C   UNL     1      44.006 -19.274   3.605  1.00  0.00    -0.024 A 
HETATM   25  C   UNL     1      43.448 -19.534   2.329  1.00  0.00     0.074 A 
HETATM   26  C   UNL     1      43.515 -20.818   1.772  1.00  0.00     0.037 A 
HETATM   27  C   UNL     1      44.154 -21.850   2.455  1.00  0.00     0.003 A 
HETATM   28  C   UNL     1      44.731 -21.603   3.693  1.00  0.00     0.001 A 
HETATM   29  C   UNL     1      44.661 -20.327   4.259  1.00  0.00     0.010 A 
BRANCH  25  30
HETATM   30  O   UNL     1      42.839 -18.468   1.713  1.00  0.00    -0.355 OA
HETATM   31  C   UNL     1      43.644 -17.669   0.855  1.00  0.00     0.210 C 
ENDBRANCH  25  30
ENDBRANCH  23  24
ENDBRANCH  21  23
ENDBRANCH  20  21
ENDBRANCH   1  20
TORSDOF 7
ENDMDL
MODEL 3
REMARK VINA RESULT:      -7.8      1.647      3.717
REMARK  7 active torsions:
REMARK  status: ('A' for Active; 'I' for Inactive)
REMARK    1  A    between atoms: C_2  and  C_3 
REMARK    2  A    between atoms: C_2  and  C_20 
REMARK    3  A    between atoms: C_3  and  C_4 
REMARK       I    between atoms: C_4  and  N_5 
REMARK    4  A    between atoms: N_5  and  C_6 
REMARK    5  A    between atoms: C_13  and  C_14 
REMARK       I    between atoms: C_14  and  N_15 
REMARK    6  A    between atoms: C_20  and  C_21 
REMARK    7  A    between atoms: C_22  and  O_23 
ROOT
HETATM    1  C   UNL     1      41.064 -15.903   3.710  1.00  0.00     0.222 C 
HETATM    2  N   UNL     1      40.395 -16.296   2.562  1.00  0.00    -0.327 N 
HETATM    3  O   UNL     1      41.447 -14.772   3.980  1.00  0.00    -0.273 OA
HETATM    4  H   UNL     1      40.203 -17.285   2.468  1.00  0.00     0.169 HD
ENDROOT
BRANCH   2   5
HETATM    5  C   UNL     1      39.916 -15.481   1.515  1.00  0.00     0.035 A 
HETATM    6  C   UNL     1      40.569 -15.318   0.286  1.00  0.00     0.046 A 
HETATM    7  C   UNL     1      40.014 -14.457  -0.689  1.00  0.00     0.030 A 
HETATM    8  C   UNL     1      38.831 -13.789  -0.398  1.00  0.00     0.063 A 
HETATM    9  C   UNL     1      40.357 -14.040  -2.011  1.00  0.00     0.156 A 
HETATM   10  N   UNL     1      38.554 -13.042  -1.508  1.00  0.00    -0.277 N 
HETATM   11  C   UNL     1      38.154 -13.928   0.813  1.00  0.00     0.034 A 
HETATM   12  H   UNL     1      37.763 -12.424  -1.649  1.00  0.00     0.189 HD
HETATM   13  N   UNL     1      39.447 -13.167  -2.502  1.00  0.00    -0.168 NA
HETATM   14  C   UNL     1      38.721 -14.789   1.760  1.00  0.00     0.032 A 
BRANCH   9  15
HETATM   15  C   UNL     1      41.521 -14.451  -2.811  1.00  0.00     0.270 C 
HETATM   16  N   UNL     1      42.585 -13.594  -2.725  1.00  0.00    -0.365 N 
HETATM   17  H   UNL     1      42.498 -12.769  -2.144  1.00  0.00     0.159 HD
HETATM   18  H   UNL     1      43.425 -13.789  -3.245  1.00  0.00     0.159 HD
HETATM   19  O   UNL     1      41.573 -15.458  -3.504  1.00  0.00    -0.266 OA
ENDBRANCH   9  15
ENDBRANCH   2   5
BRANCH   1  20
HETATM   20  C   UNL     1      41.326 -17.083   4.641  1.00  0.00     0.107 C 
BRANCH  20  21
HETATM   21  C   UNL     1      42.517 -16.857   5.587  1.00  0.00    -0.006 C 
HETATM   22  C   UNL     1      42.263 -17.349   7.016  1.00  0.00     0.011 C 
BRANCH  21  23
HETATM   23  C   UNL     1      43.854 -17.376   5.001  1.00  0.00     0.046 C 
BRANCH  23  24
HETATM   24  C   UNL     1      43.946 -18.549   4.035  1.00  0.00    -0.024 A 
HETATM   25  C   UNL     1      44.353 -19.806   4.545  1.00  0.00     0.074 A 
HETATM   26  C   UNL     1      44.473 -20.913   3.695  1.00  0.00     0.037 A 
HETATM   27  C   UNL     1      44.169 -20.797   2.340  1.00  0.00     0.003 A 
HETATM   28  C   UNL     1      43.742 -19.579   1.831  1.00  0.00     0.001 A 
HETATM   29  C   UNL     1      43.628 -18.468   2.672  1.00  0.00     0.010 A 
BRANCH  25  30
HETATM   30  O   UNL     1      44.631 -19.846   5.890  1.00  0.00    -0.355 OA
HETATM   31  C   UNL     1      43.817 -20.690   6.694  1.00  0.00     0.210 C 
ENDBRANCH  25  30
ENDBRANCH  23  24
ENDBRANCH  21  23
ENDBRANCH  20  21
ENDBRANCH   1  20
TORSDOF 7
ENDMDL
MODEL 4
REMARK VINA RESULT:      -7.7      2.402      4.405
REMARK  7 active torsions:
REMARK  status: ('A' for Active; 'I' for Inactive)
REMARK    1  A    between atoms: C_2  and  C_3 
REMARK    2  A    between atoms: C_2  and  C_20 
REMARK    3  A    between atoms: C_3  and  C_4 
REMARK       I    between atoms: C_4  and  N_5 
REMARK    4  A    between atoms: N_5  and  C_6 
REMARK    5  A    between atoms: C_13  and  C_14 
REMARK       I    between atoms: C_14  and  N_15 
REMARK    6  A    between atoms: C_20  and  C_21 
REMARK    7  A    between atoms: C_22  and  O_23 
ROOT
HETATM    1  C   UNL     1      40.469 -16.031   1.478  1.00  0.00     0.222 C 
HETATM    2  N   UNL     1      41.326 -16.149   0.395  1.00  0.00    -0.327 N 
HETATM    3  O   UNL     1      39.711 -15.099   1.710  1.00  0.00    -0.273 OA
HETATM    4  H   UNL     1      41.931 -16.959   0.386  1.00  0.00     0.169 HD
ENDROOT
BRANCH   2   5
HETATM    5  C   UNL     1      41.438 -15.292  -0.719  1.00  0.00     0.035 A 
HETATM    6  C   UNL     1      41.955 -13.990  -0.659  1.00  0.00     0.046 A 
HETATM    7  C   UNL     1      42.001 -13.205  -1.834  1.00  0.00     0.030 A 
HETATM    8  C   UNL     1      41.528 -13.747  -3.022  1.00  0.00     0.063 A 
HETATM    9  C   UNL     1      42.437 -11.889  -2.177  1.00  0.00     0.156 A 
HETATM   10  N   UNL     1      41.695 -12.767  -3.960  1.00  0.00    -0.277 N 
HETATM   11  C   UNL     1      41.009 -15.038  -3.119  1.00  0.00     0.034 A 
HETATM   12  H   UNL     1      41.454 -12.813  -4.944  1.00  0.00     0.189 HD
HETATM   13  N   UNL     1      42.241 -11.634  -3.491  1.00  0.00    -0.168 NA
HETATM   14  C   UNL     1      40.977 -15.797  -1.944  1.00  0.00     0.032 A 
BRANCH   9  15
HETATM   15  C   UNL     1      43.032 -10.878  -1.290  1.00  0.00     0.270 C 
HETATM   16  N   UNL     1      43.472  -9.757  -1.941  1.00  0.00    -0.365 N 
HETATM   17  H   UNL     1      43.366  -9.707  -2.947  1.00  0.00     0.159 HD
HETATM   18  H   UNL     1      43.902  -9.012  -1.416  1.00  0.00     0.159 HD
HETATM   19  O   UNL     1      43.142 -10.990  -0.076  1.00  0.00    -0.266 OA
ENDBRANCH   9  15
ENDBRANCH   2   5
BRANCH   1  20
HETATM   20  C   UNL     1      40.591 -17.221   2.426  1.00  0.00     0.107 C 
BRANCH  20  21
HETATM   21  C   UNL     1      41.629 -17.005   3.539  1.00  0.00    -0.006 C 
HETATM   22  C   UNL     1      41.219 -17.618   4.883  1.00  0.00     0.011 C 
BRANCH  21  23
HETATM   23  C   UNL     1      43.062 -17.406   3.108  1.00  0.00     0.046 C 
BRANCH  23  24
HETATM   24  C   UNL     1      43.527 -18.849   2.983  1.00  0.00    -0.024 A 
HETATM   25  C   UNL     1      44.349 -19.380   4.006  1.00  0.00     0.074 A 
HETATM   26  C   UNL     1      44.820 -20.697   3.929  1.00  0.00     0.037 A 
HETATM   27  C   UNL     1      44.464 -21.511   2.856  1.00  0.00     0.003 A 
HETATM   28  C   UNL     1      43.635 -21.014   1.860  1.00  0.00     0.001 A 
HETATM   29  C   UNL     1      43.169 -19.698   1.926  1.00  0.00     0.010 A 
BRANCH  25  30
HETATM   30  O   UNL     1      44.655 -18.522   5.035  1.00  0.00    -0.355 OA
HETATM   31  C   UNL     1      44.361 -18.963   6.355  1.00  0.00     0.210 C 
ENDBRANCH  25  30
ENDBRANCH  23  24
ENDBRANCH  21  23
ENDBRANCH  20  21
ENDBRANCH   1  20
TORSDOF 7
ENDMDL
MODEL 5
REMARK VINA RESULT:      -7.6      2.475      4.349
REMARK  7 active torsions:
REMARK  status: ('A' for Active; 'I' for Inactive)
REMARK    1  A    between atoms: C_2  and  C_3 
REMARK    2  A    between atoms: C_2  and  C_20 
REMARK    3  A    between atoms: C_3  and  C_4 
REMARK       I    between atoms: C_4  and  N_5 
REMARK    4  A    between atoms: N_5  and  C_6 
REMARK    5  A    between atoms: C_13  and  C_14 
REMARK       I    between atoms: C_14  and  N_15 
REMARK    6  A    between atoms: C_20  and  C_21 
REMARK    7  A    between atoms: C_22  and  O_23 
ROOT
HETATM    1  C   UNL     1      41.549 -16.964   5.282  1.00  0.00     0.222 C 
HETATM    2  N   UNL     1      41.999 -16.458   4.073  1.00  0.00    -0.327 N 
HETATM    3  O   UNL     1      40.815 -16.397   6.081  1.00  0.00    -0.273 OA
HETATM    4  H   UNL     1      42.652 -17.035   3.558  1.00  0.00     0.169 HD
ENDROOT
BRANCH   2   5
HETATM    5  C   UNL     1      41.636 -15.246   3.450  1.00  0.00     0.035 A 
HETATM    6  C   UNL     1      40.559 -15.111   2.563  1.00  0.00     0.046 A 
HETATM    7  C   UNL     1      40.295 -13.853   1.975  1.00  0.00     0.030 A 
HETATM    8  C   UNL     1      41.117 -12.779   2.291  1.00  0.00     0.063 A 
HETATM    9  C   UNL     1      39.333 -13.324   1.062  1.00  0.00     0.156 A 
HETATM   10  N   UNL     1      40.625 -11.722   1.577  1.00  0.00    -0.277 N 
HETATM   11  C   UNL     1      42.195 -12.875   3.171  1.00  0.00     0.034 A 
HETATM   12  H   UNL     1      40.982 -10.774   1.562  1.00  0.00     0.189 HD
HETATM   13  N   UNL     1      39.551 -12.009   0.826  1.00  0.00    -0.168 NA
HETATM   14  C   UNL     1      42.434 -14.130   3.744  1.00  0.00     0.032 A 
BRANCH   9  15
HETATM   15  C   UNL     1      38.221 -14.035   0.414  1.00  0.00     0.270 C 
HETATM   16  N   UNL     1      38.410 -14.263  -0.923  1.00  0.00    -0.365 N 
HETATM   17  H   UNL     1      39.265 -13.937  -1.355  1.00  0.00     0.159 HD
HETATM   18  H   UNL     1      37.697 -14.739  -1.452  1.00  0.00     0.159 HD
HETATM   19  O   UNL     1      37.201 -14.405   0.982  1.00  0.00    -0.266 OA
ENDBRANCH   9  15
ENDBRANCH   2   5
BRANCH   1  20
HETATM   20  C   UNL     1      42.112 -18.355   5.556  1.00  0.00     0.107 C 
BRANCH  20  21
HETATM   21  C   UNL     1      43.562 -18.332   6.068  1.00  0.00    -0.006 C 
HETATM   22  C   UNL     1      43.770 -19.152   7.347  1.00  0.00     0.011 C 
BRANCH  21  23
HETATM   23  C   UNL     1      44.592 -18.672   4.963  1.00  0.00     0.046 C 
BRANCH  23  24
HETATM   24  C   UNL     1      44.416 -19.815   3.974  1.00  0.00    -0.024 A 
HETATM   25  C   UNL     1      43.923 -19.513   2.681  1.00  0.00     0.074 A 
HETATM   26  C   UNL     1      43.724 -20.532   1.740  1.00  0.00     0.037 A 
HETATM   27  C   UNL     1      44.032 -21.853   2.056  1.00  0.00     0.003 A 
HETATM   28  C   UNL     1      44.544 -22.161   3.309  1.00  0.00     0.001 A 
HETATM   29  C   UNL     1      44.737 -21.151   4.256  1.00  0.00     0.010 A 
BRANCH  25  30
HETATM   30  O   UNL     1      43.645 -18.190   2.439  1.00  0.00    -0.355 OA
HETATM   31  C   UNL     1      43.783 -17.734   1.099  1.00  0.00     0.210 C 
ENDBRANCH  25  30
ENDBRANCH  23  24
ENDBRANCH  21  23
ENDBRANCH  20  21
ENDBRANCH   1  20
TORSDOF 7
ENDMDL
MODEL 6
REMARK VINA RESULT:      -7.5      3.312      5.817
REMARK  7 active torsions:
REMARK  status: ('A' for Active; 'I' for Inactive)
REMARK    1  A    between atoms: C_2  and  C_3 
REMARK    2  A    between atoms: C_2  and  C_20 
REMARK    3  A    between atoms: C_3  and  C_4 
REMARK       I    between atoms: C_4  and  N_5 
REMARK    4  A    between atoms: N_5  and  C_6 
REMARK    5  A    between atoms: C_13  and  C_14 
REMARK       I    between atoms: C_14  and  N_15 
REMARK    6  A    between atoms: C_20  and  C_21 
REMARK    7  A    between atoms: C_22  and  O_23 
ROOT
HETATM    1  C   UNL     1      41.110 -16.307   1.685  1.00  0.00     0.222 C 
HETATM    2  N   UNL     1      41.696 -15.444   2.597  1.00  0.00    -0.327 N 
HETATM    3  O   UNL     1      39.980 -16.774   1.745  1.00  0.00    -0.273 OA
HETATM    4  H   UNL     1      42.663 -15.200   2.428  1.00  0.00     0.169 HD
ENDROOT
BRANCH   2   5
HETATM    5  C   UNL     1      41.100 -14.835   3.721  1.00  0.00     0.035 A 
HETATM    6  C   UNL     1      40.531 -13.554   3.709  1.00  0.00     0.046 A 
HETATM    7  C   UNL     1      39.980 -13.027   4.900  1.00  0.00     0.030 A 
HETATM    8  C   UNL     1      40.022 -13.795   6.056  1.00  0.00     0.063 A 
HETATM    9  C   UNL     1      39.333 -11.814   5.287  1.00  0.00     0.156 A 
HETATM   10  N   UNL     1      39.431 -13.030   7.022  1.00  0.00    -0.277 N 
HETATM   11  C   UNL     1      40.578 -15.074   6.104  1.00  0.00     0.034 A 
HETATM   12  H   UNL     1      39.290 -13.274   7.996  1.00  0.00     0.189 HD
HETATM   13  N   UNL     1      39.001 -11.832   6.598  1.00  0.00    -0.168 NA
HETATM   14  C   UNL     1      41.114 -15.575   4.912  1.00  0.00     0.032 A 
BRANCH   9  15
HETATM   15  C   UNL     1      39.025 -10.649   4.444  1.00  0.00     0.270 C 
HETATM   16  N   UNL     1      37.824 -10.735   3.793  1.00  0.00    -0.365 N 
HETATM   17  H   UNL     1      37.256 -11.563   3.929  1.00  0.00     0.159 HD
HETATM   18  H   UNL     1      37.531  -9.986   3.186  1.00  0.00     0.159 HD
HETATM   19  O   UNL     1      39.750  -9.672   4.308  1.00  0.00    -0.266 OA
ENDBRANCH   9  15
ENDBRANCH   2   5
BRANCH   1  20
HETATM   20  C   UNL     1      42.069 -16.669   0.554  1.00  0.00     0.107 C 
BRANCH  20  21
HETATM   21  C   UNL     1      43.118 -17.717   0.961  1.00  0.00    -0.006 C 
HETATM   22  C   UNL     1      44.454 -17.105   1.395  1.00  0.00     0.011 C 
BRANCH  21  23
HETATM   23  C   UNL     1      42.570 -18.748   1.978  1.00  0.00     0.046 C 
BRANCH  23  24
HETATM   24  C   UNL     1      43.396 -19.900   2.531  1.00  0.00    -0.024 A 
HETATM   25  C   UNL     1      43.966 -19.758   3.820  1.00  0.00     0.074 A 
HETATM   26  C   UNL     1      44.751 -20.781   4.368  1.00  0.00     0.037 A 
HETATM   27  C   UNL     1      44.960 -21.963   3.661  1.00  0.00     0.003 A 
HETATM   28  C   UNL     1      44.384 -22.129   2.409  1.00  0.00     0.001 A 
HETATM   29  C   UNL     1      43.607 -21.109   1.853  1.00  0.00     0.010 A 
BRANCH  25  30
HETATM   30  O   UNL     1      43.713 -18.568   4.459  1.00  0.00    -0.355 OA
HETATM   31  C   UNL     1      44.492 -18.276   5.613  1.00  0.00     0.210 C 
ENDBRANCH  25  30
ENDBRANCH  23  24
ENDBRANCH  21  23
ENDBRANCH  20  21
ENDBRANCH   1  20
TORSDOF 7
ENDMDL
MODEL 7
REMARK VINA RESULT:      -7.5      6.206      8.969
REMARK  7 active torsions:
REMARK  status: ('A' for Active; 'I' for Inactive)
REMARK    1  A    between atoms: C_2  and  C_3 
REMARK    2  A    between atoms: C_2  and  C_20 
REMARK    3  A    between atoms: C_3  and  C_4 
REMARK       I    between atoms: C_4  and  N_5 
REMARK    4  A    between atoms: N_5  and  C_6 
REMARK    5  A    between atoms: C_13  and  C_14 
REMARK       I    between atoms: C_14  and  N_15 
REMARK    6  A    between atoms: C_20  and  C_21 
REMARK    7  A    between atoms: C_22  and  O_23 
ROOT
HETATM    1  C   UNL     1      45.547 -12.730   8.077  1.00  0.00     0.222 C 
HETATM    2  N   UNL     1      44.362 -13.433   7.930  1.00  0.00    -0.327 N 
HETATM    3  O   UNL     1      46.544 -12.826   7.373  1.00  0.00    -0.273 OA
HETATM    4  H   UNL     1      43.655 -13.278   8.637  1.00  0.00     0.169 HD
ENDROOT
BRANCH   2   5
HETATM    5  C   UNL     1      44.002 -14.320   6.894  1.00  0.00     0.035 A 
HETATM    6  C   UNL     1      44.026 -15.716   7.013  1.00  0.00     0.046 A 
HETATM    7  C   UNL     1      43.667 -16.515   5.903  1.00  0.00     0.030 A 
HETATM    8  C   UNL     1      43.303 -15.891   4.716  1.00  0.00     0.063 A 
HETATM    9  C   UNL     1      43.565 -17.913   5.629  1.00  0.00     0.156 A 
HETATM   10  N   UNL     1      43.024 -16.905   3.844  1.00  0.00    -0.277 N 
HETATM   11  C   UNL     1      43.266 -14.505   4.563  1.00  0.00     0.034 A 
HETATM   12  H   UNL     1      42.727 -16.818   2.878  1.00  0.00     0.189 HD
HETATM   13  N   UNL     1      43.168 -18.137   4.356  1.00  0.00    -0.168 NA
HETATM   14  C   UNL     1      43.621 -13.735   5.677  1.00  0.00     0.032 A 
BRANCH   9  15
HETATM   15  C   UNL     1      43.834 -19.031   6.546  1.00  0.00     0.270 C 
HETATM   16  N   UNL     1      44.337 -20.146   5.931  1.00  0.00    -0.365 N 
HETATM   17  H   UNL     1      44.478 -20.125   4.929  1.00  0.00     0.159 HD
HETATM   18  H   UNL     1      44.545 -20.966   6.478  1.00  0.00     0.159 HD
HETATM   19  O   UNL     1      43.639 -19.008   7.754  1.00  0.00    -0.266 OA
ENDBRANCH   9  15
ENDBRANCH   2   5
BRANCH   1  20
HETATM   20  C   UNL     1      45.505 -11.800   9.286  1.00  0.00     0.107 C 
BRANCH  20  21
HETATM   21  C   UNL     1      44.247 -11.987  10.151  1.00  0.00    -0.006 C 
HETATM   22  C   UNL     1      44.485 -12.853  11.393  1.00  0.00     0.011 C 
BRANCH  21  23
HETATM   23  C   UNL     1      43.541 -10.648  10.478  1.00  0.00     0.046 C 
BRANCH  23  24
HETATM   24  C   UNL     1      42.978 -10.311  11.851  1.00  0.00    -0.024 A 
HETATM   25  C   UNL     1      41.653 -10.714  12.149  1.00  0.00     0.074 A 
HETATM   26  C   UNL     1      41.080 -10.411  13.391  1.00  0.00     0.037 A 
HETATM   27  C   UNL     1      41.815  -9.731  14.359  1.00  0.00     0.003 A 
HETATM   28  C   UNL     1      43.124  -9.354  14.092  1.00  0.00     0.001 A 
HETATM   29  C   UNL     1      43.700  -9.645  12.852  1.00  0.00     0.010 A 
BRANCH  25  30
HETATM   30  O   UNL     1      40.991 -11.385  11.150  1.00  0.00    -0.355 OA
HETATM   31  C   UNL     1      39.924 -10.699  10.506  1.00  0.00     0.210 C 
ENDBRANCH  25  30
ENDBRANCH  23  24
ENDBRANCH  21  23
ENDBRANCH  20  21
ENDBRANCH   1  20
TORSDOF 7
ENDMDL
MODEL 8
REMARK VINA RESULT:      -7.4      2.385      4.299
REMARK  7 active torsions:
REMARK  status: ('A' for Active; 'I' for Inactive)
REMARK    1  A    between atoms: C_2  and  C_3 
REMARK    2  A    between atoms: C_2  and  C_20 
REMARK    3  A    between atoms: C_3  and  C_4 
REMARK       I    between atoms: C_4  and  N_5 
REMARK    4  A    between atoms: N_5  and  C_6 
REMARK    5  A    between atoms: C_13  and  C_14 
REMARK       I    between atoms: C_14  and  N_15 
REMARK    6  A    between atoms: C_20  and  C_21 
REMARK    7  A    between atoms: C_22  and  O_23 
ROOT
HETATM    1  C   UNL     1      41.101 -16.331   2.359  1.00  0.00     0.222 C 
HETATM    2  N   UNL     1      41.107 -14.987   2.022  1.00  0.00    -0.327 N 
HETATM    3  O   UNL     1      40.286 -17.169   1.997  1.00  0.00    -0.273 OA
HETATM    4  H   UNL     1      41.820 -14.416   2.457  1.00  0.00     0.169 HD
ENDROOT
BRANCH   2   5
HETATM    5  C   UNL     1      40.258 -14.315   1.118  1.00  0.00     0.035 A 
HETATM    6  C   UNL     1      40.072 -14.699  -0.217  1.00  0.00     0.046 A 
HETATM    7  C   UNL     1      39.214 -13.942  -1.047  1.00  0.00     0.030 A 
HETATM    8  C   UNL     1      38.577 -12.828  -0.513  1.00  0.00     0.063 A 
HETATM    9  C   UNL     1      38.775 -14.001  -2.404  1.00  0.00     0.156 A 
HETATM   10  N   UNL     1      37.836 -12.308  -1.538  1.00  0.00    -0.277 N 
HETATM   11  C   UNL     1      38.737 -12.418   0.810  1.00  0.00     0.034 A 
HETATM   12  H   UNL     1      37.243 -11.487  -1.509  1.00  0.00     0.189 HD
HETATM   13  N   UNL     1      37.927 -12.987  -2.691  1.00  0.00    -0.168 NA
HETATM   14  C   UNL     1      39.588 -13.186   1.613  1.00  0.00     0.032 A 
BRANCH   9  15
HETATM   15  C   UNL     1      39.142 -14.993  -3.426  1.00  0.00     0.270 C 
HETATM   16  N   UNL     1      38.197 -15.964  -3.623  1.00  0.00    -0.365 N 
HETATM   17  H   UNL     1      37.348 -15.934  -3.072  1.00  0.00     0.159 HD
HETATM   18  H   UNL     1      38.364 -16.692  -4.299  1.00  0.00     0.159 HD
HETATM   19  O   UNL     1      40.188 -14.988  -4.063  1.00  0.00    -0.266 OA
ENDBRANCH   9  15
ENDBRANCH   2   5
BRANCH   1  20
HETATM   20  C   UNL     1      42.247 -16.680   3.304  1.00  0.00     0.107 C 
BRANCH  20  21
HETATM   21  C   UNL     1      43.238 -17.692   2.706  1.00  0.00    -0.006 C 
HETATM   22  C   UNL     1      44.162 -17.086   1.643  1.00  0.00     0.011 C 
BRANCH  21  23
HETATM   23  C   UNL     1      44.009 -18.487   3.789  1.00  0.00     0.046 C 
BRANCH  23  24
HETATM   24  C   UNL     1      44.254 -19.987   3.713  1.00  0.00    -0.024 A 
HETATM   25  C   UNL     1      44.543 -20.681   4.913  1.00  0.00     0.074 A 
HETATM   26  C   UNL     1      44.796 -22.058   4.896  1.00  0.00     0.037 A 
HETATM   27  C   UNL     1      44.742 -22.769   3.699  1.00  0.00     0.003 A 
HETATM   28  C   UNL     1      44.432 -22.108   2.518  1.00  0.00     0.001 A 
HETATM   29  C   UNL     1      44.187 -20.732   2.527  1.00  0.00     0.010 A 
BRANCH  25  30
HETATM   30  O   UNL     1      44.575 -19.916   6.055  1.00  0.00    -0.355 OA
HETATM   31  C   UNL     1      43.765 -20.345   7.143  1.00  0.00     0.210 C 
ENDBRANCH  25  30
ENDBRANCH  23  24
ENDBRANCH  21  23
ENDBRANCH  20  21
ENDBRANCH   1  20
TORSDOF 7
ENDMDL
MODEL 9
REMARK VINA RESULT:      -7.4      2.806      6.773
REMARK  7 active torsions:
REMARK  status: ('A' for Active; 'I' for Inactive)
REMARK    1  A    between atoms: C_2  and  C_3 
REMARK    2  A    between atoms: C_2  and  C_20 
REMARK    3  A    between atoms: C_3  and  C_4 
REMARK       I    between atoms: C_4  and  N_5 
REMARK    4  A    between atoms: N_5  and  C_6 
REMARK    5  A    between atoms: C_13  and  C_14 
REMARK       I    between atoms: C_14  and  N_15 
REMARK    6  A    between atoms: C_20  and  C_21 
REMARK    7  A    between atoms: C_22  and  O_23 
ROOT
HETATM    1  C   UNL     1      41.278 -16.710   1.207  1.00  0.00     0.222 C 
HETATM    2  N   UNL     1      42.590 -17.036   1.511  1.00  0.00    -0.327 N 
HETATM    3  O   UNL     1      40.273 -17.154   1.746  1.00  0.00    -0.273 OA
HETATM    4  H   UNL     1      43.304 -16.622   0.926  1.00  0.00     0.169 HD
ENDROOT
BRANCH   2   5
HETATM    5  C   UNL     1      43.060 -17.852   2.561  1.00  0.00     0.035 A 
HETATM    6  C   UNL     1      42.854 -17.579   3.920  1.00  0.00     0.046 A 
HETATM    7  C   UNL     1      43.389 -18.452   4.895  1.00  0.00     0.030 A 
HETATM    8  C   UNL     1      44.112 -19.562   4.476  1.00  0.00     0.063 A 
HETATM    9  C   UNL     1      43.400 -18.523   6.321  1.00  0.00     0.156 A 
HETATM   10  N   UNL     1      44.498 -20.198   5.623  1.00  0.00    -0.277 N 
HETATM   11  C   UNL     1      44.334 -19.867   3.133  1.00  0.00     0.034 A 
HETATM   12  H   UNL     1      45.046 -21.047   5.698  1.00  0.00     0.189 HD
HETATM   13  N   UNL     1      44.088 -19.604   6.754  1.00  0.00    -0.168 NA
HETATM   14  C   UNL     1      43.791 -18.989   2.187  1.00  0.00     0.032 A 
BRANCH   9  15
HETATM   15  C   UNL     1      42.774 -17.592   7.273  1.00  0.00     0.270 C 
HETATM   16  N   UNL     1      43.387 -17.553   8.496  1.00  0.00    -0.365 N 
HETATM   17  H   UNL     1      44.192 -18.145   8.655  1.00  0.00     0.159 HD
HETATM   18  H   UNL     1      43.024 -16.949   9.216  1.00  0.00     0.159 HD
HETATM   19  O   UNL     1      41.794 -16.899   7.032  1.00  0.00    -0.266 OA
ENDBRANCH   9  15
ENDBRANCH   2   5
BRANCH   1  20
HETATM   20  C   UNL     1      41.197 -15.719   0.050  1.00  0.00     0.107 C 
BRANCH  20  21
HETATM   21  C   UNL     1      41.783 -14.339   0.391  1.00  0.00    -0.006 C 
HETATM   22  C   UNL     1      41.787 -13.368  -0.795  1.00  0.00     0.011 C 
BRANCH  21  23
HETATM   23  C   UNL     1      41.161 -13.724   1.669  1.00  0.00     0.046 C 
BRANCH  23  24
HETATM   24  C   UNL     1      41.851 -13.733   3.025  1.00  0.00    -0.024 A 
HETATM   25  C   UNL     1      41.057 -13.537   4.182  1.00  0.00     0.074 A 
HETATM   26  C   UNL     1      41.646 -13.517   5.453  1.00  0.00     0.037 A 
HETATM   27  C   UNL     1      43.017 -13.715   5.598  1.00  0.00     0.003 A 
HETATM   28  C   UNL     1      43.803 -13.938   4.476  1.00  0.00     0.001 A 
HETATM   29  C   UNL     1      43.225 -13.950   3.204  1.00  0.00     0.010 A 
BRANCH  25  30
HETATM   30  O   UNL     1      39.714 -13.353   3.963  1.00  0.00    -0.355 OA
HETATM   31  C   UNL     1      39.148 -12.125   4.406  1.00  0.00     0.210 C 
ENDBRANCH  25  30
ENDBRANCH  23  24
ENDBRANCH  21  23
ENDBRANCH  20  21
ENDBRANCH   1  20
TORSDOF 7
ENDMDL
MODEL 10
REMARK VINA RESULT:      -7.4      3.831      6.593
REMARK  7 active torsions:
REMARK  status: ('A' for Active; 'I' for Inactive)
REMARK    1  A    between atoms: C_2  and  C_3 
REMARK    2  A    between atoms: C_2  and  C_20 
REMARK    3  A    between atoms: C_3  and  C_4 
REMARK       I    between atoms: C_4  and  N_5 
REMARK    4  A    between atoms: N_5  and  C_6 
REMARK    5  A    between atoms: C_13  and  C_14 
REMARK       I    between atoms: C_14  and  N_15 
REMARK    6  A    between atoms: C_20  and  C_21 
REMARK    7  A    between atoms: C_22  and  O_23 
ROOT
HETATM    1  C   UNL     1      41.447 -15.903   3.763  1.00  0.00     0.222 C 
HETATM    2  N   UNL     1      40.189 -15.321   3.778  1.00  0.00    -0.327 N 
HETATM    3  O   UNL     1      42.518 -15.327   3.903  1.00  0.00    -0.273 OA
HETATM    4  H   UNL     1      39.407 -15.934   3.587  1.00  0.00     0.169 HD
ENDROOT
BRANCH   2   5
HETATM    5  C   UNL     1      39.857 -13.980   4.060  1.00  0.00     0.035 A 
HETATM    6  C   UNL     1      39.900 -13.413   5.341  1.00  0.00     0.046 A 
HETATM    7  C   UNL     1      39.523 -12.062   5.518  1.00  0.00     0.030 A 
HETATM    8  C   UNL     1      39.115 -11.329   4.410  1.00  0.00     0.063 A 
HETATM    9  C   UNL     1      39.434 -11.152   6.615  1.00  0.00     0.156 A 
HETATM   10  N   UNL     1      38.815 -10.085   4.889  1.00  0.00    -0.277 N 
HETATM   11  C   UNL     1      39.063 -11.859   3.121  1.00  0.00     0.034 A 
HETATM   12  H   UNL     1      38.480  -9.288   4.358  1.00  0.00     0.189 HD
HETATM   13  N   UNL     1      38.995  -9.937   6.210  1.00  0.00    -0.168 NA
HETATM   14  C   UNL     1      39.444 -13.198   2.971  1.00  0.00     0.032 A 
BRANCH   9  15
HETATM   15  C   UNL     1      39.755 -11.409   8.026  1.00  0.00     0.270 C 
HETATM   16  N   UNL     1      41.032 -11.063   8.379  1.00  0.00    -0.365 N 
HETATM   17  H   UNL     1      41.642 -10.674   7.671  1.00  0.00     0.159 HD
HETATM   18  H   UNL     1      41.345 -11.211   9.325  1.00  0.00     0.159 HD
HETATM   19  O   UNL     1      38.980 -11.890   8.844  1.00  0.00    -0.266 OA
ENDBRANCH   9  15
ENDBRANCH   2   5
BRANCH   1  20
HETATM   20  C   UNL     1      41.370 -17.405   3.507  1.00  0.00     0.107 C 
BRANCH  20  21
HETATM   21  C   UNL     1      41.896 -17.812   2.121  1.00  0.00    -0.006 C 
HETATM   22  C   UNL     1      41.617 -16.769   1.033  1.00  0.00     0.011 C 
BRANCH  21  23
HETATM   23  C   UNL     1      43.377 -18.265   2.152  1.00  0.00     0.046 C 
BRANCH  23  24
HETATM   24  C   UNL     1      43.820 -19.652   2.593  1.00  0.00    -0.024 A 
HETATM   25  C   UNL     1      44.394 -19.796   3.879  1.00  0.00     0.074 A 
HETATM   26  C   UNL     1      44.836 -21.048   4.326  1.00  0.00     0.037 A 
HETATM   27  C   UNL     1      44.693 -22.174   3.519  1.00  0.00     0.003 A 
HETATM   28  C   UNL     1      44.105 -22.055   2.267  1.00  0.00     0.001 A 
HETATM   29  C   UNL     1      43.670 -20.808   1.812  1.00  0.00     0.010 A 
BRANCH  25  30
HETATM   30  O   UNL     1      44.499 -18.644   4.621  1.00  0.00    -0.355 OA
HETATM   31  C   UNL     1      44.090 -18.710   5.981  1.00  0.00     0.210 C 
ENDBRANCH  25  30
ENDBRANCH  23  24
ENDBRANCH  21  23
ENDBRANCH  20  21
ENDBRANCH   1  20
TORSDOF 7
ENDMDL
