MODEL 1
REMARK VINA RESULT:      -9.8      0.000      0.000
REMARK  7 active torsions:
REMARK  status: ('A' for Active; 'I' for Inactive)
REMARK    1  A    between atoms: N_1  and  C_5 
REMARK    2  A    between atoms: C_11  and  N_12 
REMARK       I    between atoms: N_12  and  C_13 
REMARK    3  A    between atoms: C_13  and  C_15 
REMARK    4  A    between atoms: C_19  and  C_20 
REMARK    5  A    between atoms: C_20  and  N_21 
REMARK       I    between atoms: N_21  and  C_22 
REMARK    6  A    between atoms: C_22  and  C_24 
REMARK    7  A    between atoms: C_27  and  C_30 
ROOT
HETATM    1  C   UNL     1      40.699 -11.283   6.136  1.00  0.00     0.033 A 
HETATM    2  C   UNL     1      39.314 -11.464   6.043  1.00  0.00     0.017 A 
HETATM    3  C   UNL     1      38.756 -11.987   4.877  1.00  0.00     0.002 A 
HETATM    4  C   UNL     1      39.576 -12.332   3.801  1.00  0.00     0.009 A 
HETATM    5  C   UNL     1      40.964 -12.181   3.889  1.00  0.00    -0.040 A 
HETATM    6  C   UNL     1      41.520 -11.662   5.068  1.00  0.00     0.026 A 
ENDROOT
BRANCH   1   7
HETATM    7  C   UNL     1      41.267 -10.724   7.386  1.00  0.00     0.257 C 
HETATM    8  N   UNL     1      40.725 -11.198   8.620  1.00  0.00    -0.303 N 
HETATM    9  H   UNL     1      40.114 -12.001   8.633  1.00  0.00     0.171 HD
HETATM   10  O   UNL     1      42.159  -9.897   7.381  1.00  0.00    -0.267 OA
BRANCH   8  11
HETATM   11  C   UNL     1      40.988 -10.651   9.801  1.00  0.00     0.152 A 
HETATM   12  N   UNL     1      42.195 -10.802  10.387  1.00  0.00    -0.339 N 
HETATM   13  C   UNL     1      42.282 -10.216  11.632  1.00  0.00     0.024 A 
HETATM   14  H   UNL     1      42.943 -11.302   9.909  1.00  0.00     0.168 HD
HETATM   15  C   UNL     1      43.516 -10.319  12.451  1.00  0.00     0.060 C 
HETATM   16  C   UNL     1      41.138  -9.581  12.028  1.00  0.00     0.011 A 
HETATM   17  C   UNL     1      43.490  -9.295  13.611  1.00  0.00     0.039 C 
HETATM   18  C   UNL     1      42.115  -9.110  14.295  1.00  0.00     0.188 C 
HETATM   19  C   UNL     1      40.971  -8.801  13.295  1.00  0.00     0.081 C 
HETATM   20  S   UNL     1      39.923  -9.739  10.847  1.00  0.00    -0.056 SA
BRANCH  18  21
HETATM   21  N   UNL     1      41.781 -10.327  15.105  1.00  0.00    -0.075 N 
HETATM   22  H   UNL     1      41.220 -11.001  14.560  1.00  0.00     0.274 HD
HETATM   23  H   UNL     1      42.638 -10.842  15.365  1.00  0.00     0.274 HD
HETATM   24  H   UNL     1      41.275 -10.139  15.980  1.00  0.00     0.274 HD
ENDBRANCH  18  21
ENDBRANCH   8  11
ENDBRANCH   1   7
BRANCH   5  25
HETATM   25  C   UNL     1      41.858 -12.498   2.717  1.00  0.00     0.161 C 
BRANCH  25  26
HETATM   26  N   UNL     1      42.198 -13.901   2.681  1.00  0.00    -0.353 N 
HETATM   27  C   UNL     1      43.394 -14.395   3.157  1.00  0.00     0.251 C 
HETATM   28  O   UNL     1      44.294 -13.690   3.608  1.00  0.00    -0.268 OA
HETATM   29  H   UNL     1      41.446 -14.546   2.481  1.00  0.00     0.163 HD
BRANCH  27  30
HETATM   30  C   UNL     1      43.530 -15.880   3.117  1.00  0.00     0.032 A 
HETATM   31  C   UNL     1      43.332 -16.669   4.258  1.00  0.00     0.018 A 
HETATM   32  C   UNL     1      43.504 -18.059   4.197  1.00  0.00     0.015 A 
HETATM   33  C   UNL     1      43.869 -18.684   2.996  1.00  0.00    -0.005 A 
HETATM   34  C   UNL     1      44.033 -17.885   1.852  1.00  0.00     0.015 A 
HETATM   35  C   UNL     1      43.862 -16.496   1.909  1.00  0.00     0.018 A 
BRANCH  33  36
HETATM   36  C   UNL     1      44.073 -20.127   2.900  1.00  0.00     0.091 A 
HETATM   37  C   UNL     1      44.681 -20.913   3.865  1.00  0.00     0.099 A 
HETATM   38  S   UNL     1      44.702 -22.528   3.279  1.00  0.00    -0.008 SA
HETATM   39  N   UNL     1      43.943 -22.117   1.848  1.00  0.00    -0.037 NA
HETATM   40  N   UNL     1      43.668 -20.827   1.765  1.00  0.00    -0.169 NA
ENDBRANCH  33  36
ENDBRANCH  27  30
ENDBRANCH  25  26
ENDBRANCH   5  25
TORSDOF 7
ENDMDL
MODEL 2
REMARK VINA RESULT:      -9.5      3.569     12.040
REMARK  7 active torsions:
REMARK  status: ('A' for Active; 'I' for Inactive)
REMARK    1  A    between atoms: N_1  and  C_5 
REMARK    2  A    between atoms: C_11  and  N_12 
REMARK       I    between atoms: N_12  and  C_13 
REMARK    3  A    between atoms: C_13  and  C_15 
REMARK    4  A    between atoms: C_19  and  C_20 
REMARK    5  A    between atoms: C_20  and  N_21 
REMARK       I    between atoms: N_21  and  C_22 
REMARK    6  A    between atoms: C_22  and  C_24 
REMARK    7  A    between atoms: C_27  and  C_30 
ROOT
HETATM    1  C   UNL     1      43.214 -14.820   4.700  1.00  0.00     0.033 A 
HETATM    2  C   UNL     1      42.803 -16.053   5.219  1.00  0.00     0.017 A 
HETATM    3  C   UNL     1      43.173 -16.422   6.513  1.00  0.00     0.002 A 
HETATM    4  C   UNL     1      43.950 -15.564   7.292  1.00  0.00     0.009 A 
HETATM    5  C   UNL     1      44.346 -14.318   6.795  1.00  0.00    -0.040 A 
HETATM    6  C   UNL     1      43.965 -13.948   5.497  1.00  0.00     0.026 A 
ENDROOT
BRANCH   1   7
HETATM    7  C   UNL     1      42.810 -14.451   3.322  1.00  0.00     0.257 C 
HETATM    8  N   UNL     1      41.813 -15.259   2.694  1.00  0.00    -0.303 N 
HETATM    9  H   UNL     1      41.291 -15.933   3.234  1.00  0.00     0.171 HD
HETATM   10  O   UNL     1      43.295 -13.503   2.735  1.00  0.00    -0.267 OA
BRANCH   8  11
HETATM   11  C   UNL     1      41.498 -15.178   1.407  1.00  0.00     0.152 A 
HETATM   12  N   UNL     1      40.852 -14.099   0.914  1.00  0.00    -0.339 N 
HETATM   13  C   UNL     1      40.555 -14.198  -0.428  1.00  0.00     0.024 A 
HETATM   14  H   UNL     1      40.637 -13.305   1.516  1.00  0.00     0.168 HD
HETATM   15  C   UNL     1      39.805 -13.131  -1.135  1.00  0.00     0.060 C 
HETATM   16  C   UNL     1      40.984 -15.361  -1.007  1.00  0.00     0.011 A 
HETATM   17  C   UNL     1      39.919 -13.305  -2.668  1.00  0.00     0.039 C 
HETATM   18  C   UNL     1      39.855 -14.767  -3.172  1.00  0.00     0.188 C 
HETATM   19  C   UNL     1      40.863 -15.704  -2.459  1.00  0.00     0.081 C 
HETATM   20  S   UNL     1      41.745 -16.360   0.141  1.00  0.00    -0.056 SA
BRANCH  18  21
HETATM   21  N   UNL     1      38.460 -15.296  -3.022  1.00  0.00    -0.075 N 
HETATM   22  H   UNL     1      38.084 -15.635  -3.922  1.00  0.00     0.274 HD
HETATM   23  H   UNL     1      38.445 -16.122  -2.400  1.00  0.00     0.274 HD
HETATM   24  H   UNL     1      37.782 -14.627  -2.635  1.00  0.00     0.274 HD
ENDBRANCH  18  21
ENDBRANCH   8  11
ENDBRANCH   1   7
BRANCH   5  25
HETATM   25  C   UNL     1      45.231 -13.403   7.605  1.00  0.00     0.161 C 
BRANCH  25  26
HETATM   26  N   UNL     1      44.476 -12.706   8.620  1.00  0.00    -0.353 N 
HETATM   27  C   UNL     1      44.895 -11.518   9.182  1.00  0.00     0.251 C 
HETATM   28  O   UNL     1      45.961 -10.971   8.911  1.00  0.00    -0.268 OA
HETATM   29  H   UNL     1      43.523 -13.009   8.766  1.00  0.00     0.163 HD
BRANCH  27  30
HETATM   30  C   UNL     1      43.941 -10.902  10.149  1.00  0.00     0.032 A 
HETATM   31  C   UNL     1      42.618 -10.608   9.793  1.00  0.00     0.018 A 
HETATM   32  C   UNL     1      41.757  -9.994  10.713  1.00  0.00     0.015 A 
HETATM   33  C   UNL     1      42.198  -9.671  12.004  1.00  0.00    -0.005 A 
HETATM   34  C   UNL     1      43.517 -10.001  12.358  1.00  0.00     0.015 A 
HETATM   35  C   UNL     1      44.381 -10.614  11.442  1.00  0.00     0.018 A 
BRANCH  33  36
HETATM   36  C   UNL     1      41.333  -9.016  12.982  1.00  0.00     0.091 A 
HETATM   37  C   UNL     1      40.225  -8.243  12.676  1.00  0.00     0.099 A 
HETATM   38  S   UNL     1      39.561  -7.681  14.157  1.00  0.00    -0.008 SA
HETATM   39  N   UNL     1      40.722  -8.453  15.078  1.00  0.00    -0.037 NA
HETATM   40  N   UNL     1      41.600  -9.118  14.346  1.00  0.00    -0.169 NA
ENDBRANCH  33  36
ENDBRANCH  27  30
ENDBRANCH  25  26
ENDBRANCH   5  25
TORSDOF 7
ENDMDL
MODEL 3
REMARK VINA RESULT:      -9.4      1.384      1.767
REMARK  7 active torsions:
REMARK  status: ('A' for Active; 'I' for Inactive)
REMARK    1  A    between atoms: N_1  and  C_5 
REMARK    2  A    between atoms: C_11  and  N_12 
REMARK       I    between atoms: N_12  and  C_13 
REMARK    3  A    between atoms: C_13  and  C_15 
REMARK    4  A    between atoms: C_19  and  C_20 
REMARK    5  A    between atoms: C_20  and  N_21 
REMARK       I    between atoms: N_21  and  C_22 
REMARK    6  A    between atoms: C_22  and  C_24 
REMARK    7  A    between atoms: C_27  and  C_30 
ROOT
HETATM    1  C   UNL     1      39.948 -11.783   5.085  1.00  0.00     0.033 A 
HETATM    2  C   UNL     1      38.699 -11.463   4.539  1.00  0.00     0.017 A 
HETATM    3  C   UNL     1      38.511 -11.506   3.157  1.00  0.00     0.002 A 
HETATM    4  C   UNL     1      39.565 -11.869   2.317  1.00  0.00     0.009 A 
HETATM    5  C   UNL     1      40.810 -12.216   2.851  1.00  0.00    -0.040 A 
HETATM    6  C   UNL     1      40.991 -12.179   4.242  1.00  0.00     0.026 A 
ENDROOT
BRANCH   1   7
HETATM    7  C   UNL     1      40.122 -11.728   6.556  1.00  0.00     0.257 C 
HETATM    8  N   UNL     1      41.199 -10.935   7.059  1.00  0.00    -0.303 N 
HETATM    9  H   UNL     1      41.697 -10.307   6.446  1.00  0.00     0.171 HD
HETATM   10  O   UNL     1      39.388 -12.327   7.320  1.00  0.00    -0.267 OA
BRANCH   8  11
HETATM   11  C   UNL     1      41.600 -10.950   8.325  1.00  0.00     0.152 A 
HETATM   12  N   UNL     1      40.709 -10.893   9.339  1.00  0.00    -0.339 N 
HETATM   13  C   UNL     1      41.295 -10.864  10.587  1.00  0.00     0.024 A 
HETATM   14  H   UNL     1      39.708 -10.886   9.148  1.00  0.00     0.168 HD
HETATM   15  C   UNL     1      40.479 -10.753  11.821  1.00  0.00     0.060 C 
HETATM   16  C   UNL     1      42.661 -10.915  10.560  1.00  0.00     0.011 A 
HETATM   17  C   UNL     1      41.323 -11.104  13.069  1.00  0.00     0.039 C 
HETATM   18  C   UNL     1      42.779 -10.579  13.048  1.00  0.00     0.188 C 
HETATM   19  C   UNL     1      43.552 -10.971  11.762  1.00  0.00     0.081 C 
HETATM   20  S   UNL     1      43.230 -10.970   8.957  1.00  0.00    -0.056 SA
BRANCH  18  21
HETATM   21  N   UNL     1      42.787  -9.091  13.223  1.00  0.00    -0.075 N 
HETATM   22  H   UNL     1      41.986  -8.772  13.792  1.00  0.00     0.274 HD
HETATM   23  H   UNL     1      43.624  -8.786  13.748  1.00  0.00     0.274 HD
HETATM   24  H   UNL     1      42.779  -8.552  12.347  1.00  0.00     0.274 HD
ENDBRANCH  18  21
ENDBRANCH   8  11
ENDBRANCH   1   7
BRANCH   5  25
HETATM   25  C   UNL     1      41.973 -12.557   1.953  1.00  0.00     0.161 C 
BRANCH  25  26
HETATM   26  N   UNL     1      42.328 -13.953   2.062  1.00  0.00    -0.353 N 
HETATM   27  C   UNL     1      43.361 -14.405   2.857  1.00  0.00     0.251 C 
HETATM   28  O   UNL     1      44.100 -13.666   3.504  1.00  0.00    -0.268 OA
HETATM   29  H   UNL     1      41.664 -14.621   1.694  1.00  0.00     0.163 HD
BRANCH  27  30
HETATM   30  C   UNL     1      43.520 -15.887   2.910  1.00  0.00     0.032 A 
HETATM   31  C   UNL     1      43.494 -16.587   4.123  1.00  0.00     0.018 A 
HETATM   32  C   UNL     1      43.685 -17.976   4.144  1.00  0.00     0.015 A 
HETATM   33  C   UNL     1      43.897 -18.688   2.955  1.00  0.00    -0.005 A 
HETATM   34  C   UNL     1      43.889 -17.978   1.743  1.00  0.00     0.015 A 
HETATM   35  C   UNL     1      43.699 -16.590   1.717  1.00  0.00     0.018 A 
BRANCH  33  36
HETATM   36  C   UNL     1      44.116 -20.133   2.940  1.00  0.00     0.091 A 
HETATM   37  C   UNL     1      44.631 -20.872   3.993  1.00  0.00     0.099 A 
HETATM   38  S   UNL     1      44.716 -22.510   3.481  1.00  0.00    -0.008 SA
HETATM   39  N   UNL     1      44.098 -22.166   1.967  1.00  0.00    -0.037 NA
HETATM   40  N   UNL     1      43.826 -20.883   1.803  1.00  0.00    -0.169 NA
ENDBRANCH  33  36
ENDBRANCH  27  30
ENDBRANCH  25  26
ENDBRANCH   5  25
TORSDOF 7
ENDMDL
MODEL 4
REMARK VINA RESULT:      -9.2      3.949     11.724
REMARK  7 active torsions:
REMARK  status: ('A' for Active; 'I' for Inactive)
REMARK    1  A    between atoms: N_1  and  C_5 
REMARK    2  A    between atoms: C_11  and  N_12 
REMARK       I    between atoms: N_12  and  C_13 
REMARK    3  A    between atoms: C_13  and  C_15 
REMARK    4  A    between atoms: C_19  and  C_20 
REMARK    5  A    between atoms: C_20  and  N_21 
REMARK       I    between atoms: N_21  and  C_22 
REMARK    6  A    between atoms: C_22  and  C_24 
REMARK    7  A    between atoms: C_27  and  C_30 
ROOT
HETATM    1  C   UNL     1      42.214 -16.093   4.742  1.00  0.00     0.033 A 
HETATM    2  C   UNL     1      41.737 -17.128   5.555  1.00  0.00     0.017 A 
HETATM    3  C   UNL     1      42.257 -17.303   6.837  1.00  0.00     0.002 A 
HETATM    4  C   UNL     1      43.252 -16.448   7.313  1.00  0.00     0.009 A 
HETATM    5  C   UNL     1      43.720 -15.394   6.521  1.00  0.00    -0.040 A 
HETATM    6  C   UNL     1      43.187 -15.217   5.236  1.00  0.00     0.026 A 
ENDROOT
BRANCH   1   7
HETATM    7  C   UNL     1      41.646 -15.929   3.382  1.00  0.00     0.257 C 
HETATM    8  N   UNL     1      42.343 -15.068   2.481  1.00  0.00    -0.303 N 
HETATM    9  H   UNL     1      43.268 -14.735   2.708  1.00  0.00     0.171 HD
HETATM   10  O   UNL     1      40.630 -16.498   3.030  1.00  0.00    -0.267 OA
BRANCH   8  11
HETATM   11  C   UNL     1      41.855 -14.668   1.312  1.00  0.00     0.152 A 
HETATM   12  N   UNL     1      41.695 -15.537   0.290  1.00  0.00    -0.339 N 
HETATM   13  C   UNL     1      41.227 -14.948  -0.866  1.00  0.00     0.024 A 
HETATM   14  H   UNL     1      41.904 -16.526   0.414  1.00  0.00     0.168 HD
HETATM   15  C   UNL     1      41.034 -15.734  -2.110  1.00  0.00     0.060 C 
HETATM   16  C   UNL     1      40.999 -13.605  -0.752  1.00  0.00     0.011 A 
HETATM   17  C   UNL     1      40.176 -14.946  -3.128  1.00  0.00     0.039 C 
HETATM   18  C   UNL     1      40.470 -13.428  -3.203  1.00  0.00     0.188 C 
HETATM   19  C   UNL     1      40.424 -12.728  -1.820  1.00  0.00     0.081 C 
HETATM   20  S   UNL     1      41.399 -13.056   0.808  1.00  0.00    -0.056 SA
BRANCH  18  21
HETATM   21  N   UNL     1      41.801 -13.199  -3.854  1.00  0.00    -0.075 N 
HETATM   22  H   UNL     1      42.170 -12.258  -3.642  1.00  0.00     0.274 HD
HETATM   23  H   UNL     1      42.511 -13.853  -3.483  1.00  0.00     0.274 HD
HETATM   24  H   UNL     1      41.807 -13.312  -4.876  1.00  0.00     0.274 HD
ENDBRANCH  18  21
ENDBRANCH   8  11
ENDBRANCH   1   7
BRANCH   5  25
HETATM   25  C   UNL     1      44.832 -14.494   7.001  1.00  0.00     0.161 C 
BRANCH  25  26
HETATM   26  N   UNL     1      44.356 -13.551   7.986  1.00  0.00    -0.353 N 
HETATM   27  C   UNL     1      45.152 -12.561   8.521  1.00  0.00     0.251 C 
HETATM   28  O   UNL     1      46.342 -12.418   8.250  1.00  0.00    -0.268 OA
HETATM   29  H   UNL     1      43.356 -13.507   8.127  1.00  0.00     0.163 HD
BRANCH  27  30
HETATM   30  C   UNL     1      44.462 -11.627   9.458  1.00  0.00     0.032 A 
HETATM   31  C   UNL     1      44.996 -11.317  10.715  1.00  0.00     0.018 A 
HETATM   32  C   UNL     1      44.304 -10.466  11.589  1.00  0.00     0.015 A 
HETATM   33  C   UNL     1      43.073  -9.907  11.219  1.00  0.00    -0.005 A 
HETATM   34  C   UNL     1      42.564 -10.201   9.943  1.00  0.00     0.015 A 
HETATM   35  C   UNL     1      43.252 -11.050   9.067  1.00  0.00     0.018 A 
BRANCH  33  36
HETATM   36  C   UNL     1      42.316  -9.030  12.110  1.00  0.00     0.091 A 
HETATM   37  C   UNL     1      42.718  -8.642  13.378  1.00  0.00     0.099 A 
HETATM   38  S   UNL     1      41.486  -7.636  14.026  1.00  0.00    -0.008 SA
HETATM   39  N   UNL     1      40.533  -7.765  12.659  1.00  0.00    -0.037 NA
HETATM   40  N   UNL     1      41.075  -8.527  11.724  1.00  0.00    -0.169 NA
ENDBRANCH  33  36
ENDBRANCH  27  30
ENDBRANCH  25  26
ENDBRANCH   5  25
TORSDOF 7
ENDMDL
MODEL 5
REMARK VINA RESULT:      -9.1      1.532      1.916
REMARK  7 active torsions:
REMARK  status: ('A' for Active; 'I' for Inactive)
REMARK    1  A    between atoms: N_1  and  C_5 
REMARK    2  A    between atoms: C_11  and  N_12 
REMARK       I    between atoms: N_12  and  C_13 
REMARK    3  A    between atoms: C_13  and  C_15 
REMARK    4  A    between atoms: C_19  and  C_20 
REMARK    5  A    between atoms: C_20  and  N_21 
REMARK       I    between atoms: N_21  and  C_22 
REMARK    6  A    between atoms: C_22  and  C_24 
REMARK    7  A    between atoms: C_27  and  C_30 
ROOT
HETATM    1  C   UNL     1      39.998 -11.702   4.965  1.00  0.00     0.033 A 
HETATM    2  C   UNL     1      38.777 -11.570   4.294  1.00  0.00     0.017 A 
HETATM    3  C   UNL     1      38.689 -11.886   2.938  1.00  0.00     0.002 A 
HETATM    4  C   UNL     1      39.816 -12.334   2.247  1.00  0.00     0.009 A 
HETATM    5  C   UNL     1      41.037 -12.494   2.911  1.00  0.00    -0.040 A 
HETATM    6  C   UNL     1      41.117 -12.184   4.277  1.00  0.00     0.026 A 
ENDROOT
BRANCH   1   7
HETATM    7  C   UNL     1      40.066 -11.359   6.405  1.00  0.00     0.257 C 
HETATM    8  N   UNL     1      41.055 -10.409   6.806  1.00  0.00    -0.303 N 
HETATM    9  H   UNL     1      41.556  -9.873   6.114  1.00  0.00     0.171 HD
HETATM   10  O   UNL     1      39.317 -11.854   7.226  1.00  0.00    -0.267 OA
BRANCH   8  11
HETATM   11  C   UNL     1      41.366 -10.156   8.072  1.00  0.00     0.152 A 
HETATM   12  N   UNL     1      42.160 -10.993   8.775  1.00  0.00    -0.339 N 
HETATM   13  C   UNL     1      42.340 -10.610  10.088  1.00  0.00     0.024 A 
HETATM   14  H   UNL     1      42.573 -11.810   8.329  1.00  0.00     0.168 HD
HETATM   15  C   UNL     1      43.142 -11.431  11.029  1.00  0.00     0.060 C 
HETATM   16  C   UNL     1      41.695  -9.452  10.422  1.00  0.00     0.011 A 
HETATM   17  C   UNL     1      43.489 -10.622  12.302  1.00  0.00     0.039 C 
HETATM   18  C   UNL     1      42.355  -9.712  12.833  1.00  0.00     0.188 C 
HETATM   19  C   UNL     1      41.772  -8.767  11.751  1.00  0.00     0.081 C 
HETATM   20  S   UNL     1      40.827  -8.841   9.092  1.00  0.00    -0.056 SA
BRANCH  18  21
HETATM   21  N   UNL     1      41.265 -10.551  13.429  1.00  0.00    -0.075 N 
HETATM   22  H   UNL     1      40.432  -9.984  13.657  1.00  0.00     0.274 HD
HETATM   23  H   UNL     1      40.930 -11.255  12.750  1.00  0.00     0.274 HD
HETATM   24  H   UNL     1      41.531 -11.067  14.277  1.00  0.00     0.274 HD
ENDBRANCH  18  21
ENDBRANCH   8  11
ENDBRANCH   1   7
BRANCH   5  25
HETATM   25  C   UNL     1      42.276 -12.926   2.168  1.00  0.00     0.161 C 
BRANCH  25  26
HETATM   26  N   UNL     1      42.635 -14.287   2.491  1.00  0.00    -0.353 N 
HETATM   27  C   UNL     1      42.323 -15.358   1.680  1.00  0.00     0.251 C 
HETATM   28  O   UNL     1      41.676 -15.262   0.639  1.00  0.00    -0.268 OA
HETATM   29  H   UNL     1      43.305 -14.415   3.237  1.00  0.00     0.163 HD
BRANCH  27  30
HETATM   30  C   UNL     1      42.853 -16.676   2.135  1.00  0.00     0.032 A 
HETATM   31  C   UNL     1      43.651 -17.475   1.306  1.00  0.00     0.018 A 
HETATM   32  C   UNL     1      44.102 -18.726   1.749  1.00  0.00     0.015 A 
HETATM   33  C   UNL     1      43.772 -19.196   3.028  1.00  0.00    -0.005 A 
HETATM   34  C   UNL     1      42.998 -18.370   3.861  1.00  0.00     0.015 A 
HETATM   35  C   UNL     1      42.544 -17.120   3.422  1.00  0.00     0.018 A 
BRANCH  33  36
HETATM   36  C   UNL     1      44.210 -20.501   3.517  1.00  0.00     0.091 A 
HETATM   37  C   UNL     1      44.674 -20.759   4.797  1.00  0.00     0.099 A 
HETATM   38  S   UNL     1      45.084 -22.425   4.872  1.00  0.00    -0.008 SA
HETATM   39  N   UNL     1      44.649 -22.699   3.282  1.00  0.00    -0.037 NA
HETATM   40  N   UNL     1      44.209 -21.611   2.675  1.00  0.00    -0.169 NA
ENDBRANCH  33  36
ENDBRANCH  27  30
ENDBRANCH  25  26
ENDBRANCH   5  25
TORSDOF 7
ENDMDL
MODEL 6
REMARK VINA RESULT:      -9.0      4.535      8.987
REMARK  7 active torsions:
REMARK  status: ('A' for Active; 'I' for Inactive)
REMARK    1  A    between atoms: N_1  and  C_5 
REMARK    2  A    between atoms: C_11  and  N_12 
REMARK       I    between atoms: N_12  and  C_13 
REMARK    3  A    between atoms: C_13  and  C_15 
REMARK    4  A    between atoms: C_19  and  C_20 
REMARK    5  A    between atoms: C_20  and  N_21 
REMARK       I    between atoms: N_21  and  C_22 
REMARK    6  A    between atoms: C_22  and  C_24 
REMARK    7  A    between atoms: C_27  and  C_30 
ROOT
HETATM    1  C   UNL     1      40.262 -11.949   3.855  1.00  0.00     0.033 A 
HETATM    2  C   UNL     1      39.362 -11.135   4.553  1.00  0.00     0.017 A 
HETATM    3  C   UNL     1      39.564 -10.874   5.908  1.00  0.00     0.002 A 
HETATM    4  C   UNL     1      40.664 -11.421   6.571  1.00  0.00     0.009 A 
HETATM    5  C   UNL     1      41.586 -12.214   5.880  1.00  0.00    -0.040 A 
HETATM    6  C   UNL     1      41.382 -12.467   4.515  1.00  0.00     0.026 A 
ENDROOT
BRANCH   1   7
HETATM    7  C   UNL     1      40.024 -12.213   2.416  1.00  0.00     0.257 C 
HETATM    8  N   UNL     1      40.052 -13.575   1.987  1.00  0.00    -0.303 N 
HETATM    9  H   UNL     1      40.057 -14.322   2.665  1.00  0.00     0.171 HD
HETATM   10  O   UNL     1      39.810 -11.319   1.619  1.00  0.00    -0.267 OA
BRANCH   8  11
HETATM   11  C   UNL     1      40.057 -13.948   0.712  1.00  0.00     0.152 A 
HETATM   12  N   UNL     1      38.967 -13.779  -0.068  1.00  0.00    -0.339 N 
HETATM   13  C   UNL     1      39.123 -14.268  -1.347  1.00  0.00     0.024 A 
HETATM   14  H   UNL     1      38.136 -13.317   0.298  1.00  0.00     0.168 HD
HETATM   15  C   UNL     1      38.016 -14.216  -2.335  1.00  0.00     0.060 C 
HETATM   16  C   UNL     1      40.352 -14.816  -1.587  1.00  0.00     0.011 A 
HETATM   17  C   UNL     1      38.544 -14.483  -3.764  1.00  0.00     0.039 C 
HETATM   18  C   UNL     1      39.632 -15.579  -3.870  1.00  0.00     0.188 C 
HETATM   19  C   UNL     1      40.822 -15.356  -2.901  1.00  0.00     0.081 C 
HETATM   20  S   UNL     1      41.323 -14.748  -0.191  1.00  0.00    -0.056 SA
BRANCH  18  21
HETATM   21  N   UNL     1      39.020 -16.928  -3.636  1.00  0.00    -0.075 N 
HETATM   22  H   UNL     1      39.742 -17.650  -3.484  1.00  0.00     0.274 HD
HETATM   23  H   UNL     1      38.455 -16.930  -2.770  1.00  0.00     0.274 HD
HETATM   24  H   UNL     1      38.403 -17.260  -4.388  1.00  0.00     0.274 HD
ENDBRANCH  18  21
ENDBRANCH   8  11
ENDBRANCH   1   7
BRANCH   5  25
HETATM   25  C   UNL     1      42.749 -12.856   6.594  1.00  0.00     0.161 C 
BRANCH  25  26
HETATM   26  N   UNL     1      43.049 -14.157   6.044  1.00  0.00    -0.353 N 
HETATM   27  C   UNL     1      43.831 -15.087   6.698  1.00  0.00     0.251 C 
HETATM   28  O   UNL     1      44.380 -14.880   7.778  1.00  0.00    -0.268 OA
HETATM   29  H   UNL     1      42.500 -14.452   5.247  1.00  0.00     0.163 HD
BRANCH  27  30
HETATM   30  C   UNL     1      43.957 -16.406   6.013  1.00  0.00     0.032 A 
HETATM   31  C   UNL     1      44.759 -17.431   6.531  1.00  0.00     0.018 A 
HETATM   32  C   UNL     1      44.887 -18.646   5.844  1.00  0.00     0.015 A 
HETATM   33  C   UNL     1      44.212 -18.860   4.634  1.00  0.00    -0.005 A 
HETATM   34  C   UNL     1      43.386 -17.836   4.142  1.00  0.00     0.015 A 
HETATM   35  C   UNL     1      43.256 -16.620   4.825  1.00  0.00     0.018 A 
BRANCH  33  36
HETATM   36  C   UNL     1      44.335 -20.108   3.883  1.00  0.00     0.091 A 
HETATM   37  C   UNL     1      44.093 -20.249   2.526  1.00  0.00     0.099 A 
HETATM   38  S   UNL     1      44.352 -21.899   2.124  1.00  0.00    -0.008 SA
HETATM   39  N   UNL     1      44.748 -22.315   3.693  1.00  0.00    -0.037 NA
HETATM   40  N   UNL     1      44.700 -21.289   4.525  1.00  0.00    -0.169 NA
ENDBRANCH  33  36
ENDBRANCH  27  30
ENDBRANCH  25  26
ENDBRANCH   5  25
TORSDOF 7
ENDMDL
MODEL 7
REMARK VINA RESULT:      -8.7      4.659     11.188
REMARK  7 active torsions:
REMARK  status: ('A' for Active; 'I' for Inactive)
REMARK    1  A    between atoms: N_1  and  C_5 
REMARK    2  A    between atoms: C_11  and  N_12 
REMARK       I    between atoms: N_12  and  C_13 
REMARK    3  A    between atoms: C_13  and  C_15 
REMARK    4  A    between atoms: C_19  and  C_20 
REMARK    5  A    between atoms: C_20  and  N_21 
REMARK       I    between atoms: N_21  and  C_22 
REMARK    6  A    between atoms: C_22  and  C_24 
REMARK    7  A    between atoms: C_27  and  C_30 
ROOT
HETATM    1  C   UNL     1      43.007 -17.609   3.250  1.00  0.00     0.033 A 
HETATM    2  C   UNL     1      43.730 -18.804   3.336  1.00  0.00     0.017 A 
HETATM    3  C   UNL     1      44.437 -19.109   4.500  1.00  0.00     0.002 A 
HETATM    4  C   UNL     1      44.424 -18.225   5.580  1.00  0.00     0.009 A 
HETATM    5  C   UNL     1      43.685 -17.039   5.517  1.00  0.00    -0.040 A 
HETATM    6  C   UNL     1      42.969 -16.742   4.347  1.00  0.00     0.026 A 
ENDROOT
BRANCH   1   7
HETATM    7  C   UNL     1      42.266 -17.308   2.002  1.00  0.00     0.257 C 
HETATM    8  N   UNL     1      42.310 -15.963   1.522  1.00  0.00    -0.303 N 
HETATM    9  H   UNL     1      42.960 -15.302   1.921  1.00  0.00     0.171 HD
HETATM   10  O   UNL     1      41.641 -18.158   1.397  1.00  0.00    -0.267 OA
BRANCH   8  11
HETATM   11  C   UNL     1      41.542 -15.501   0.542  1.00  0.00     0.152 A 
HETATM   12  N   UNL     1      41.655 -15.980  -0.716  1.00  0.00    -0.339 N 
HETATM   13  C   UNL     1      40.821 -15.356  -1.620  1.00  0.00     0.024 A 
HETATM   14  H   UNL     1      42.301 -16.739  -0.925  1.00  0.00     0.168 HD
HETATM   15  C   UNL     1      40.838 -15.713  -3.060  1.00  0.00     0.060 C 
HETATM   16  C   UNL     1      40.030 -14.386  -1.069  1.00  0.00     0.011 A 
HETATM   17  C   UNL     1      39.589 -15.150  -3.779  1.00  0.00     0.039 C 
HETATM   18  C   UNL     1      39.155 -13.733  -3.333  1.00  0.00     0.188 C 
HETATM   19  C   UNL     1      38.984 -13.601  -1.797  1.00  0.00     0.081 C 
HETATM   20  S   UNL     1      40.347 -14.225   0.595  1.00  0.00    -0.056 SA
BRANCH  18  21
HETATM   21  N   UNL     1      40.139 -12.718  -3.833  1.00  0.00    -0.075 N 
HETATM   22  H   UNL     1      40.432 -12.920  -4.802  1.00  0.00     0.274 HD
HETATM   23  H   UNL     1      39.709 -11.778  -3.875  1.00  0.00     0.274 HD
HETATM   24  H   UNL     1      40.990 -12.624  -3.265  1.00  0.00     0.274 HD
ENDBRANCH  18  21
ENDBRANCH   8  11
ENDBRANCH   1   7
BRANCH   5  25
HETATM   25  C   UNL     1      43.705 -16.048   6.654  1.00  0.00     0.161 C 
BRANCH  25  26
HETATM   26  N   UNL     1      42.786 -14.959   6.417  1.00  0.00    -0.353 N 
HETATM   27  C   UNL     1      43.152 -13.797   5.771  1.00  0.00     0.251 C 
HETATM   28  O   UNL     1      44.293 -13.560   5.382  1.00  0.00    -0.268 OA
HETATM   29  H   UNL     1      41.804 -15.154   6.559  1.00  0.00     0.163 HD
BRANCH  27  30
HETATM   30  C   UNL     1      42.045 -12.823   5.540  1.00  0.00     0.032 A 
HETATM   31  C   UNL     1      41.714 -11.847   6.488  1.00  0.00     0.018 A 
HETATM   32  C   UNL     1      40.643 -10.971   6.259  1.00  0.00     0.015 A 
HETATM   33  C   UNL     1      39.893 -11.050   5.078  1.00  0.00    -0.005 A 
HETATM   34  C   UNL     1      40.256 -12.013   4.121  1.00  0.00     0.015 A 
HETATM   35  C   UNL     1      41.324 -12.890   4.346  1.00  0.00     0.018 A 
BRANCH  33  36
HETATM   36  C   UNL     1      38.761 -10.165   4.812  1.00  0.00     0.091 A 
HETATM   37  C   UNL     1      38.022 -10.144   3.640  1.00  0.00     0.099 A 
HETATM   38  S   UNL     1      36.824  -8.924   3.806  1.00  0.00    -0.008 SA
HETATM   39  N   UNL     1      37.327  -8.510   5.345  1.00  0.00    -0.037 NA
HETATM   40  N   UNL     1      38.355  -9.230   5.761  1.00  0.00    -0.169 NA
ENDBRANCH  33  36
ENDBRANCH  27  30
ENDBRANCH  25  26
ENDBRANCH   5  25
TORSDOF 7
ENDMDL
MODEL 8
REMARK VINA RESULT:      -8.5      7.985     12.494
REMARK  7 active torsions:
REMARK  status: ('A' for Active; 'I' for Inactive)
REMARK    1  A    between atoms: N_1  and  C_5 
REMARK    2  A    between atoms: C_11  and  N_12 
REMARK       I    between atoms: N_12  and  C_13 
REMARK    3  A    between atoms: C_13  and  C_15 
REMARK    4  A    between atoms: C_19  and  C_20 
REMARK    5  A    between atoms: C_20  and  N_21 
REMARK       I    between atoms: N_21  and  C_22 
REMARK    6  A    between atoms: C_22  and  C_24 
REMARK    7  A    between atoms: C_27  and  C_30 
ROOT
HETATM    1  C   UNL     1      38.525 -14.233  -3.163  1.00  0.00     0.033 A 
HETATM    2  C   UNL     1      38.760 -15.398  -3.902  1.00  0.00     0.017 A 
HETATM    3  C   UNL     1      39.851 -16.211  -3.595  1.00  0.00     0.002 A 
HETATM    4  C   UNL     1      40.711 -15.865  -2.550  1.00  0.00     0.009 A 
HETATM    5  C   UNL     1      40.473 -14.717  -1.788  1.00  0.00    -0.040 A 
HETATM    6  C   UNL     1      39.369 -13.908  -2.096  1.00  0.00     0.026 A 
ENDROOT
BRANCH   1   7
HETATM    7  C   UNL     1      37.359 -13.386  -3.511  1.00  0.00     0.257 C 
HETATM    8  N   UNL     1      36.671 -13.687  -4.726  1.00  0.00    -0.303 N 
HETATM    9  H   UNL     1      36.866 -14.543  -5.223  1.00  0.00     0.171 HD
HETATM   10  O   UNL     1      36.988 -12.469  -2.803  1.00  0.00    -0.267 OA
BRANCH   8  11
HETATM   11  C   UNL     1      35.745 -12.902  -5.266  1.00  0.00     0.152 A 
HETATM   12  N   UNL     1      34.525 -12.772  -4.699  1.00  0.00    -0.339 N 
HETATM   13  C   UNL     1      33.669 -11.962  -5.415  1.00  0.00     0.024 A 
HETATM   14  H   UNL     1      34.311 -13.239  -3.820  1.00  0.00     0.168 HD
HETATM   15  C   UNL     1      32.269 -11.738  -4.975  1.00  0.00     0.060 C 
HETATM   16  C   UNL     1      34.220 -11.435  -6.549  1.00  0.00     0.011 A 
HETATM   17  C   UNL     1      31.646 -10.535  -5.721  1.00  0.00     0.039 C 
HETATM   18  C   UNL     1      32.019 -10.425  -7.220  1.00  0.00     0.188 C 
HETATM   19  C   UNL     1      33.548 -10.469  -7.474  1.00  0.00     0.081 C 
HETATM   20  S   UNL     1      35.822 -11.975  -6.747  1.00  0.00    -0.056 SA
BRANCH  18  21
HETATM   21  N   UNL     1      31.333 -11.509  -7.996  1.00  0.00    -0.075 N 
HETATM   22  H   UNL     1      30.337 -11.289  -8.156  1.00  0.00     0.274 HD
HETATM   23  H   UNL     1      31.741 -11.599  -8.942  1.00  0.00     0.274 HD
HETATM   24  H   UNL     1      31.380 -12.443  -7.568  1.00  0.00     0.274 HD
ENDBRANCH  18  21
ENDBRANCH   8  11
ENDBRANCH   1   7
BRANCH   5  25
HETATM   25  C   UNL     1      41.423 -14.301  -0.692  1.00  0.00     0.161 C 
BRANCH  25  26
HETATM   26  N   UNL     1      42.012 -15.450  -0.045  1.00  0.00    -0.353 N 
HETATM   27  C   UNL     1      42.440 -15.435   1.267  1.00  0.00     0.251 C 
HETATM   28  O   UNL     1      42.404 -14.439   1.987  1.00  0.00    -0.268 OA
HETATM   29  H   UNL     1      41.918 -16.337  -0.520  1.00  0.00     0.163 HD
BRANCH  27  30
HETATM   30  C   UNL     1      42.940 -16.740   1.787  1.00  0.00     0.032 A 
HETATM   31  C   UNL     1      43.485 -17.711   0.938  1.00  0.00     0.018 A 
HETATM   32  C   UNL     1      43.911 -18.944   1.452  1.00  0.00     0.015 A 
HETATM   33  C   UNL     1      43.807 -19.224   2.821  1.00  0.00    -0.005 A 
HETATM   34  C   UNL     1      43.288 -18.230   3.667  1.00  0.00     0.015 A 
HETATM   35  C   UNL     1      42.860 -16.997   3.157  1.00  0.00     0.018 A 
BRANCH  33  36
HETATM   36  C   UNL     1      44.225 -20.504   3.389  1.00  0.00     0.091 A 
HETATM   37  C   UNL     1      44.685 -20.690   4.683  1.00  0.00     0.099 A 
HETATM   38  S   UNL     1      45.069 -22.355   4.861  1.00  0.00    -0.008 SA
HETATM   39  N   UNL     1      44.629 -22.719   3.290  1.00  0.00    -0.037 NA
HETATM   40  N   UNL     1      44.206 -21.663   2.617  1.00  0.00    -0.169 NA
ENDBRANCH  33  36
ENDBRANCH  27  30
ENDBRANCH  25  26
ENDBRANCH   5  25
TORSDOF 7
ENDMDL
MODEL 9
REMARK VINA RESULT:      -8.4      2.429      2.972
REMARK  7 active torsions:
REMARK  status: ('A' for Active; 'I' for Inactive)
REMARK    1  A    between atoms: N_1  and  C_5 
REMARK    2  A    between atoms: C_11  and  N_12 
REMARK       I    between atoms: N_12  and  C_13 
REMARK    3  A    between atoms: C_13  and  C_15 
REMARK    4  A    between atoms: C_19  and  C_20 
REMARK    5  A    between atoms: C_20  and  N_21 
REMARK       I    between atoms: N_21  and  C_22 
REMARK    6  A    between atoms: C_22  and  C_24 
REMARK    7  A    between atoms: C_27  and  C_30 
ROOT
HETATM    1  C   UNL     1      39.455 -11.157   3.938  1.00  0.00     0.033 A 
HETATM    2  C   UNL     1      38.546 -10.112   3.733  1.00  0.00     0.017 A 
HETATM    3  C   UNL     1      37.610 -10.196   2.702  1.00  0.00     0.002 A 
HETATM    4  C   UNL     1      37.575 -11.320   1.875  1.00  0.00     0.009 A 
HETATM    5  C   UNL     1      38.460 -12.383   2.086  1.00  0.00    -0.040 A 
HETATM    6  C   UNL     1      39.394 -12.297   3.129  1.00  0.00     0.026 A 
ENDROOT
BRANCH   1   7
HETATM    7  C   UNL     1      40.441 -11.044   5.039  1.00  0.00     0.257 C 
HETATM    8  N   UNL     1      39.973 -11.295   6.366  1.00  0.00    -0.303 N 
HETATM    9  H   UNL     1      39.062 -11.702   6.515  1.00  0.00     0.171 HD
HETATM   10  O   UNL     1      41.605 -10.751   4.841  1.00  0.00    -0.267 OA
BRANCH   8  11
HETATM   11  C   UNL     1      40.680 -11.038   7.460  1.00  0.00     0.152 A 
HETATM   12  N   UNL     1      41.983 -11.384   7.545  1.00  0.00    -0.339 N 
HETATM   13  C   UNL     1      42.552 -11.094   8.767  1.00  0.00     0.024 A 
HETATM   14  H   UNL     1      42.459 -11.807   6.750  1.00  0.00     0.168 HD
HETATM   15  C   UNL     1      43.963 -11.445   9.065  1.00  0.00     0.060 C 
HETATM   16  C   UNL     1      41.696 -10.499   9.651  1.00  0.00     0.011 A 
HETATM   17  C   UNL     1      44.456 -10.704  10.331  1.00  0.00     0.039 C 
HETATM   18  C   UNL     1      43.421 -10.597  11.477  1.00  0.00     0.188 C 
HETATM   19  C   UNL     1      42.060 -10.010  11.018  1.00  0.00     0.081 C 
HETATM   20  S   UNL     1      40.149 -10.322   8.965  1.00  0.00    -0.056 SA
BRANCH  18  21
HETATM   21  N   UNL     1      43.219 -11.942  12.107  1.00  0.00    -0.075 N 
HETATM   22  H   UNL     1      42.414 -12.438  11.692  1.00  0.00     0.274 HD
HETATM   23  H   UNL     1      44.030 -12.557  11.930  1.00  0.00     0.274 HD
HETATM   24  H   UNL     1      43.081 -11.926  13.126  1.00  0.00     0.274 HD
ENDBRANCH  18  21
ENDBRANCH   8  11
ENDBRANCH   1   7
BRANCH   5  25
HETATM   25  C   UNL     1      38.471 -13.579   1.168  1.00  0.00     0.161 C 
BRANCH  25  26
HETATM   26  N   UNL     1      39.292 -14.642   1.701  1.00  0.00    -0.353 N 
HETATM   27  C   UNL     1      40.312 -15.233   0.984  1.00  0.00     0.251 C 
HETATM   28  O   UNL     1      40.585 -14.948  -0.180  1.00  0.00    -0.268 OA
HETATM   29  H   UNL     1      39.232 -14.806   2.697  1.00  0.00     0.163 HD
BRANCH  27  30
HETATM   30  C   UNL     1      41.106 -16.251   1.732  1.00  0.00     0.032 A 
HETATM   31  C   UNL     1      40.918 -16.470   3.102  1.00  0.00     0.018 A 
HETATM   32  C   UNL     1      41.707 -17.407   3.785  1.00  0.00     0.015 A 
HETATM   33  C   UNL     1      42.690 -18.144   3.110  1.00  0.00    -0.005 A 
HETATM   34  C   UNL     1      42.846 -17.937   1.729  1.00  0.00     0.015 A 
HETATM   35  C   UNL     1      42.061 -17.002   1.043  1.00  0.00     0.018 A 
BRANCH  33  36
HETATM   36  C   UNL     1      43.541 -19.116   3.792  1.00  0.00     0.091 A 
HETATM   37  C   UNL     1      44.252 -20.129   3.169  1.00  0.00     0.099 A 
HETATM   38  S   UNL     1      45.075 -21.011   4.393  1.00  0.00    -0.008 SA
HETATM   39  N   UNL     1      44.472 -20.050   5.620  1.00  0.00    -0.037 NA
HETATM   40  N   UNL     1      43.675 -19.092   5.178  1.00  0.00    -0.169 NA
ENDBRANCH  33  36
ENDBRANCH  27  30
ENDBRANCH  25  26
ENDBRANCH   5  25
TORSDOF 7
ENDMDL
MODEL 10
REMARK VINA RESULT:      -8.3      3.966      7.330
REMARK  7 active torsions:
REMARK  status: ('A' for Active; 'I' for Inactive)
REMARK    1  A    between atoms: N_1  and  C_5 
REMARK    2  A    between atoms: C_11  and  N_12 
REMARK       I    between atoms: N_12  and  C_13 
REMARK    3  A    between atoms: C_13  and  C_15 
REMARK    4  A    between atoms: C_19  and  C_20 
REMARK    5  A    between atoms: C_20  and  N_21 
REMARK       I    between atoms: N_21  and  C_22 
REMARK    6  A    between atoms: C_22  and  C_24 
REMARK    7  A    between atoms: C_27  and  C_30 
ROOT
HETATM    1  C   UNL     1      43.934 -17.887   5.252  1.00  0.00     0.033 A 
HETATM    2  C   UNL     1      44.742 -18.947   5.679  1.00  0.00     0.017 A 
HETATM    3  C   UNL     1      45.028 -20.000   4.811  1.00  0.00     0.002 A 
HETATM    4  C   UNL     1      44.510 -20.001   3.515  1.00  0.00     0.009 A 
HETATM    5  C   UNL     1      43.722 -18.936   3.066  1.00  0.00    -0.040 A 
HETATM    6  C   UNL     1      43.445 -17.874   3.941  1.00  0.00     0.026 A 
ENDROOT
BRANCH   1   7
HETATM    7  C   UNL     1      43.644 -16.780   6.194  1.00  0.00     0.257 C 
HETATM    8  N   UNL     1      43.759 -15.447   5.694  1.00  0.00    -0.303 N 
HETATM    9  H   UNL     1      43.859 -15.283   4.704  1.00  0.00     0.171 HD
HETATM   10  O   UNL     1      43.318 -16.979   7.349  1.00  0.00    -0.267 OA
BRANCH   8  11
HETATM   11  C   UNL     1      43.729 -14.364   6.462  1.00  0.00     0.152 A 
HETATM   12  N   UNL     1      44.656 -14.165   7.424  1.00  0.00    -0.339 N 
HETATM   13  C   UNL     1      44.448 -13.020   8.162  1.00  0.00     0.024 A 
HETATM   14  H   UNL     1      45.425 -14.823   7.545  1.00  0.00     0.168 HD
HETATM   15  C   UNL     1      45.336 -12.659   9.295  1.00  0.00     0.060 C 
HETATM   16  C   UNL     1      43.355 -12.298   7.772  1.00  0.00     0.011 A 
HETATM   17  C   UNL     1      45.119 -11.185   9.713  1.00  0.00     0.039 C 
HETATM   18  C   UNL     1      43.648 -10.704   9.693  1.00  0.00     0.188 C 
HETATM   19  C   UNL     1      42.933 -10.981   8.345  1.00  0.00     0.081 C 
HETATM   20  S   UNL     1      42.555 -13.068   6.482  1.00  0.00    -0.056 SA
BRANCH  18  21
HETATM   21  N   UNL     1      42.890 -11.338  10.820  1.00  0.00    -0.075 N 
HETATM   22  H   UNL     1      43.262 -12.274  11.049  1.00  0.00     0.274 HD
HETATM   23  H   UNL     1      42.996 -10.789  11.690  1.00  0.00     0.274 HD
HETATM   24  H   UNL     1      41.879 -11.438  10.660  1.00  0.00     0.274 HD
ENDBRANCH  18  21
ENDBRANCH   8  11
ENDBRANCH   1   7
BRANCH   5  25
HETATM   25  C   UNL     1      43.112 -18.947   1.686  1.00  0.00     0.161 C 
BRANCH  25  26
HETATM   26  N   UNL     1      42.930 -17.606   1.182  1.00  0.00    -0.353 N 
HETATM   27  C   UNL     1      41.688 -17.030   1.014  1.00  0.00     0.251 C 
HETATM   28  O   UNL     1      40.628 -17.614   1.229  1.00  0.00    -0.268 OA
HETATM   29  H   UNL     1      43.752 -17.019   1.145  1.00  0.00     0.163 HD
BRANCH  27  30
HETATM   30  C   UNL     1      41.703 -15.607   0.566  1.00  0.00     0.032 A 
HETATM   31  C   UNL     1      41.454 -15.251  -0.765  1.00  0.00     0.018 A 
HETATM   32  C   UNL     1      41.513 -13.908  -1.163  1.00  0.00     0.015 A 
HETATM   33  C   UNL     1      41.814 -12.899  -0.237  1.00  0.00    -0.005 A 
HETATM   34  C   UNL     1      42.030 -13.266   1.101  1.00  0.00     0.015 A 
HETATM   35  C   UNL     1      41.972 -14.607   1.503  1.00  0.00     0.018 A 
BRANCH  33  36
HETATM   36  C   UNL     1      41.900 -11.491  -0.619  1.00  0.00     0.091 A 
HETATM   37  C   UNL     1      40.836 -10.714  -1.049  1.00  0.00     0.099 A 
HETATM   38  S   UNL     1      41.447  -9.147  -1.397  1.00  0.00    -0.008 SA
HETATM   39  N   UNL     1      43.012  -9.564  -0.982  1.00  0.00    -0.037 NA
HETATM   40  N   UNL     1      43.122 -10.823  -0.594  1.00  0.00    -0.169 NA
ENDBRANCH  33  36
ENDBRANCH  27  30
ENDBRANCH  25  26
ENDBRANCH   5  25
TORSDOF 7
ENDMDL
