MODEL 1
REMARK VINA RESULT:     -10.0      0.000      0.000
REMARK  6 active torsions:
REMARK  status: ('A' for Active; 'I' for Inactive)
REMARK    1  A    between atoms: C_5  and  N_6 
REMARK       I    between atoms: N_6  and  C_7 
REMARK       I    between atoms: C_7  and  N_8 
REMARK    2  A    between atoms: N_8  and  C_9 
REMARK    3  A    between atoms: C_12  and  C_13 
REMARK    4  A    between atoms: C_13  and  C_14 
REMARK       I    between atoms: C_14  and  N_15 
REMARK    5  A    between atoms: N_18  and  C_19 
REMARK    6  A    between atoms: C_21  and  C_22 
ROOT
HETATM    1  C   UNL     1      38.383 -14.018   0.517  1.00  0.00     0.162 C 
ENDROOT
BRANCH   1   2
HETATM    2  C   UNL     1      38.471 -12.875   1.470  1.00  0.00     0.052 A 
HETATM    3  C   UNL     1      37.944 -11.611   1.259  1.00  0.00     0.081 A 
HETATM    4  S   UNL     1      38.041 -10.686   2.696  1.00  0.00    -0.062 SA
HETATM    5  C   UNL     1      38.815 -11.997   3.459  1.00  0.00     0.174 A 
HETATM    6  N   UNL     1      39.031 -13.067   2.732  1.00  0.00    -0.228 NA
BRANCH   5   7
HETATM    7  N   UNL     1      39.106 -11.787   4.773  1.00  0.00    -0.287 N 
HETATM    8  C   UNL     1      39.724 -12.652   5.628  1.00  0.00     0.326 C 
HETATM    9  N   UNL     1      40.291 -13.767   5.072  1.00  0.00    -0.309 N 
HETATM   10  O   UNL     1      39.783 -12.327   6.813  1.00  0.00    -0.247 OA
HETATM   11  H   UNL     1      40.200 -13.832   4.063  1.00  0.00     0.170 HD
HETATM   12  H   UNL     1      38.816 -10.912   5.184  1.00  0.00     0.172 HD
BRANCH   9  13
HETATM   13  C   UNL     1      41.095 -14.733   5.710  1.00  0.00     0.036 A 
HETATM   14  C   UNL     1      40.621 -15.954   6.188  1.00  0.00     0.030 A 
HETATM   15  C   UNL     1      41.483 -16.844   6.839  1.00  0.00     0.009 A 
HETATM   16  C   UNL     1      42.834 -16.530   7.018  1.00  0.00    -0.062 A 
HETATM   17  C   UNL     1      43.733 -17.464   7.772  1.00  0.00     0.048 C 
HETATM   18  C   UNL     1      43.309 -15.306   6.542  1.00  0.00     0.009 A 
HETATM   19  C   UNL     1      42.446 -14.423   5.884  1.00  0.00     0.030 A 
ENDBRANCH   9  13
ENDBRANCH   5   7
ENDBRANCH   1   2
BRANCH   1  20
HETATM   20  C   UNL     1      39.727 -14.404  -0.079  1.00  0.00     0.225 C 
HETATM   21  N   UNL     1      40.553 -15.268   0.638  1.00  0.00    -0.349 N 
HETATM   22  C   UNL     1      41.522 -16.050  -0.146  1.00  0.00     0.145 C 
HETATM   23  C   UNL     1      40.173 -15.840   1.936  1.00  0.00     0.145 C 
HETATM   24  C   UNL     1      42.656 -16.695   0.675  1.00  0.00     0.143 C 
HETATM   25  N   UNL     1      42.109 -17.371   1.871  1.00  0.00    -0.378 N 
HETATM   26  C   UNL     1      41.357 -16.424   2.721  1.00  0.00     0.143 C 
HETATM   27  O   UNL     1      40.038 -13.991  -1.201  1.00  0.00    -0.273 OA
BRANCH  25  28
HETATM   28  C   UNL     1      42.915 -18.264   2.586  1.00  0.00     0.030 A 
HETATM   29  C   UNL     1      43.148 -19.550   2.064  1.00  0.00     0.045 A 
HETATM   30  C   UNL     1      43.941 -20.503   2.727  1.00  0.00     0.050 A 
HETATM   31  C   UNL     1      44.545 -20.150   3.937  1.00  0.00     0.016 A 
HETATM   32  C   UNL     1      44.354 -18.875   4.464  1.00  0.00     0.003 A 
HETATM   33  C   UNL     1      43.550 -17.946   3.793  1.00  0.00     0.029 A 
BRANCH  30  34
HETATM   34  C   UNL     1      44.151 -21.875   2.141  1.00  0.00     0.417 C 
HETATM   35  F   UNL     1      44.318 -22.851   3.076  1.00  0.00    -0.166 F 
HETATM   36  F   UNL     1      43.107 -22.278   1.365  1.00  0.00    -0.166 F 
HETATM   37  F   UNL     1      45.254 -21.937   1.343  1.00  0.00    -0.166 F 
ENDBRANCH  30  34
ENDBRANCH  25  28
ENDBRANCH   1  20
TORSDOF 6
ENDMDL
MODEL 2
REMARK VINA RESULT:      -9.9      1.337      1.663
REMARK  6 active torsions:
REMARK  status: ('A' for Active; 'I' for Inactive)
REMARK    1  A    between atoms: C_5  and  N_6 
REMARK       I    between atoms: N_6  and  C_7 
REMARK       I    between atoms: C_7  and  N_8 
REMARK    2  A    between atoms: N_8  and  C_9 
REMARK    3  A    between atoms: C_12  and  C_13 
REMARK    4  A    between atoms: C_13  and  C_14 
REMARK       I    between atoms: C_14  and  N_15 
REMARK    5  A    between atoms: N_18  and  C_19 
REMARK    6  A    between atoms: C_21  and  C_22 
ROOT
HETATM    1  C   UNL     1      40.922 -12.918   0.055  1.00  0.00     0.162 C 
ENDROOT
BRANCH   1   2
HETATM    2  C   UNL     1      40.746 -11.893   1.123  1.00  0.00     0.052 A 
HETATM    3  C   UNL     1      39.828 -10.857   1.099  1.00  0.00     0.081 A 
HETATM    4  S   UNL     1      39.783 -10.075   2.621  1.00  0.00    -0.062 SA
HETATM    5  C   UNL     1      41.008 -11.122   3.169  1.00  0.00     0.174 A 
HETATM    6  N   UNL     1      41.472 -11.999   2.310  1.00  0.00    -0.228 NA
BRANCH   5   7
HETATM    7  N   UNL     1      41.358 -10.940   4.473  1.00  0.00    -0.287 N 
HETATM    8  C   UNL     1      41.617 -11.908   5.399  1.00  0.00     0.326 C 
HETATM    9  N   UNL     1      41.734 -13.190   4.932  1.00  0.00    -0.309 N 
HETATM   10  O   UNL     1      41.792 -11.544   6.561  1.00  0.00    -0.247 OA
HETATM   11  H   UNL     1      41.624 -13.289   3.928  1.00  0.00     0.170 HD
HETATM   12  H   UNL     1      41.409  -9.994   4.817  1.00  0.00     0.172 HD
BRANCH   9  13
HETATM   13  C   UNL     1      42.129 -14.335   5.653  1.00  0.00     0.036 A 
HETATM   14  C   UNL     1      41.300 -15.429   5.900  1.00  0.00     0.030 A 
HETATM   15  C   UNL     1      41.763 -16.515   6.652  1.00  0.00     0.009 A 
HETATM   16  C   UNL     1      43.062 -16.525   7.169  1.00  0.00    -0.062 A 
HETATM   17  C   UNL     1      43.526 -17.665   8.027  1.00  0.00     0.048 C 
HETATM   18  C   UNL     1      43.892 -15.428   6.926  1.00  0.00     0.009 A 
HETATM   19  C   UNL     1      43.429 -14.349   6.165  1.00  0.00     0.030 A 
ENDBRANCH   9  13
ENDBRANCH   5   7
ENDBRANCH   1   2
BRANCH   1  20
HETATM   20  C   UNL     1      40.254 -14.243   0.383  1.00  0.00     0.225 C 
HETATM   21  N   UNL     1      41.027 -15.262   0.939  1.00  0.00    -0.349 N 
HETATM   22  C   UNL     1      40.309 -16.264   1.743  1.00  0.00     0.145 C 
HETATM   23  C   UNL     1      42.454 -15.104   1.243  1.00  0.00     0.145 C 
HETATM   24  C   UNL     1      41.096 -17.561   2.022  1.00  0.00     0.143 C 
HETATM   25  N   UNL     1      42.469 -17.245   2.472  1.00  0.00    -0.378 N 
HETATM   26  C   UNL     1      43.187 -16.435   1.465  1.00  0.00     0.143 C 
HETATM   27  O   UNL     1      39.040 -14.375   0.202  1.00  0.00    -0.273 OA
BRANCH  25  28
HETATM   28  C   UNL     1      43.248 -18.249   3.059  1.00  0.00     0.030 A 
HETATM   29  C   UNL     1      43.349 -19.502   2.425  1.00  0.00     0.045 A 
HETATM   30  C   UNL     1      44.106 -20.560   2.958  1.00  0.00     0.050 A 
HETATM   31  C   UNL     1      44.809 -20.350   4.148  1.00  0.00     0.016 A 
HETATM   32  C   UNL     1      44.751 -19.112   4.782  1.00  0.00     0.003 A 
HETATM   33  C   UNL     1      43.980 -18.076   4.240  1.00  0.00     0.029 A 
BRANCH  30  34
HETATM   34  C   UNL     1      44.173 -21.890   2.256  1.00  0.00     0.417 C 
HETATM   35  F   UNL     1      43.042 -22.203   1.563  1.00  0.00    -0.166 F 
HETATM   36  F   UNL     1      45.192 -21.955   1.354  1.00  0.00    -0.166 F 
HETATM   37  F   UNL     1      44.373 -22.926   3.120  1.00  0.00    -0.166 F 
ENDBRANCH  30  34
ENDBRANCH  25  28
ENDBRANCH   1  20
TORSDOF 6
ENDMDL
MODEL 3
REMARK VINA RESULT:      -9.1      2.104      2.651
REMARK  6 active torsions:
REMARK  status: ('A' for Active; 'I' for Inactive)
REMARK    1  A    between atoms: C_5  and  N_6 
REMARK       I    between atoms: N_6  and  C_7 
REMARK       I    between atoms: C_7  and  N_8 
REMARK    2  A    between atoms: N_8  and  C_9 
REMARK    3  A    between atoms: C_12  and  C_13 
REMARK    4  A    between atoms: C_13  and  C_14 
REMARK       I    between atoms: C_14  and  N_15 
REMARK    5  A    between atoms: N_18  and  C_19 
REMARK    6  A    between atoms: C_21  and  C_22 
ROOT
HETATM    1  C   UNL     1      40.386 -13.184  -0.530  1.00  0.00     0.162 C 
ENDROOT
BRANCH   1   2
HETATM    2  C   UNL     1      40.762 -11.996   0.288  1.00  0.00     0.052 A 
HETATM    3  C   UNL     1      40.787 -10.686  -0.162  1.00  0.00     0.081 A 
HETATM    4  S   UNL     1      41.020  -9.616   1.154  1.00  0.00    -0.062 SA
HETATM    5  C   UNL     1      41.123 -10.958   2.196  1.00  0.00     0.174 A 
HETATM    6  N   UNL     1      41.021 -12.147   1.650  1.00  0.00    -0.228 NA
BRANCH   5   7
HETATM    7  N   UNL     1      41.281 -10.635   3.510  1.00  0.00    -0.287 N 
HETATM    8  C   UNL     1      41.487 -11.494   4.550  1.00  0.00     0.326 C 
HETATM    9  N   UNL     1      41.764 -12.796   4.227  1.00  0.00    -0.309 N 
HETATM   10  O   UNL     1      41.478 -11.018   5.684  1.00  0.00    -0.247 OA
HETATM   11  H   UNL     1      41.797 -12.989   3.232  1.00  0.00     0.170 HD
HETATM   12  H   UNL     1      41.213  -9.662   3.765  1.00  0.00     0.172 HD
BRANCH   9  13
HETATM   13  C   UNL     1      42.145 -13.835   5.099  1.00  0.00     0.036 A 
HETATM   14  C   UNL     1      41.333 -14.920   5.427  1.00  0.00     0.030 A 
HETATM   15  C   UNL     1      41.778 -15.895   6.327  1.00  0.00     0.009 A 
HETATM   16  C   UNL     1      43.046 -15.803   6.911  1.00  0.00    -0.062 A 
HETATM   17  C   UNL     1      43.488 -16.819   7.922  1.00  0.00     0.048 C 
HETATM   18  C   UNL     1      43.860 -14.715   6.585  1.00  0.00     0.009 A 
HETATM   19  C   UNL     1      43.414 -13.748   5.678  1.00  0.00     0.030 A 
ENDBRANCH   9  13
ENDBRANCH   5   7
ENDBRANCH   1   2
BRANCH   1  20
HETATM   20  C   UNL     1      39.718 -14.281   0.282  1.00  0.00     0.225 C 
HETATM   21  N   UNL     1      40.491 -15.356   0.717  1.00  0.00    -0.349 N 
HETATM   22  C   UNL     1      40.012 -16.067   1.914  1.00  0.00     0.145 C 
HETATM   23  C   UNL     1      41.930 -15.465   0.445  1.00  0.00     0.145 C 
HETATM   24  C   UNL     1      40.650 -17.451   2.149  1.00  0.00     0.143 C 
HETATM   25  N   UNL     1      42.119 -17.376   1.996  1.00  0.00    -0.378 N 
HETATM   26  C   UNL     1      42.491 -16.879   0.655  1.00  0.00     0.143 C 
HETATM   27  O   UNL     1      38.525 -14.176   0.583  1.00  0.00    -0.273 OA
BRANCH  25  28
HETATM   28  C   UNL     1      42.913 -18.434   2.455  1.00  0.00     0.030 A 
HETATM   29  C   UNL     1      43.128 -18.583   3.838  1.00  0.00     0.045 A 
HETATM   30  C   UNL     1      43.918 -19.616   4.372  1.00  0.00     0.050 A 
HETATM   31  C   UNL     1      44.487 -20.547   3.499  1.00  0.00     0.016 A 
HETATM   32  C   UNL     1      44.268 -20.440   2.128  1.00  0.00     0.003 A 
HETATM   33  C   UNL     1      43.488 -19.396   1.616  1.00  0.00     0.029 A 
BRANCH  30  34
HETATM   34  C   UNL     1      44.137 -19.730   5.858  1.00  0.00     0.417 C 
HETATM   35  F   UNL     1      44.403 -20.999   6.278  1.00  0.00    -0.166 F 
HETATM   36  F   UNL     1      45.178 -18.968   6.294  1.00  0.00    -0.166 F 
HETATM   37  F   UNL     1      43.052 -19.324   6.577  1.00  0.00    -0.166 F 
ENDBRANCH  30  34
ENDBRANCH  25  28
ENDBRANCH   1  20
TORSDOF 6
ENDMDL
MODEL 4
REMARK VINA RESULT:      -9.1      2.348      5.833
REMARK  6 active torsions:
REMARK  status: ('A' for Active; 'I' for Inactive)
REMARK    1  A    between atoms: C_5  and  N_6 
REMARK       I    between atoms: N_6  and  C_7 
REMARK       I    between atoms: C_7  and  N_8 
REMARK    2  A    between atoms: N_8  and  C_9 
REMARK    3  A    between atoms: C_12  and  C_13 
REMARK    4  A    between atoms: C_13  and  C_14 
REMARK       I    between atoms: C_14  and  N_15 
REMARK    5  A    between atoms: N_18  and  C_19 
REMARK    6  A    between atoms: C_21  and  C_22 
ROOT
HETATM    1  C   UNL     1      40.259 -13.239   5.140  1.00  0.00     0.162 C 
ENDROOT
BRANCH   1   2
HETATM    2  C   UNL     1      40.372 -12.236   4.042  1.00  0.00     0.052 A 
HETATM    3  C   UNL     1      39.944 -10.921   4.109  1.00  0.00     0.081 A 
HETATM    4  S   UNL     1      40.491 -10.054   2.738  1.00  0.00    -0.062 SA
HETATM    5  C   UNL     1      41.197 -11.485   2.144  1.00  0.00     0.174 A 
HETATM    6  N   UNL     1      41.045 -12.570   2.867  1.00  0.00    -0.228 NA
BRANCH   5   7
HETATM    7  N   UNL     1      41.872 -11.331   0.971  1.00  0.00    -0.287 N 
HETATM    8  C   UNL     1      41.729 -12.073  -0.165  1.00  0.00     0.326 C 
HETATM    9  N   UNL     1      40.664 -12.932  -0.209  1.00  0.00    -0.309 N 
HETATM   10  O   UNL     1      42.523 -11.861  -1.080  1.00  0.00    -0.247 OA
HETATM   11  H   UNL     1      40.075 -12.922   0.618  1.00  0.00     0.170 HD
HETATM   12  H   UNL     1      42.579 -10.613   0.928  1.00  0.00     0.172 HD
BRANCH   9  13
HETATM   13  C   UNL     1      40.222 -13.698  -1.305  1.00  0.00     0.036 A 
HETATM   14  C   UNL     1      39.087 -13.404  -2.060  1.00  0.00     0.030 A 
HETATM   15  C   UNL     1      38.700 -14.236  -3.116  1.00  0.00     0.009 A 
HETATM   16  C   UNL     1      39.445 -15.376  -3.437  1.00  0.00    -0.062 A 
HETATM   17  C   UNL     1      38.985 -16.296  -4.531  1.00  0.00     0.048 C 
HETATM   18  C   UNL     1      40.580 -15.674  -2.680  1.00  0.00     0.009 A 
HETATM   19  C   UNL     1      40.968 -14.834  -1.631  1.00  0.00     0.030 A 
ENDBRANCH   9  13
ENDBRANCH   5   7
ENDBRANCH   1   2
BRANCH   1  20
HETATM   20  C   UNL     1      41.604 -13.777   5.598  1.00  0.00     0.225 C 
HETATM   21  N   UNL     1      41.998 -15.045   5.172  1.00  0.00    -0.349 N 
HETATM   22  C   UNL     1      43.446 -15.304   5.135  1.00  0.00     0.145 C 
HETATM   23  C   UNL     1      41.179 -15.876   4.281  1.00  0.00     0.145 C 
HETATM   24  C   UNL     1      43.840 -16.792   5.034  1.00  0.00     0.143 C 
HETATM   25  N   UNL     1      43.043 -17.467   3.987  1.00  0.00    -0.378 N 
HETATM   26  C   UNL     1      41.596 -17.354   4.262  1.00  0.00     0.143 C 
HETATM   27  O   UNL     1      42.341 -13.068   6.290  1.00  0.00    -0.273 OA
BRANCH  25  28
HETATM   28  C   UNL     1      43.441 -18.728   3.527  1.00  0.00     0.030 A 
HETATM   29  C   UNL     1      43.862 -19.698   4.456  1.00  0.00     0.045 A 
HETATM   30  C   UNL     1      44.282 -20.983   4.068  1.00  0.00     0.050 A 
HETATM   31  C   UNL     1      44.252 -21.319   2.712  1.00  0.00     0.016 A 
HETATM   32  C   UNL     1      43.814 -20.388   1.773  1.00  0.00     0.003 A 
HETATM   33  C   UNL     1      43.412 -19.110   2.180  1.00  0.00     0.029 A 
BRANCH  30  34
HETATM   34  C   UNL     1      44.742 -21.986   5.093  1.00  0.00     0.417 C 
HETATM   35  F   UNL     1      46.096 -22.123   5.158  1.00  0.00    -0.166 F 
HETATM   36  F   UNL     1      44.339 -21.667   6.355  1.00  0.00    -0.166 F 
HETATM   37  F   UNL     1      44.256 -23.237   4.852  1.00  0.00    -0.166 F 
ENDBRANCH  30  34
ENDBRANCH  25  28
ENDBRANCH   1  20
TORSDOF 6
ENDMDL
MODEL 5
REMARK VINA RESULT:      -9.0      4.165      7.252
REMARK  6 active torsions:
REMARK  status: ('A' for Active; 'I' for Inactive)
REMARK    1  A    between atoms: C_5  and  N_6 
REMARK       I    between atoms: N_6  and  C_7 
REMARK       I    between atoms: C_7  and  N_8 
REMARK    2  A    between atoms: N_8  and  C_9 
REMARK    3  A    between atoms: C_12  and  C_13 
REMARK    4  A    between atoms: C_13  and  C_14 
REMARK       I    between atoms: C_14  and  N_15 
REMARK    5  A    between atoms: N_18  and  C_19 
REMARK    6  A    between atoms: C_21  and  C_22 
ROOT
HETATM    1  C   UNL     1      40.098 -14.061   5.694  1.00  0.00     0.162 C 
ENDROOT
BRANCH   1   2
HETATM    2  C   UNL     1      41.571 -14.192   5.884  1.00  0.00     0.052 A 
HETATM    3  C   UNL     1      42.463 -13.138   5.997  1.00  0.00     0.081 A 
HETATM    4  S   UNL     1      44.005 -13.720   6.458  1.00  0.00    -0.062 SA
HETATM    5  C   UNL     1      43.392 -15.308   6.419  1.00  0.00     0.174 A 
HETATM    6  N   UNL     1      42.135 -15.453   6.070  1.00  0.00    -0.228 NA
BRANCH   5   7
HETATM    7  N   UNL     1      44.290 -16.264   6.785  1.00  0.00    -0.287 N 
HETATM    8  C   UNL     1      44.459 -17.494   6.220  1.00  0.00     0.326 C 
HETATM    9  N   UNL     1      43.803 -17.725   5.040  1.00  0.00    -0.309 N 
HETATM   10  O   UNL     1      45.238 -18.268   6.775  1.00  0.00    -0.247 OA
HETATM   11  H   UNL     1      43.257 -16.942   4.697  1.00  0.00     0.170 HD
HETATM   12  H   UNL     1      44.885 -16.071   7.576  1.00  0.00     0.172 HD
BRANCH   9  13
HETATM   13  C   UNL     1      43.920 -18.848   4.197  1.00  0.00     0.036 A 
HETATM   14  C   UNL     1      44.614 -20.010   4.531  1.00  0.00     0.030 A 
HETATM   15  C   UNL     1      44.707 -21.069   3.621  1.00  0.00     0.009 A 
HETATM   16  C   UNL     1      44.103 -20.984   2.362  1.00  0.00    -0.062 A 
HETATM   17  C   UNL     1      44.262 -22.100   1.371  1.00  0.00     0.048 C 
HETATM   18  C   UNL     1      43.409 -19.820   2.024  1.00  0.00     0.009 A 
HETATM   19  C   UNL     1      43.312 -18.767   2.941  1.00  0.00     0.030 A 
ENDBRANCH   9  13
ENDBRANCH   5   7
ENDBRANCH   1   2
BRANCH   1  20
HETATM   20  C   UNL     1      39.716 -12.952   4.728  1.00  0.00     0.225 C 
HETATM   21  N   UNL     1      39.916 -13.155   3.364  1.00  0.00    -0.349 N 
HETATM   22  C   UNL     1      39.063 -12.375   2.453  1.00  0.00     0.145 C 
HETATM   23  C   UNL     1      40.460 -14.404   2.816  1.00  0.00     0.145 C 
HETATM   24  C   UNL     1      39.546 -12.325   0.989  1.00  0.00     0.143 C 
HETATM   25  N   UNL     1      39.912 -13.679   0.520  1.00  0.00    -0.378 N 
HETATM   26  C   UNL     1      40.965 -14.273   1.371  1.00  0.00     0.143 C 
HETATM   27  O   UNL     1      39.191 -11.921   5.161  1.00  0.00    -0.273 OA
BRANCH  25  28
HETATM   28  C   UNL     1      40.088 -13.908  -0.850  1.00  0.00     0.030 A 
HETATM   29  C   UNL     1      38.973 -14.243  -1.640  1.00  0.00     0.045 A 
HETATM   30  C   UNL     1      39.072 -14.493  -3.020  1.00  0.00     0.050 A 
HETATM   31  C   UNL     1      40.322 -14.376  -3.636  1.00  0.00     0.016 A 
HETATM   32  C   UNL     1      41.438 -14.018  -2.884  1.00  0.00     0.003 A 
HETATM   33  C   UNL     1      41.318 -13.785  -1.508  1.00  0.00     0.029 A 
BRANCH  30  34
HETATM   34  C   UNL     1      37.856 -14.867  -3.826  1.00  0.00     0.417 C 
HETATM   35  F   UNL     1      36.930 -15.579  -3.125  1.00  0.00    -0.166 F 
HETATM   36  F   UNL     1      37.197 -13.779  -4.314  1.00  0.00    -0.166 F 
HETATM   37  F   UNL     1      38.165 -15.632  -4.911  1.00  0.00    -0.166 F 
ENDBRANCH  30  34
ENDBRANCH  25  28
ENDBRANCH   1  20
TORSDOF 6
ENDMDL
MODEL 6
REMARK VINA RESULT:      -8.9      4.811      8.629
REMARK  6 active torsions:
REMARK  status: ('A' for Active; 'I' for Inactive)
REMARK    1  A    between atoms: C_5  and  N_6 
REMARK       I    between atoms: N_6  and  C_7 
REMARK       I    between atoms: C_7  and  N_8 
REMARK    2  A    between atoms: N_8  and  C_9 
REMARK    3  A    between atoms: C_12  and  C_13 
REMARK    4  A    between atoms: C_13  and  C_14 
REMARK       I    between atoms: C_14  and  N_15 
REMARK    5  A    between atoms: N_18  and  C_19 
REMARK    6  A    between atoms: C_21  and  C_22 
ROOT
HETATM    1  C   UNL     1      40.167 -13.757  -1.115  1.00  0.00     0.162 C 
ENDROOT
BRANCH   1   2
HETATM    2  C   UNL     1      39.521 -14.377  -2.307  1.00  0.00     0.052 A 
HETATM    3  C   UNL     1      40.080 -15.364  -3.101  1.00  0.00     0.081 A 
HETATM    4  S   UNL     1      38.913 -15.970  -4.196  1.00  0.00    -0.062 SA
HETATM    5  C   UNL     1      37.787 -14.852  -3.578  1.00  0.00     0.174 A 
HETATM    6  N   UNL     1      38.208 -14.043  -2.634  1.00  0.00    -0.228 NA
BRANCH   5   7
HETATM    7  N   UNL     1      36.546 -14.944  -4.131  1.00  0.00    -0.287 N 
HETATM    8  C   UNL     1      35.820 -13.937  -4.697  1.00  0.00     0.326 C 
HETATM    9  N   UNL     1      36.475 -12.755  -4.916  1.00  0.00    -0.309 N 
HETATM   10  O   UNL     1      34.663 -14.192  -5.026  1.00  0.00    -0.247 OA
HETATM   11  H   UNL     1      37.451 -12.751  -4.639  1.00  0.00     0.170 HD
HETATM   12  H   UNL     1      36.085 -15.841  -4.103  1.00  0.00     0.172 HD
BRANCH   9  13
HETATM   13  C   UNL     1      35.996 -11.621  -5.602  1.00  0.00     0.036 A 
HETATM   14  C   UNL     1      35.387 -10.530  -4.983  1.00  0.00     0.030 A 
HETATM   15  C   UNL     1      34.912  -9.455  -5.744  1.00  0.00     0.009 A 
HETATM   16  C   UNL     1      35.040  -9.453  -7.136  1.00  0.00    -0.062 A 
HETATM   17  C   UNL     1      34.470  -8.326  -7.946  1.00  0.00     0.048 C 
HETATM   18  C   UNL     1      35.646 -10.547  -7.758  1.00  0.00     0.009 A 
HETATM   19  C   UNL     1      36.129 -11.615  -6.993  1.00  0.00     0.030 A 
ENDBRANCH   9  13
ENDBRANCH   5   7
ENDBRANCH   1   2
BRANCH   1  20
HETATM   20  C   UNL     1      39.686 -14.347   0.200  1.00  0.00     0.225 C 
HETATM   21  N   UNL     1      40.456 -15.335   0.811  1.00  0.00    -0.349 N 
HETATM   22  C   UNL     1      40.307 -15.475   2.269  1.00  0.00     0.145 C 
HETATM   23  C   UNL     1      41.726 -15.815   0.252  1.00  0.00     0.145 C 
HETATM   24  C   UNL     1      40.860 -16.788   2.858  1.00  0.00     0.143 C 
HETATM   25  N   UNL     1      42.212 -17.065   2.325  1.00  0.00    -0.378 N 
HETATM   26  C   UNL     1      42.196 -17.150   0.849  1.00  0.00     0.143 C 
HETATM   27  O   UNL     1      38.658 -13.909   0.725  1.00  0.00    -0.273 OA
BRANCH  25  28
HETATM   28  C   UNL     1      43.011 -18.033   2.945  1.00  0.00     0.030 A 
HETATM   29  C   UNL     1      43.162 -19.293   2.336  1.00  0.00     0.045 A 
HETATM   30  C   UNL     1      43.942 -20.317   2.902  1.00  0.00     0.050 A 
HETATM   31  C   UNL     1      44.616 -20.063   4.100  1.00  0.00     0.016 A 
HETATM   32  C   UNL     1      44.507 -18.816   4.710  1.00  0.00     0.003 A 
HETATM   33  C   UNL     1      43.714 -17.815   4.135  1.00  0.00     0.029 A 
BRANCH  30  34
HETATM   34  C   UNL     1      44.063 -21.657   2.227  1.00  0.00     0.417 C 
HETATM   35  F   UNL     1      45.145 -21.761   1.404  1.00  0.00    -0.166 F 
HETATM   36  F   UNL     1      44.172 -22.683   3.115  1.00  0.00    -0.166 F 
HETATM   37  F   UNL     1      42.982 -21.949   1.450  1.00  0.00    -0.166 F 
ENDBRANCH  30  34
ENDBRANCH  25  28
ENDBRANCH   1  20
TORSDOF 6
ENDMDL
MODEL 7
REMARK VINA RESULT:      -8.9      4.768      7.859
REMARK  6 active torsions:
REMARK  status: ('A' for Active; 'I' for Inactive)
REMARK    1  A    between atoms: C_5  and  N_6 
REMARK       I    between atoms: N_6  and  C_7 
REMARK       I    between atoms: C_7  and  N_8 
REMARK    2  A    between atoms: N_8  and  C_9 
REMARK    3  A    between atoms: C_12  and  C_13 
REMARK    4  A    between atoms: C_13  and  C_14 
REMARK       I    between atoms: C_14  and  N_15 
REMARK    5  A    between atoms: N_18  and  C_19 
REMARK    6  A    between atoms: C_21  and  C_22 
ROOT
HETATM    1  C   UNL     1      41.406  -9.735   9.242  1.00  0.00     0.162 C 
ENDROOT
BRANCH   1   2
HETATM    2  C   UNL     1      42.613 -10.570   9.507  1.00  0.00     0.052 A 
HETATM    3  C   UNL     1      43.131 -10.859  10.758  1.00  0.00     0.081 A 
HETATM    4  S   UNL     1      44.354 -12.048  10.628  1.00  0.00    -0.062 SA
HETATM    5  C   UNL     1      44.143 -12.048   8.939  1.00  0.00     0.174 A 
HETATM    6  N   UNL     1      43.250 -11.219   8.450  1.00  0.00    -0.228 NA
BRANCH   5   7
HETATM    7  N   UNL     1      44.926 -12.944   8.276  1.00  0.00    -0.287 N 
HETATM    8  C   UNL     1      44.567 -13.728   7.219  1.00  0.00     0.326 C 
HETATM    9  N   UNL     1      43.363 -13.451   6.629  1.00  0.00    -0.309 N 
HETATM   10  O   UNL     1      45.380 -14.568   6.839  1.00  0.00    -0.247 OA
HETATM   11  H   UNL     1      42.857 -12.673   7.039  1.00  0.00     0.170 HD
HETATM   12  H   UNL     1      45.870 -13.077   8.607  1.00  0.00     0.172 HD
BRANCH   9  13
HETATM   13  C   UNL     1      42.832 -14.016   5.452  1.00  0.00     0.036 A 
HETATM   14  C   UNL     1      41.699 -14.829   5.415  1.00  0.00     0.030 A 
HETATM   15  C   UNL     1      41.256 -15.375   4.206  1.00  0.00     0.009 A 
HETATM   16  C   UNL     1      41.936 -15.114   3.012  1.00  0.00    -0.062 A 
HETATM   17  C   UNL     1      41.489 -15.756   1.731  1.00  0.00     0.048 C 
HETATM   18  C   UNL     1      43.072 -14.303   3.047  1.00  0.00     0.009 A 
HETATM   19  C   UNL     1      43.507 -13.751   4.257  1.00  0.00     0.030 A 
ENDBRANCH   9  13
ENDBRANCH   5   7
ENDBRANCH   1   2
BRANCH   1  20
HETATM   20  C   UNL     1      40.237 -10.532   8.688  1.00  0.00     0.225 C 
HETATM   21  N   UNL     1      40.175 -10.761   7.315  1.00  0.00    -0.349 N 
HETATM   22  C   UNL     1      39.416 -11.946   6.881  1.00  0.00     0.145 C 
HETATM   23  C   UNL     1      41.202 -10.285   6.380  1.00  0.00     0.145 C 
HETATM   24  C   UNL     1      39.043 -11.969   5.385  1.00  0.00     0.143 C 
HETATM   25  N   UNL     1      40.216 -11.622   4.554  1.00  0.00    -0.378 N 
HETATM   26  C   UNL     1      40.749 -10.291   4.912  1.00  0.00     0.143 C 
HETATM   27  O   UNL     1      39.399 -11.003   9.463  1.00  0.00    -0.273 OA
BRANCH  25  28
HETATM   28  C   UNL     1      40.182 -11.873   3.177  1.00  0.00     0.030 A 
HETATM   29  C   UNL     1      39.169 -12.699   2.653  1.00  0.00     0.045 A 
HETATM   30  C   UNL     1      39.075 -13.001   1.283  1.00  0.00     0.050 A 
HETATM   31  C   UNL     1      40.003 -12.436   0.405  1.00  0.00     0.016 A 
HETATM   32  C   UNL     1      40.999 -11.593   0.892  1.00  0.00     0.003 A 
HETATM   33  C   UNL     1      41.083 -11.316   2.262  1.00  0.00     0.029 A 
BRANCH  30  34
HETATM   34  C   UNL     1      37.985 -13.903   0.766  1.00  0.00     0.417 C 
HETATM   35  F   UNL     1      38.148 -14.270  -0.536  1.00  0.00    -0.166 F 
HETATM   36  F   UNL     1      37.889 -15.065   1.471  1.00  0.00    -0.166 F 
HETATM   37  F   UNL     1      36.753 -13.324   0.833  1.00  0.00    -0.166 F 
ENDBRANCH  30  34
ENDBRANCH  25  28
ENDBRANCH   1  20
TORSDOF 6
ENDMDL
MODEL 8
REMARK VINA RESULT:      -8.9      4.003      4.709
REMARK  6 active torsions:
REMARK  status: ('A' for Active; 'I' for Inactive)
REMARK    1  A    between atoms: C_5  and  N_6 
REMARK       I    between atoms: N_6  and  C_7 
REMARK       I    between atoms: C_7  and  N_8 
REMARK    2  A    between atoms: N_8  and  C_9 
REMARK    3  A    between atoms: C_12  and  C_13 
REMARK    4  A    between atoms: C_13  and  C_14 
REMARK       I    between atoms: C_14  and  N_15 
REMARK    5  A    between atoms: N_18  and  C_19 
REMARK    6  A    between atoms: C_21  and  C_22 
ROOT
HETATM    1  C   UNL     1      39.237 -13.270   4.927  1.00  0.00     0.162 C 
ENDROOT
BRANCH   1   2
HETATM    2  C   UNL     1      39.871 -12.004   5.393  1.00  0.00     0.052 A 
HETATM    3  C   UNL     1      40.963 -11.387   4.804  1.00  0.00     0.081 A 
HETATM    4  S   UNL     1      41.205  -9.838   5.490  1.00  0.00    -0.062 SA
HETATM    5  C   UNL     1      39.895 -10.124   6.539  1.00  0.00     0.174 A 
HETATM    6  N   UNL     1      39.297 -11.288   6.443  1.00  0.00    -0.228 NA
BRANCH   5   7
HETATM    7  N   UNL     1      39.598  -9.079   7.361  1.00  0.00    -0.287 N 
HETATM    8  C   UNL     1      39.777  -9.016   8.712  1.00  0.00     0.326 C 
HETATM    9  N   UNL     1      40.512 -10.021   9.282  1.00  0.00    -0.309 N 
HETATM   10  O   UNL     1      39.326  -8.032   9.295  1.00  0.00    -0.247 OA
HETATM   11  H   UNL     1      40.861 -10.715   8.629  1.00  0.00     0.170 HD
HETATM   12  H   UNL     1      39.171  -8.264   6.947  1.00  0.00     0.172 HD
BRANCH   9  13
HETATM   13  C   UNL     1      40.951 -10.114  10.617  1.00  0.00     0.036 A 
HETATM   14  C   UNL     1      40.233 -10.739  11.636  1.00  0.00     0.030 A 
HETATM   15  C   UNL     1      40.728 -10.760  12.945  1.00  0.00     0.009 A 
HETATM   16  C   UNL     1      41.951 -10.159  13.256  1.00  0.00    -0.062 A 
HETATM   17  C   UNL     1      42.442 -10.132  14.674  1.00  0.00     0.048 C 
HETATM   18  C   UNL     1      42.670  -9.529  12.237  1.00  0.00     0.009 A 
HETATM   19  C   UNL     1      42.176  -9.519  10.929  1.00  0.00     0.030 A 
ENDBRANCH   9  13
ENDBRANCH   5   7
ENDBRANCH   1   2
BRANCH   1  20
HETATM   20  C   UNL     1      39.853 -13.811   3.648  1.00  0.00     0.225 C 
HETATM   21  N   UNL     1      40.765 -14.861   3.737  1.00  0.00    -0.349 N 
HETATM   22  C   UNL     1      40.903 -15.713   2.544  1.00  0.00     0.145 C 
HETATM   23  C   UNL     1      41.141 -15.484   5.012  1.00  0.00     0.145 C 
HETATM   24  C   UNL     1      42.158 -16.608   2.524  1.00  0.00     0.143 C 
HETATM   25  N   UNL     1      42.324 -17.296   3.822  1.00  0.00    -0.378 N 
HETATM   26  C   UNL     1      42.425 -16.324   4.931  1.00  0.00     0.143 C 
HETATM   27  O   UNL     1      39.498 -13.350   2.558  1.00  0.00    -0.273 OA
BRANCH  25  28
HETATM   28  C   UNL     1      43.214 -18.371   3.922  1.00  0.00     0.030 A 
HETATM   29  C   UNL     1      43.193 -19.376   2.937  1.00  0.00     0.045 A 
HETATM   30  C   UNL     1      44.051 -20.489   2.974  1.00  0.00     0.050 A 
HETATM   31  C   UNL     1      44.981 -20.586   4.012  1.00  0.00     0.016 A 
HETATM   32  C   UNL     1      45.044 -19.593   4.986  1.00  0.00     0.003 A 
HETATM   33  C   UNL     1      44.171 -18.499   4.937  1.00  0.00     0.029 A 
BRANCH  30  34
HETATM   34  C   UNL     1      43.983 -21.551   1.907  1.00  0.00     0.417 C 
HETATM   35  F   UNL     1      44.512 -21.164   0.713  1.00  0.00    -0.166 F 
HETATM   36  F   UNL     1      44.647 -22.687   2.258  1.00  0.00    -0.166 F 
HETATM   37  F   UNL     1      42.704 -21.935   1.636  1.00  0.00    -0.166 F 
ENDBRANCH  30  34
ENDBRANCH  25  28
ENDBRANCH   1  20
TORSDOF 6
ENDMDL
MODEL 9
REMARK VINA RESULT:      -8.7      3.977      7.069
REMARK  6 active torsions:
REMARK  status: ('A' for Active; 'I' for Inactive)
REMARK    1  A    between atoms: C_5  and  N_6 
REMARK       I    between atoms: N_6  and  C_7 
REMARK       I    between atoms: C_7  and  N_8 
REMARK    2  A    between atoms: N_8  and  C_9 
REMARK    3  A    between atoms: C_12  and  C_13 
REMARK    4  A    between atoms: C_13  and  C_14 
REMARK       I    between atoms: C_14  and  N_15 
REMARK    5  A    between atoms: N_18  and  C_19 
REMARK    6  A    between atoms: C_21  and  C_22 
ROOT
HETATM    1  C   UNL     1      40.227 -10.267   9.434  1.00  0.00     0.162 C 
ENDROOT
BRANCH   1   2
HETATM    2  C   UNL     1      41.621 -10.579   9.862  1.00  0.00     0.052 A 
HETATM    3  C   UNL     1      42.024 -10.833  11.162  1.00  0.00     0.081 A 
HETATM    4  S   UNL     1      43.640 -11.394  11.179  1.00  0.00    -0.062 SA
HETATM    5  C   UNL     1      43.697 -11.206   9.488  1.00  0.00     0.174 A 
HETATM    6  N   UNL     1      42.620 -10.738   8.902  1.00  0.00    -0.228 NA
BRANCH   5   7
HETATM    7  N   UNL     1      44.874 -11.593   8.921  1.00  0.00    -0.287 N 
HETATM    8  C   UNL     1      45.087 -12.682   8.126  1.00  0.00     0.326 C 
HETATM    9  N   UNL     1      43.975 -13.348   7.684  1.00  0.00    -0.309 N 
HETATM   10  O   UNL     1      46.250 -12.934   7.815  1.00  0.00    -0.247 OA
HETATM   11  H   UNL     1      43.092 -12.952   7.991  1.00  0.00     0.170 HD
HETATM   12  H   UNL     1      45.695 -11.043   9.122  1.00  0.00     0.172 HD
BRANCH   9  13
HETATM   13  C   UNL     1      43.919 -14.405   6.755  1.00  0.00     0.036 A 
HETATM   14  C   UNL     1      43.627 -14.243   5.401  1.00  0.00     0.030 A 
HETATM   15  C   UNL     1      43.561 -15.352   4.550  1.00  0.00     0.009 A 
HETATM   16  C   UNL     1      43.789 -16.642   5.039  1.00  0.00    -0.062 A 
HETATM   17  C   UNL     1      43.653 -17.830   4.132  1.00  0.00     0.048 C 
HETATM   18  C   UNL     1      44.078 -16.807   6.396  1.00  0.00     0.009 A 
HETATM   19  C   UNL     1      44.152 -15.694   7.240  1.00  0.00     0.030 A 
ENDBRANCH   9  13
ENDBRANCH   5   7
ENDBRANCH   1   2
BRANCH   1  20
HETATM   20  C   UNL     1      40.156  -9.609   8.066  1.00  0.00     0.225 C 
HETATM   21  N   UNL     1      40.063 -10.421   6.937  1.00  0.00    -0.349 N 
HETATM   22  C   UNL     1      39.444  -9.819   5.745  1.00  0.00     0.145 C 
HETATM   23  C   UNL     1      40.009 -11.886   7.012  1.00  0.00     0.145 C 
HETATM   24  C   UNL     1      39.692 -10.580   4.427  1.00  0.00     0.143 C 
HETATM   25  N   UNL     1      39.447 -12.027   4.612  1.00  0.00    -0.378 N 
HETATM   26  C   UNL     1      40.310 -12.582   5.676  1.00  0.00     0.143 C 
HETATM   27  O   UNL     1      40.128  -8.377   7.983  1.00  0.00    -0.273 OA
BRANCH  25  28
HETATM   28  C   UNL     1      39.322 -12.852   3.488  1.00  0.00     0.030 A 
HETATM   29  C   UNL     1      39.914 -14.129   3.503  1.00  0.00     0.045 A 
HETATM   30  C   UNL     1      39.837 -15.010   2.410  1.00  0.00     0.050 A 
HETATM   31  C   UNL     1      39.119 -14.615   1.277  1.00  0.00     0.016 A 
HETATM   32  C   UNL     1      38.500 -13.368   1.246  1.00  0.00     0.003 A 
HETATM   33  C   UNL     1      38.600 -12.501   2.341  1.00  0.00     0.029 A 
BRANCH  30  34
HETATM   34  C   UNL     1      40.500 -16.362   2.461  1.00  0.00     0.417 C 
HETATM   35  F   UNL     1      40.659 -16.848   3.724  1.00  0.00    -0.166 F 
HETATM   36  F   UNL     1      39.801 -17.313   1.781  1.00  0.00    -0.166 F 
HETATM   37  F   UNL     1      41.747 -16.351   1.911  1.00  0.00    -0.166 F 
ENDBRANCH  30  34
ENDBRANCH  25  28
ENDBRANCH   1  20
TORSDOF 6
ENDMDL
MODEL 10
REMARK VINA RESULT:      -8.6      4.646      7.508
REMARK  6 active torsions:
REMARK  status: ('A' for Active; 'I' for Inactive)
REMARK    1  A    between atoms: C_5  and  N_6 
REMARK       I    between atoms: N_6  and  C_7 
REMARK       I    between atoms: C_7  and  N_8 
REMARK    2  A    between atoms: N_8  and  C_9 
REMARK    3  A    between atoms: C_12  and  C_13 
REMARK    4  A    between atoms: C_13  and  C_14 
REMARK       I    between atoms: C_14  and  N_15 
REMARK    5  A    between atoms: N_18  and  C_19 
REMARK    6  A    between atoms: C_21  and  C_22 
ROOT
HETATM    1  C   UNL     1      40.111 -14.179   5.621  1.00  0.00     0.162 C 
ENDROOT
BRANCH   1   2
HETATM    2  C   UNL     1      41.583 -14.257   5.846  1.00  0.00     0.052 A 
HETATM    3  C   UNL     1      42.427 -13.173   6.022  1.00  0.00     0.081 A 
HETATM    4  S   UNL     1      43.980 -13.709   6.503  1.00  0.00    -0.062 SA
HETATM    5  C   UNL     1      43.435 -15.317   6.388  1.00  0.00     0.174 A 
HETATM    6  N   UNL     1      42.195 -15.501   5.999  1.00  0.00    -0.228 NA
BRANCH   5   7
HETATM    7  N   UNL     1      44.363 -16.250   6.741  1.00  0.00    -0.287 N 
HETATM    8  C   UNL     1      44.542 -17.484   6.189  1.00  0.00     0.326 C 
HETATM    9  N   UNL     1      43.859 -17.746   5.032  1.00  0.00    -0.309 N 
HETATM   10  O   UNL     1      45.352 -18.233   6.733  1.00  0.00    -0.247 OA
HETATM   11  H   UNL     1      43.287 -16.979   4.693  1.00  0.00     0.170 HD
HETATM   12  H   UNL     1      44.975 -16.033   7.513  1.00  0.00     0.172 HD
BRANCH   9  13
HETATM   13  C   UNL     1      43.975 -18.878   4.202  1.00  0.00     0.036 A 
HETATM   14  C   UNL     1      44.621 -20.057   4.571  1.00  0.00     0.030 A 
HETATM   15  C   UNL     1      44.718 -21.126   3.672  1.00  0.00     0.009 A 
HETATM   16  C   UNL     1      44.167 -21.034   2.390  1.00  0.00    -0.062 A 
HETATM   17  C   UNL     1      44.332 -22.161   1.413  1.00  0.00     0.048 C 
HETATM   18  C   UNL     1      43.523 -19.852   2.017  1.00  0.00     0.009 A 
HETATM   19  C   UNL     1      43.420 -18.790   2.922  1.00  0.00     0.030 A 
ENDBRANCH   9  13
ENDBRANCH   5   7
ENDBRANCH   1   2
BRANCH   1  20
HETATM   20  C   UNL     1      39.710 -13.066   4.669  1.00  0.00     0.225 C 
HETATM   21  N   UNL     1      40.042 -13.187   3.320  1.00  0.00    -0.349 N 
HETATM   22  C   UNL     1      39.199 -12.446   2.368  1.00  0.00     0.145 C 
HETATM   23  C   UNL     1      40.743 -14.356   2.774  1.00  0.00     0.145 C 
HETATM   24  C   UNL     1      39.796 -12.286   0.956  1.00  0.00     0.143 C 
HETATM   25  N   UNL     1      40.324 -13.579   0.469  1.00  0.00    -0.378 N 
HETATM   26  C   UNL     1      41.352 -14.114   1.385  1.00  0.00     0.143 C 
HETATM   27  O   UNL     1      39.058 -12.106   5.092  1.00  0.00    -0.273 OA
BRANCH  25  28
HETATM   28  C   UNL     1      40.634 -13.728  -0.888  1.00  0.00     0.030 A 
HETATM   29  C   UNL     1      41.038 -12.601  -1.629  1.00  0.00     0.045 A 
HETATM   30  C   UNL     1      41.359 -12.672  -2.996  1.00  0.00     0.050 A 
HETATM   31  C   UNL     1      41.303 -13.913  -3.637  1.00  0.00     0.016 A 
HETATM   32  C   UNL     1      40.933 -15.050  -2.921  1.00  0.00     0.003 A 
HETATM   33  C   UNL     1      40.606 -14.954  -1.563  1.00  0.00     0.029 A 
BRANCH  30  34
HETATM   34  C   UNL     1      41.771 -11.438  -3.757  1.00  0.00     0.417 C 
HETATM   35  F   UNL     1      40.764 -10.882  -4.487  1.00  0.00    -0.166 F 
HETATM   36  F   UNL     1      42.229 -10.449  -2.940  1.00  0.00    -0.166 F 
HETATM   37  F   UNL     1      42.776 -11.685  -4.644  1.00  0.00    -0.166 F 
ENDBRANCH  30  34
ENDBRANCH  25  28
ENDBRANCH   1  20
TORSDOF 6
ENDMDL
