MODEL 1
REMARK VINA RESULT:      -8.5      0.000      0.000
REMARK  7 active torsions:
REMARK  status: ('A' for Active; 'I' for Inactive)
REMARK    1  A    between atoms: C_7  and  S_8 
REMARK    2  A    between atoms: S_8  and  C_9 
REMARK    3  A    between atoms: C_9  and  C_10 
REMARK    4  A    between atoms: C_18  and  C_19 
REMARK    5  A    between atoms: C_26  and  C_27 
REMARK    6  A    between atoms: C_27  and  O_28 
REMARK    7  A    between atoms: O_28  and  C_29 
ROOT
HETATM    1  C   UNL     1      39.090 -12.958   6.448  1.00  0.00     0.070 C 
HETATM    2  C   UNL     1      40.120 -13.891   5.861  1.00  0.00     0.037 A 
HETATM    3  N   UNL     1      40.354 -15.055   6.584  1.00  0.00    -0.192 N 
HETATM    4  C   UNL     1      41.337 -15.924   6.289  1.00  0.00     0.726 A 
HETATM    5  N   UNL     1      42.125 -15.702   5.195  1.00  0.00    -0.082 N 
HETATM    6  N   UNL     1      43.106 -16.625   5.102  1.00  0.00    -0.128 NA
HETATM    7  C   UNL     1      42.787 -17.430   6.124  1.00  0.00     0.226 A 
HETATM    8  N   UNL     1      41.724 -17.017   6.889  1.00  0.00    -0.035 NA
HETATM    9  C   UNL     1      41.933 -14.588   4.257  1.00  0.00     0.203 A 
HETATM   10  C   UNL     1      40.839 -13.640   4.737  1.00  0.00     0.070 A 
HETATM   11  H   UNL     1      39.807 -15.208   7.427  1.00  0.00     0.184 HD
ENDROOT
BRANCH   7  12
HETATM   12  S   UNL     1      43.630 -18.911   6.483  1.00  0.00    -0.083 SA
BRANCH  12  13
HETATM   13  C   UNL     1      44.914 -18.921   5.203  1.00  0.00     0.123 C 
BRANCH  13  14
HETATM   14  C   UNL     1      44.702 -20.063   4.235  1.00  0.00    -0.027 A 
HETATM   15  C   UNL     1      44.286 -19.866   2.907  1.00  0.00     0.041 A 
HETATM   16 CL   UNL     1      44.014 -18.291   2.250  1.00  0.00    -0.084 Cl
HETATM   17  C   UNL     1      44.070 -20.959   2.060  1.00  0.00     0.024 A 
HETATM   18  C   UNL     1      44.256 -22.259   2.527  1.00  0.00     0.002 A 
HETATM   19  C   UNL     1      44.658 -22.472   3.843  1.00  0.00     0.001 A 
HETATM   20  C   UNL     1      44.879 -21.383   4.689  1.00  0.00     0.009 A 
ENDBRANCH  13  14
ENDBRANCH  12  13
ENDBRANCH   7  12
BRANCH   9  21
HETATM   21  C   UNL     1      41.672 -15.140   2.855  1.00  0.00    -0.028 A 
HETATM   22  C   UNL     1      40.774 -16.202   2.637  1.00  0.00     0.012 A 
HETATM   23  C   UNL     1      40.570 -16.703   1.350  1.00  0.00     0.043 A 
HETATM   24  C   UNL     1      41.259 -16.148   0.279  1.00  0.00     0.116 A 
HETATM   25  F   UNL     1      41.063 -16.632  -0.955  1.00  0.00    -0.206 F 
HETATM   26  C   UNL     1      42.148 -15.098   0.468  1.00  0.00     0.043 A 
HETATM   27  C   UNL     1      42.354 -14.593   1.753  1.00  0.00     0.012 A 
ENDBRANCH   9  21
BRANCH  10  28
HETATM   28  C   UNL     1      40.681 -12.435   3.898  1.00  0.00     0.294 C 
HETATM   29  O   UNL     1      41.602 -11.668   3.661  1.00  0.00    -0.259 OA
BRANCH  28  30
HETATM   30  O   UNL     1      39.426 -12.372   3.398  1.00  0.00    -0.313 OA
BRANCH  30  31
HETATM   31  C   UNL     1      39.277 -11.965   2.025  1.00  0.00     0.124 C 
HETATM   32  C   UNL     1      38.957 -13.202   1.198  1.00  0.00     0.040 C 
HETATM   33  C   UNL     1      38.135 -10.958   1.974  1.00  0.00     0.040 C 
ENDBRANCH  30  31
ENDBRANCH  28  30
ENDBRANCH  10  28
TORSDOF 7
ENDMDL
MODEL 2
REMARK VINA RESULT:      -8.2      1.090      1.949
REMARK  7 active torsions:
REMARK  status: ('A' for Active; 'I' for Inactive)
REMARK    1  A    between atoms: C_7  and  S_8 
REMARK    2  A    between atoms: S_8  and  C_9 
REMARK    3  A    between atoms: C_9  and  C_10 
REMARK    4  A    between atoms: C_18  and  C_19 
REMARK    5  A    between atoms: C_26  and  C_27 
REMARK    6  A    between atoms: C_27  and  O_28 
REMARK    7  A    between atoms: O_28  and  C_29 
ROOT
HETATM    1  C   UNL     1      39.054 -12.894   6.554  1.00  0.00     0.070 C 
HETATM    2  C   UNL     1      40.089 -13.795   5.927  1.00  0.00     0.037 A 
HETATM    3  N   UNL     1      40.302 -15.005   6.579  1.00  0.00    -0.192 N 
HETATM    4  C   UNL     1      41.285 -15.862   6.247  1.00  0.00     0.726 A 
HETATM    5  N   UNL     1      42.095 -15.576   5.185  1.00  0.00    -0.082 N 
HETATM    6  N   UNL     1      43.072 -16.498   5.052  1.00  0.00    -0.128 NA
HETATM    7  C   UNL     1      42.729 -17.365   6.014  1.00  0.00     0.226 A 
HETATM    8  N   UNL     1      41.653 -16.994   6.783  1.00  0.00    -0.035 NA
HETATM    9  C   UNL     1      41.929 -14.402   4.317  1.00  0.00     0.203 A 
HETATM   10  C   UNL     1      40.832 -13.479   4.836  1.00  0.00     0.070 A 
HETATM   11  H   UNL     1      39.738 -15.208   7.400  1.00  0.00     0.184 HD
ENDROOT
BRANCH   7  12
HETATM   12  S   UNL     1      43.554 -18.872   6.293  1.00  0.00    -0.083 SA
BRANCH  12  13
HETATM   13  C   UNL     1      44.821 -18.841   4.996  1.00  0.00     0.123 C 
BRANCH  13  14
HETATM   14  C   UNL     1      44.564 -19.916   3.965  1.00  0.00    -0.027 A 
HETATM   15  C   UNL     1      44.035 -19.639   2.693  1.00  0.00     0.041 A 
HETATM   16 CL   UNL     1      43.663 -18.030   2.181  1.00  0.00    -0.084 Cl
HETATM   17  C   UNL     1      43.783 -20.674   1.786  1.00  0.00     0.024 A 
HETATM   18  C   UNL     1      44.044 -21.997   2.139  1.00  0.00     0.002 A 
HETATM   19  C   UNL     1      44.559 -22.290   3.398  1.00  0.00     0.001 A 
HETATM   20  C   UNL     1      44.817 -21.259   4.303  1.00  0.00     0.009 A 
ENDBRANCH  13  14
ENDBRANCH  12  13
ENDBRANCH   7  12
BRANCH   9  21
HETATM   21  C   UNL     1      41.691 -14.862   2.878  1.00  0.00    -0.028 A 
HETATM   22  C   UNL     1      42.420 -14.322   1.801  1.00  0.00     0.012 A 
HETATM   23  C   UNL     1      42.169 -14.745   0.494  1.00  0.00     0.043 A 
HETATM   24  C   UNL     1      41.192 -15.703   0.258  1.00  0.00     0.116 A 
HETATM   25  F   UNL     1      40.950 -16.103  -0.998  1.00  0.00    -0.206 F 
HETATM   26  C   UNL     1      40.461 -16.252   1.303  1.00  0.00     0.043 A 
HETATM   27  C   UNL     1      40.710 -15.835   2.611  1.00  0.00     0.012 A 
ENDBRANCH   9  21
BRANCH  10  28
HETATM   28  C   UNL     1      40.698 -12.222   4.073  1.00  0.00     0.294 C 
HETATM   29  O   UNL     1      39.854 -12.060   3.205  1.00  0.00    -0.259 OA
BRANCH  28  30
HETATM   30  O   UNL     1      41.574 -11.299   4.532  1.00  0.00    -0.313 OA
BRANCH  30  31
HETATM   31  C   UNL     1      41.038 -10.177   5.258  1.00  0.00     0.124 C 
HETATM   32  C   UNL     1      41.533 -10.264   6.695  1.00  0.00     0.040 C 
HETATM   33  C   UNL     1      41.546  -8.913   4.576  1.00  0.00     0.040 C 
ENDBRANCH  30  31
ENDBRANCH  28  30
ENDBRANCH  10  28
TORSDOF 7
ENDMDL
MODEL 3
REMARK VINA RESULT:      -8.2      4.140      5.332
REMARK  7 active torsions:
REMARK  status: ('A' for Active; 'I' for Inactive)
REMARK    1  A    between atoms: C_7  and  S_8 
REMARK    2  A    between atoms: S_8  and  C_9 
REMARK    3  A    between atoms: C_9  and  C_10 
REMARK    4  A    between atoms: C_18  and  C_19 
REMARK    5  A    between atoms: C_26  and  C_27 
REMARK    6  A    between atoms: C_27  and  O_28 
REMARK    7  A    between atoms: O_28  and  C_29 
ROOT
HETATM    1  C   UNL     1      42.465 -10.311  -0.187  1.00  0.00     0.070 C 
HETATM    2  C   UNL     1      42.113 -11.776  -0.269  1.00  0.00     0.037 A 
HETATM    3  N   UNL     1      42.030 -12.440   0.949  1.00  0.00    -0.192 N 
HETATM    4  C   UNL     1      41.872 -13.772   1.056  1.00  0.00     0.726 A 
HETATM    5  N   UNL     1      41.729 -14.525  -0.075  1.00  0.00    -0.082 N 
HETATM    6  N   UNL     1      41.667 -15.842   0.217  1.00  0.00    -0.128 NA
HETATM    7  C   UNL     1      41.683 -15.800   1.557  1.00  0.00     0.226 A 
HETATM    8  N   UNL     1      41.834 -14.550   2.104  1.00  0.00    -0.035 NA
HETATM    9  C   UNL     1      41.670 -13.967  -1.432  1.00  0.00     0.203 A 
HETATM   10  C   UNL     1      41.930 -12.464  -1.425  1.00  0.00     0.070 A 
HETATM   11  H   UNL     1      42.183 -11.901   1.796  1.00  0.00     0.184 HD
ENDROOT
BRANCH   7  12
HETATM   12  S   UNL     1      41.515 -17.208   2.567  1.00  0.00    -0.083 SA
BRANCH  12  13
HETATM   13  C   UNL     1      43.212 -17.433   3.166  1.00  0.00     0.123 C 
BRANCH  13  14
HETATM   14  C   UNL     1      43.624 -18.886   3.088  1.00  0.00    -0.027 A 
HETATM   15  C   UNL     1      44.404 -19.509   4.077  1.00  0.00     0.041 A 
HETATM   16 CL   UNL     1      44.932 -18.674   5.495  1.00  0.00    -0.084 Cl
HETATM   17  C   UNL     1      44.788 -20.847   3.941  1.00  0.00     0.024 A 
HETATM   18  C   UNL     1      44.410 -21.578   2.815  1.00  0.00     0.002 A 
HETATM   19  C   UNL     1      43.646 -20.973   1.822  1.00  0.00     0.001 A 
HETATM   20  C   UNL     1      43.256 -19.639   1.956  1.00  0.00     0.009 A 
ENDBRANCH  13  14
ENDBRANCH  12  13
ENDBRANCH   7  12
BRANCH   9  21
HETATM   21  C   UNL     1      40.336 -14.339  -2.080  1.00  0.00    -0.028 A 
HETATM   22  C   UNL     1      40.278 -15.096  -3.266  1.00  0.00     0.012 A 
HETATM   23  C   UNL     1      39.047 -15.405  -3.848  1.00  0.00     0.043 A 
HETATM   24  C   UNL     1      37.874 -14.960  -3.252  1.00  0.00     0.116 A 
HETATM   25  F   UNL     1      36.695 -15.254  -3.815  1.00  0.00    -0.206 F 
HETATM   26  C   UNL     1      37.905 -14.214  -2.081  1.00  0.00     0.043 A 
HETATM   27  C   UNL     1      39.133 -13.904  -1.494  1.00  0.00     0.012 A 
ENDBRANCH   9  21
BRANCH  10  28
HETATM   28  C   UNL     1      42.003 -11.863  -2.773  1.00  0.00     0.294 C 
HETATM   29  O   UNL     1      42.906 -12.106  -3.558  1.00  0.00    -0.259 OA
BRANCH  28  30
HETATM   30  O   UNL     1      40.911 -11.099  -3.006  1.00  0.00    -0.313 OA
BRANCH  30  31
HETATM   31  C   UNL     1      40.225 -11.286  -4.258  1.00  0.00     0.124 C 
HETATM   32  C   UNL     1      38.728 -11.230  -3.988  1.00  0.00     0.040 C 
HETATM   33  C   UNL     1      40.660 -10.157  -5.184  1.00  0.00     0.040 C 
ENDBRANCH  30  31
ENDBRANCH  28  30
ENDBRANCH  10  28
TORSDOF 7
ENDMDL
MODEL 4
REMARK VINA RESULT:      -8.1      3.545      5.312
REMARK  7 active torsions:
REMARK  status: ('A' for Active; 'I' for Inactive)
REMARK    1  A    between atoms: C_7  and  S_8 
REMARK    2  A    between atoms: S_8  and  C_9 
REMARK    3  A    between atoms: C_9  and  C_10 
REMARK    4  A    between atoms: C_18  and  C_19 
REMARK    5  A    between atoms: C_26  and  C_27 
REMARK    6  A    between atoms: C_27  and  O_28 
REMARK    7  A    between atoms: O_28  and  C_29 
ROOT
HETATM    1  C   UNL     1      41.186 -14.358  -3.214  1.00  0.00     0.070 C 
HETATM    2  C   UNL     1      40.882 -14.524  -1.745  1.00  0.00     0.037 A 
HETATM    3  N   UNL     1      41.695 -15.422  -1.064  1.00  0.00    -0.192 N 
HETATM    4  C   UNL     1      41.475 -15.803   0.208  1.00  0.00     0.726 A 
HETATM    5  N   UNL     1      40.437 -15.251   0.904  1.00  0.00    -0.082 N 
HETATM    6  N   UNL     1      40.316 -15.809   2.128  1.00  0.00    -0.128 NA
HETATM    7  C   UNL     1      41.379 -16.625   2.135  1.00  0.00     0.226 A 
HETATM    8  N   UNL     1      42.097 -16.665   0.965  1.00  0.00    -0.035 NA
HETATM    9  C   UNL     1      39.558 -14.200   0.374  1.00  0.00     0.203 A 
HETATM   10  C   UNL     1      39.864 -13.908  -1.092  1.00  0.00     0.070 A 
HETATM   11  H   UNL     1      42.442 -15.877  -1.584  1.00  0.00     0.184 HD
ENDROOT
BRANCH   7  12
HETATM   12  S   UNL     1      41.857 -17.573   3.514  1.00  0.00    -0.083 SA
BRANCH  12  13
HETATM   13  C   UNL     1      43.604 -17.892   3.152  1.00  0.00     0.123 C 
BRANCH  13  14
HETATM   14  C   UNL     1      43.881 -19.377   3.092  1.00  0.00    -0.027 A 
HETATM   15  C   UNL     1      44.501 -20.078   4.141  1.00  0.00     0.041 A 
HETATM   16 CL   UNL     1      44.970 -19.305   5.614  1.00  0.00    -0.084 Cl
HETATM   17  C   UNL     1      44.767 -21.446   4.022  1.00  0.00     0.024 A 
HETATM   18  C   UNL     1      44.429 -22.131   2.856  1.00  0.00     0.002 A 
HETATM   19  C   UNL     1      43.824 -21.450   1.804  1.00  0.00     0.001 A 
HETATM   20  C   UNL     1      43.552 -20.085   1.920  1.00  0.00     0.009 A 
ENDBRANCH  13  14
ENDBRANCH  12  13
ENDBRANCH   7  12
BRANCH   9  21
HETATM   21  C   UNL     1      39.653 -12.959   1.263  1.00  0.00    -0.028 A 
HETATM   22  C   UNL     1      40.855 -12.237   1.394  1.00  0.00     0.012 A 
HETATM   23  C   UNL     1      40.921 -11.120   2.229  1.00  0.00     0.043 A 
HETATM   24  C   UNL     1      39.792 -10.722   2.934  1.00  0.00     0.116 A 
HETATM   25  F   UNL     1      39.860  -9.651   3.737  1.00  0.00    -0.206 F 
HETATM   26  C   UNL     1      38.595 -11.416   2.819  1.00  0.00     0.043 A 
HETATM   27  C   UNL     1      38.523 -12.532   1.985  1.00  0.00     0.012 A 
ENDBRANCH   9  21
BRANCH  10  28
HETATM   28  C   UNL     1      38.934 -12.945  -1.716  1.00  0.00     0.294 C 
HETATM   29  O   UNL     1      39.208 -11.765  -1.869  1.00  0.00    -0.259 OA
BRANCH  28  30
HETATM   30  O   UNL     1      37.817 -13.580  -2.139  1.00  0.00    -0.313 OA
BRANCH  30  31
HETATM   31  C   UNL     1      37.635 -13.726  -3.560  1.00  0.00     0.124 C 
HETATM   32  C   UNL     1      37.301 -15.184  -3.846  1.00  0.00     0.040 C 
HETATM   33  C   UNL     1      36.487 -12.809  -3.966  1.00  0.00     0.040 C 
ENDBRANCH  30  31
ENDBRANCH  28  30
ENDBRANCH  10  28
TORSDOF 7
ENDMDL
MODEL 5
REMARK VINA RESULT:      -7.9      4.318      8.214
REMARK  7 active torsions:
REMARK  status: ('A' for Active; 'I' for Inactive)
REMARK    1  A    between atoms: C_7  and  S_8 
REMARK    2  A    between atoms: S_8  and  C_9 
REMARK    3  A    between atoms: C_9  and  C_10 
REMARK    4  A    between atoms: C_18  and  C_19 
REMARK    5  A    between atoms: C_26  and  C_27 
REMARK    6  A    between atoms: C_27  and  O_28 
REMARK    7  A    between atoms: O_28  and  C_29 
ROOT
HETATM    1  C   UNL     1      40.194 -16.591   1.604  1.00  0.00     0.070 C 
HETATM    2  C   UNL     1      40.751 -15.877   2.811  1.00  0.00     0.037 A 
HETATM    3  N   UNL     1      39.886 -14.981   3.428  1.00  0.00    -0.192 N 
HETATM    4  C   UNL     1      40.261 -14.154   4.421  1.00  0.00     0.726 A 
HETATM    5  N   UNL     1      41.538 -14.217   4.902  1.00  0.00    -0.082 N 
HETATM    6  N   UNL     1      41.760 -13.264   5.832  1.00  0.00    -0.128 NA
HETATM    7  C   UNL     1      40.538 -12.723   5.929  1.00  0.00     0.226 A 
HETATM    8  N   UNL     1      39.601 -13.227   5.060  1.00  0.00    -0.035 NA
HETATM    9  C   UNL     1      42.541 -15.190   4.446  1.00  0.00     0.203 A 
HETATM   10  C   UNL     1      42.018 -16.018   3.277  1.00  0.00     0.070 A 
HETATM   11  H   UNL     1      38.947 -14.889   3.049  1.00  0.00     0.184 HD
ENDROOT
BRANCH   7  12
HETATM   12  S   UNL     1      40.124 -11.476   7.071  1.00  0.00    -0.083 SA
BRANCH  12  13
HETATM   13  C   UNL     1      41.688 -10.568   7.204  1.00  0.00     0.123 C 
BRANCH  13  14
HETATM   14  C   UNL     1      42.039 -10.307   8.652  1.00  0.00    -0.027 A 
HETATM   15  C   UNL     1      43.125 -10.927   9.294  1.00  0.00     0.041 A 
HETATM   16 CL   UNL     1      44.181 -12.020   8.471  1.00  0.00    -0.084 Cl
HETATM   17  C   UNL     1      43.387 -10.679  10.645  1.00  0.00     0.024 A 
HETATM   18  C   UNL     1      42.567  -9.820  11.376  1.00  0.00     0.002 A 
HETATM   19  C   UNL     1      41.482  -9.205  10.757  1.00  0.00     0.001 A 
HETATM   20  C   UNL     1      41.220  -9.447   9.407  1.00  0.00     0.009 A 
ENDBRANCH  13  14
ENDBRANCH  12  13
ENDBRANCH   7  12
BRANCH   9  21
HETATM   21  C   UNL     1      42.996 -16.046   5.628  1.00  0.00    -0.028 A 
HETATM   22  C   UNL     1      44.344 -16.090   6.031  1.00  0.00     0.012 A 
HETATM   23  C   UNL     1      44.737 -16.897   7.101  1.00  0.00     0.043 A 
HETATM   24  C   UNL     1      43.789 -17.660   7.770  1.00  0.00     0.116 A 
HETATM   25  F   UNL     1      44.169 -18.436   8.794  1.00  0.00    -0.206 F 
HETATM   26  C   UNL     1      42.452 -17.632   7.393  1.00  0.00     0.043 A 
HETATM   27  C   UNL     1      42.054 -16.826   6.326  1.00  0.00     0.012 A 
ENDBRANCH   9  21
BRANCH  10  28
HETATM   28  C   UNL     1      43.023 -16.932   2.695  1.00  0.00     0.294 C 
HETATM   29  O   UNL     1      43.921 -16.548   1.962  1.00  0.00    -0.259 OA
BRANCH  28  30
HETATM   30  O   UNL     1      42.834 -18.190   3.155  1.00  0.00    -0.313 OA
BRANCH  30  31
HETATM   31  C   UNL     1      43.960 -19.087   3.115  1.00  0.00     0.124 C 
HETATM   32  C   UNL     1      44.205 -19.600   4.527  1.00  0.00     0.040 C 
HETATM   33  C   UNL     1      43.598 -20.226   2.171  1.00  0.00     0.040 C 
ENDBRANCH  30  31
ENDBRANCH  28  30
ENDBRANCH  10  28
TORSDOF 7
ENDMDL
MODEL 6
REMARK VINA RESULT:      -7.9      4.114      7.094
REMARK  7 active torsions:
REMARK  status: ('A' for Active; 'I' for Inactive)
REMARK    1  A    between atoms: C_7  and  S_8 
REMARK    2  A    between atoms: S_8  and  C_9 
REMARK    3  A    between atoms: C_9  and  C_10 
REMARK    4  A    between atoms: C_18  and  C_19 
REMARK    5  A    between atoms: C_26  and  C_27 
REMARK    6  A    between atoms: C_27  and  O_28 
REMARK    7  A    between atoms: O_28  and  C_29 
ROOT
HETATM    1  C   UNL     1      42.571 -12.816   5.841  1.00  0.00     0.070 C 
HETATM    2  C   UNL     1      42.285 -13.425   4.491  1.00  0.00     0.037 A 
HETATM    3  N   UNL     1      42.568 -12.615   3.397  1.00  0.00    -0.192 N 
HETATM    4  C   UNL     1      42.240 -12.936   2.133  1.00  0.00     0.726 A 
HETATM    5  N   UNL     1      41.646 -14.140   1.878  1.00  0.00    -0.082 N 
HETATM    6  N   UNL     1      41.314 -14.256   0.575  1.00  0.00    -0.128 NA
HETATM    7  C   UNL     1      41.826 -13.119   0.085  1.00  0.00     0.226 A 
HETATM    8  N   UNL     1      42.378 -12.274   1.016  1.00  0.00    -0.035 NA
HETATM    9  C   UNL     1      41.389 -15.163   2.901  1.00  0.00     0.203 A 
HETATM   10  C   UNL     1      41.740 -14.653   4.295  1.00  0.00     0.070 A 
HETATM   11  H   UNL     1      42.965 -11.696   3.577  1.00  0.00     0.184 HD
ENDROOT
BRANCH   7  12
HETATM   12  S   UNL     1      41.822 -12.711  -1.607  1.00  0.00    -0.083 SA
BRANCH  12  13
HETATM   13  C   UNL     1      40.047 -12.536  -1.937  1.00  0.00     0.123 C 
BRANCH  13  14
HETATM   14  C   UNL     1      39.517 -13.737  -2.687  1.00  0.00    -0.027 A 
HETATM   15  C   UNL     1      38.187 -13.828  -3.133  1.00  0.00     0.041 A 
HETATM   16 CL   UNL     1      37.046 -12.553  -2.894  1.00  0.00    -0.084 Cl
HETATM   17  C   UNL     1      37.735 -14.977  -3.792  1.00  0.00     0.024 A 
HETATM   18  C   UNL     1      38.598 -16.051  -4.005  1.00  0.00     0.002 A 
HETATM   19  C   UNL     1      39.915 -15.981  -3.561  1.00  0.00     0.001 A 
HETATM   20  C   UNL     1      40.371 -14.835  -2.908  1.00  0.00     0.009 A 
ENDBRANCH  13  14
ENDBRANCH  12  13
ENDBRANCH   7  12
BRANCH   9  21
HETATM   21  C   UNL     1      42.128 -16.450   2.533  1.00  0.00    -0.028 A 
HETATM   22  C   UNL     1      41.440 -17.657   2.307  1.00  0.00     0.012 A 
HETATM   23  C   UNL     1      42.140 -18.823   1.993  1.00  0.00     0.043 A 
HETATM   24  C   UNL     1      43.526 -18.789   1.904  1.00  0.00     0.116 A 
HETATM   25  F   UNL     1      44.196 -19.910   1.606  1.00  0.00    -0.206 F 
HETATM   26  C   UNL     1      44.228 -17.610   2.120  1.00  0.00     0.043 A 
HETATM   27  C   UNL     1      43.532 -16.442   2.432  1.00  0.00     0.012 A 
ENDBRANCH   9  21
BRANCH  10  28
HETATM   28  C   UNL     1      41.391 -15.592   5.380  1.00  0.00     0.294 C 
HETATM   29  O   UNL     1      40.237 -15.858   5.680  1.00  0.00    -0.259 OA
BRANCH  28  30
HETATM   30  O   UNL     1      42.511 -16.140   5.905  1.00  0.00    -0.313 OA
BRANCH  30  31
HETATM   31  C   UNL     1      42.382 -17.413   6.565  1.00  0.00     0.124 C 
HETATM   32  C   UNL     1      43.008 -18.474   5.671  1.00  0.00     0.040 C 
HETATM   33  C   UNL     1      43.117 -17.309   7.895  1.00  0.00     0.040 C 
ENDBRANCH  30  31
ENDBRANCH  28  30
ENDBRANCH  10  28
TORSDOF 7
ENDMDL
MODEL 7
REMARK VINA RESULT:      -7.8      3.768      6.782
REMARK  7 active torsions:
REMARK  status: ('A' for Active; 'I' for Inactive)
REMARK    1  A    between atoms: C_7  and  S_8 
REMARK    2  A    between atoms: S_8  and  C_9 
REMARK    3  A    between atoms: C_9  and  C_10 
REMARK    4  A    between atoms: C_18  and  C_19 
REMARK    5  A    between atoms: C_26  and  C_27 
REMARK    6  A    between atoms: C_27  and  O_28 
REMARK    7  A    between atoms: O_28  and  C_29 
ROOT
HETATM    1  C   UNL     1      41.081 -12.376   6.109  1.00  0.00     0.070 C 
HETATM    2  C   UNL     1      40.582 -13.044   4.852  1.00  0.00     0.037 A 
HETATM    3  N   UNL     1      40.056 -12.190   3.890  1.00  0.00    -0.192 N 
HETATM    4  C   UNL     1      39.435 -12.621   2.777  1.00  0.00     0.726 A 
HETATM    5  N   UNL     1      39.352 -13.962   2.530  1.00  0.00    -0.082 N 
HETATM    6  N   UNL     1      38.627 -14.213   1.420  1.00  0.00    -0.128 NA
HETATM    7  C   UNL     1      38.384 -12.966   0.994  1.00  0.00     0.226 A 
HETATM    8  N   UNL     1      38.843 -11.965   1.816  1.00  0.00    -0.035 NA
HETATM    9  C   UNL     1      39.962 -14.994   3.381  1.00  0.00     0.203 A 
HETATM   10  C   UNL     1      40.572 -14.385   4.639  1.00  0.00     0.070 A 
HETATM   11  H   UNL     1      40.067 -11.192   4.083  1.00  0.00     0.184 HD
ENDROOT
BRANCH   7  12
HETATM   12  S   UNL     1      37.560 -12.598  -0.494  1.00  0.00    -0.083 SA
BRANCH  12  13
HETATM   13  C   UNL     1      38.940 -12.526  -1.668  1.00  0.00     0.123 C 
BRANCH  13  14
HETATM   14  C   UNL     1      39.076 -13.831  -2.421  1.00  0.00    -0.027 A 
HETATM   15  C   UNL     1      40.213 -14.651  -2.320  1.00  0.00     0.041 A 
HETATM   16 CL   UNL     1      41.545 -14.257  -1.292  1.00  0.00    -0.084 Cl
HETATM   17  C   UNL     1      40.305 -15.832  -3.065  1.00  0.00     0.024 A 
HETATM   18  C   UNL     1      39.274 -16.204  -3.926  1.00  0.00     0.002 A 
HETATM   19  C   UNL     1      38.146 -15.397  -4.046  1.00  0.00     0.001 A 
HETATM   20  C   UNL     1      38.048 -14.221  -3.300  1.00  0.00     0.009 A 
ENDBRANCH  13  14
ENDBRANCH  12  13
ENDBRANCH   7  12
BRANCH   9  21
HETATM   21  C   UNL     1      40.967 -15.803   2.561  1.00  0.00    -0.028 A 
HETATM   22  C   UNL     1      40.708 -17.133   2.181  1.00  0.00     0.012 A 
HETATM   23  C   UNL     1      41.653 -17.857   1.450  1.00  0.00     0.043 A 
HETATM   24  C   UNL     1      42.855 -17.258   1.098  1.00  0.00     0.116 A 
HETATM   25  F   UNL     1      43.761 -17.956   0.400  1.00  0.00    -0.206 F 
HETATM   26  C   UNL     1      43.133 -15.946   1.458  1.00  0.00     0.043 A 
HETATM   27  C   UNL     1      42.192 -15.217   2.187  1.00  0.00     0.012 A 
ENDBRANCH   9  21
BRANCH  10  28
HETATM   28  C   UNL     1      41.095 -15.384   5.593  1.00  0.00     0.294 C 
HETATM   29  O   UNL     1      40.371 -16.128   6.236  1.00  0.00    -0.259 OA
BRANCH  28  30
HETATM   30  O   UNL     1      42.448 -15.387   5.575  1.00  0.00    -0.313 OA
BRANCH  30  31
HETATM   31  C   UNL     1      43.116 -16.553   6.091  1.00  0.00     0.124 C 
HETATM   32  C   UNL     1      43.467 -17.454   4.915  1.00  0.00     0.040 C 
HETATM   33  C   UNL     1      44.370 -16.074   6.811  1.00  0.00     0.040 C 
ENDBRANCH  30  31
ENDBRANCH  28  30
ENDBRANCH  10  28
TORSDOF 7
ENDMDL
MODEL 8
REMARK VINA RESULT:      -7.8      1.054      1.222
REMARK  7 active torsions:
REMARK  status: ('A' for Active; 'I' for Inactive)
REMARK    1  A    between atoms: C_7  and  S_8 
REMARK    2  A    between atoms: S_8  and  C_9 
REMARK    3  A    between atoms: C_9  and  C_10 
REMARK    4  A    between atoms: C_18  and  C_19 
REMARK    5  A    between atoms: C_26  and  C_27 
REMARK    6  A    between atoms: C_27  and  O_28 
REMARK    7  A    between atoms: O_28  and  C_29 
ROOT
HETATM    1  C   UNL     1      39.257 -12.111   6.716  1.00  0.00     0.070 C 
HETATM    2  C   UNL     1      40.129 -13.084   5.961  1.00  0.00     0.037 A 
HETATM    3  N   UNL     1      40.240 -14.349   6.525  1.00  0.00    -0.192 N 
HETATM    4  C   UNL     1      41.087 -15.291   6.070  1.00  0.00     0.726 A 
HETATM    5  N   UNL     1      41.848 -15.033   4.965  1.00  0.00    -0.082 N 
HETATM    6  N   UNL     1      42.694 -16.052   4.704  1.00  0.00    -0.128 NA
HETATM    7  C   UNL     1      42.319 -16.933   5.640  1.00  0.00     0.226 A 
HETATM    8  N   UNL     1      41.353 -16.490   6.511  1.00  0.00    -0.035 NA
HETATM    9  C   UNL     1      41.762 -13.795   4.179  1.00  0.00     0.203 A 
HETATM   10  C   UNL     1      40.824 -12.786   4.833  1.00  0.00     0.070 A 
HETATM   11  H   UNL     1      39.716 -14.539   7.375  1.00  0.00     0.184 HD
ENDROOT
BRANCH   7  12
HETATM   12  S   UNL     1      42.975 -18.540   5.770  1.00  0.00    -0.083 SA
BRANCH  12  13
HETATM   13  C   UNL     1      44.298 -18.496   4.531  1.00  0.00     0.123 C 
BRANCH  13  14
HETATM   14  C   UNL     1      44.299 -19.757   3.697  1.00  0.00    -0.027 A 
HETATM   15  C   UNL     1      43.841 -19.791   2.369  1.00  0.00     0.041 A 
HETATM   16 CL   UNL     1      43.266 -18.378   1.556  1.00  0.00    -0.084 Cl
HETATM   17  C   UNL     1      43.830 -20.991   1.650  1.00  0.00     0.024 A 
HETATM   18  C   UNL     1      44.265 -22.173   2.248  1.00  0.00     0.002 A 
HETATM   19  C   UNL     1      44.713 -22.159   3.565  1.00  0.00     0.001 A 
HETATM   20  C   UNL     1      44.730 -20.962   4.284  1.00  0.00     0.009 A 
ENDBRANCH  13  14
ENDBRANCH  12  13
ENDBRANCH   7  12
BRANCH   9  21
HETATM   21  C   UNL     1      41.369 -14.130   2.740  1.00  0.00    -0.028 A 
HETATM   22  C   UNL     1      40.222 -14.894   2.448  1.00  0.00     0.012 A 
HETATM   23  C   UNL     1      39.898 -15.204   1.126  1.00  0.00     0.043 A 
HETATM   24  C   UNL     1      40.712 -14.756   0.094  1.00  0.00     0.116 A 
HETATM   25  F   UNL     1      40.400 -15.059  -1.173  1.00  0.00    -0.206 F 
HETATM   26  C   UNL     1      41.847 -13.999   0.356  1.00  0.00     0.043 A 
HETATM   27  C   UNL     1      42.175 -13.684   1.676  1.00  0.00     0.012 A 
ENDBRANCH   9  21
BRANCH  10  28
HETATM   28  C   UNL     1      40.788 -11.475   4.154  1.00  0.00     0.294 C 
HETATM   29  O   UNL     1      41.428 -10.510   4.544  1.00  0.00    -0.259 OA
BRANCH  28  30
HETATM   30  O   UNL     1      40.027 -11.545   3.038  1.00  0.00    -0.313 OA
BRANCH  30  31
HETATM   31  C   UNL     1      38.598 -11.591   3.211  1.00  0.00     0.124 C 
HETATM   32  C   UNL     1      38.134 -10.216   3.671  1.00  0.00     0.040 C 
HETATM   33  C   UNL     1      37.992 -11.953   1.861  1.00  0.00     0.040 C 
ENDBRANCH  30  31
ENDBRANCH  28  30
ENDBRANCH  10  28
TORSDOF 7
ENDMDL
MODEL 9
REMARK VINA RESULT:      -7.7      3.056      6.809
REMARK  7 active torsions:
REMARK  status: ('A' for Active; 'I' for Inactive)
REMARK    1  A    between atoms: C_7  and  S_8 
REMARK    2  A    between atoms: S_8  and  C_9 
REMARK    3  A    between atoms: C_9  and  C_10 
REMARK    4  A    between atoms: C_18  and  C_19 
REMARK    5  A    between atoms: C_26  and  C_27 
REMARK    6  A    between atoms: C_27  and  O_28 
REMARK    7  A    between atoms: O_28  and  C_29 
ROOT
HETATM    1  C   UNL     1      44.419 -15.730   6.977  1.00  0.00     0.070 C 
HETATM    2  C   UNL     1      43.229 -15.358   6.127  1.00  0.00     0.037 A 
HETATM    3  N   UNL     1      42.839 -14.026   6.196  1.00  0.00    -0.192 N 
HETATM    4  C   UNL     1      41.717 -13.552   5.624  1.00  0.00     0.726 A 
HETATM    5  N   UNL     1      40.933 -14.393   4.886  1.00  0.00    -0.082 N 
HETATM    6  N   UNL     1      39.812 -13.772   4.460  1.00  0.00    -0.128 NA
HETATM    7  C   UNL     1      40.036 -12.527   4.901  1.00  0.00     0.226 A 
HETATM    8  N   UNL     1      41.181 -12.362   5.640  1.00  0.00    -0.035 NA
HETATM    9  C   UNL     1      41.265 -15.798   4.612  1.00  0.00     0.203 A 
HETATM   10  C   UNL     1      42.517 -16.230   5.370  1.00  0.00     0.070 A 
HETATM   11  H   UNL     1      43.385 -13.399   6.781  1.00  0.00     0.184 HD
ENDROOT
BRANCH   7  12
HETATM   12  S   UNL     1      38.980 -11.184   4.570  1.00  0.00    -0.083 SA
BRANCH  12  13
HETATM   13  C   UNL     1      39.543 -10.671   2.925  1.00  0.00     0.123 C 
BRANCH  13  14
HETATM   14  C   UNL     1      39.194 -11.713   1.886  1.00  0.00    -0.027 A 
HETATM   15  C   UNL     1      40.143 -12.253   1.002  1.00  0.00     0.041 A 
HETATM   16 CL   UNL     1      41.810 -11.798   1.049  1.00  0.00    -0.084 Cl
HETATM   17  C   UNL     1      39.762 -13.189   0.034  1.00  0.00     0.024 A 
HETATM   18  C   UNL     1      38.431 -13.590  -0.071  1.00  0.00     0.002 A 
HETATM   19  C   UNL     1      37.476 -13.058   0.790  1.00  0.00     0.001 A 
HETATM   20  C   UNL     1      37.854 -12.127   1.761  1.00  0.00     0.009 A 
ENDBRANCH  13  14
ENDBRANCH  12  13
ENDBRANCH   7  12
BRANCH   9  21
HETATM   21  C   UNL     1      41.378 -16.011   3.102  1.00  0.00    -0.028 A 
HETATM   22  C   UNL     1      42.263 -15.249   2.315  1.00  0.00     0.012 A 
HETATM   23  C   UNL     1      42.331 -15.448   0.934  1.00  0.00     0.043 A 
HETATM   24  C   UNL     1      41.520 -16.403   0.336  1.00  0.00     0.116 A 
HETATM   25  F   UNL     1      41.585 -16.589  -0.989  1.00  0.00    -0.206 F 
HETATM   26  C   UNL     1      40.641 -17.169   1.092  1.00  0.00     0.043 A 
HETATM   27  C   UNL     1      40.570 -16.975   2.472  1.00  0.00     0.012 A 
ENDBRANCH   9  21
BRANCH  10  28
HETATM   28  C   UNL     1      42.835 -17.666   5.230  1.00  0.00     0.294 C 
HETATM   29  O   UNL     1      42.219 -18.540   5.819  1.00  0.00    -0.259 OA
BRANCH  28  30
HETATM   30  O   UNL     1      43.822 -17.841   4.323  1.00  0.00    -0.313 OA
BRANCH  30  31
HETATM   31  C   UNL     1      43.743 -18.999   3.470  1.00  0.00     0.124 C 
HETATM   32  C   UNL     1      44.052 -18.558   2.046  1.00  0.00     0.040 C 
HETATM   33  C   UNL     1      44.774 -20.001   3.972  1.00  0.00     0.040 C 
ENDBRANCH  30  31
ENDBRANCH  28  30
ENDBRANCH  10  28
TORSDOF 7
ENDMDL
MODEL 10
REMARK VINA RESULT:      -7.6      4.205      8.375
REMARK  7 active torsions:
REMARK  status: ('A' for Active; 'I' for Inactive)
REMARK    1  A    between atoms: C_7  and  S_8 
REMARK    2  A    between atoms: S_8  and  C_9 
REMARK    3  A    between atoms: C_9  and  C_10 
REMARK    4  A    between atoms: C_18  and  C_19 
REMARK    5  A    between atoms: C_26  and  C_27 
REMARK    6  A    between atoms: C_27  and  O_28 
REMARK    7  A    between atoms: O_28  and  C_29 
ROOT
HETATM    1  C   UNL     1      40.750 -17.903   0.997  1.00  0.00     0.070 C 
HETATM    2  C   UNL     1      40.984 -16.829   2.030  1.00  0.00     0.037 A 
HETATM    3  N   UNL     1      39.927 -15.948   2.227  1.00  0.00    -0.192 N 
HETATM    4  C   UNL     1      40.013 -14.848   2.997  1.00  0.00     0.726 A 
HETATM    5  N   UNL     1      41.171 -14.590   3.673  1.00  0.00    -0.082 N 
HETATM    6  N   UNL     1      41.107 -13.409   4.323  1.00  0.00    -0.128 NA
HETATM    7  C   UNL     1      39.840 -13.055   4.070  1.00  0.00     0.226 A 
HETATM    8  N   UNL     1      39.148 -13.901   3.239  1.00  0.00    -0.035 NA
HETATM    9  C   UNL     1      42.340 -15.481   3.671  1.00  0.00     0.203 A 
HETATM   10  C   UNL     1      42.144 -16.651   2.712  1.00  0.00     0.070 A 
HETATM   11  H   UNL     1      39.075 -16.101   1.693  1.00  0.00     0.184 HD
ENDROOT
BRANCH   7  12
HETATM   12  S   UNL     1      39.084 -11.636   4.739  1.00  0.00    -0.083 SA
BRANCH  12  13
HETATM   13  C   UNL     1      40.503 -10.774   5.467  1.00  0.00     0.123 C 
BRANCH  13  14
HETATM   14  C   UNL     1      40.261 -10.473   6.929  1.00  0.00    -0.027 A 
HETATM   15  C   UNL     1      40.713  -9.295   7.547  1.00  0.00     0.041 A 
HETATM   16 CL   UNL     1      41.559  -8.064   6.678  1.00  0.00    -0.084 Cl
HETATM   17  C   UNL     1      40.493  -9.080   8.912  1.00  0.00     0.024 A 
HETATM   18  C   UNL     1      39.830 -10.037   9.679  1.00  0.00     0.002 A 
HETATM   19  C   UNL     1      39.385 -11.214   9.083  1.00  0.00     0.001 A 
HETATM   20  C   UNL     1      39.597 -11.430   7.720  1.00  0.00     0.009 A 
ENDBRANCH  13  14
ENDBRANCH  12  13
ENDBRANCH   7  12
BRANCH   9  21
HETATM   21  C   UNL     1      42.643 -15.927   5.102  1.00  0.00    -0.028 A 
HETATM   22  C   UNL     1      43.827 -15.541   5.760  1.00  0.00     0.012 A 
HETATM   23  C   UNL     1      44.089 -15.980   7.059  1.00  0.00     0.043 A 
HETATM   24  C   UNL     1      43.176 -16.803   7.704  1.00  0.00     0.116 A 
HETATM   25  F   UNL     1      43.433 -17.226   8.949  1.00  0.00    -0.206 F 
HETATM   26  C   UNL     1      42.001 -17.196   7.078  1.00  0.00     0.043 A 
HETATM   27  C   UNL     1      41.732 -16.759   5.780  1.00  0.00     0.012 A 
ENDBRANCH   9  21
BRANCH  10  28
HETATM   28  C   UNL     1      43.333 -17.517   2.575  1.00  0.00     0.294 C 
HETATM   29  O   UNL     1      44.338 -17.172   1.974  1.00  0.00    -0.259 OA
BRANCH  28  30
HETATM   30  O   UNL     1      43.155 -18.668   3.262  1.00  0.00    -0.313 OA
BRANCH  30  31
HETATM   31  C   UNL     1      44.335 -19.367   3.703  1.00  0.00     0.124 C 
HETATM   32  C   UNL     1      44.203 -19.618   5.199  1.00  0.00     0.040 C 
HETATM   33  C   UNL     1      44.400 -20.677   2.929  1.00  0.00     0.040 C 
ENDBRANCH  30  31
ENDBRANCH  28  30
ENDBRANCH  10  28
TORSDOF 7
ENDMDL
