MODEL 1
REMARK VINA RESULT:      -9.7      0.000      0.000
REMARK  5 active torsions:
REMARK  status: ('A' for Active; 'I' for Inactive)
REMARK    1  A    between atoms: C_6  and  O_7 
REMARK    2  A    between atoms: O_7  and  C_8 
REMARK    3  A    between atoms: C_8  and  C_9 
REMARK    4  A    between atoms: C_11  and  C_12 
REMARK       I    between atoms: C_12  and  N_13 
REMARK    5  A    between atoms: N_13  and  C_14 
ROOT
HETATM    1  C   UNL     1      44.039 -11.188   9.553  1.00  0.00     0.078 A 
HETATM    2  O   UNL     1      43.879 -12.122   8.575  1.00  0.00    -0.307 OA
HETATM    3  C   UNL     1      45.117 -12.612   8.248  1.00  0.00     0.143 A 
HETATM    4  C   UNL     1      46.069 -11.967   9.021  1.00  0.00     0.045 A 
HETATM    5  C   UNL     1      45.375 -11.053   9.856  1.00  0.00     0.038 A 
ENDROOT
BRANCH   3   6
HETATM    6  C   UNL     1      45.170 -13.637   7.216  1.00  0.00     0.279 C 
HETATM    7  N   UNL     1      44.299 -14.705   7.416  1.00  0.00    -0.321 N 
HETATM    8  H   UNL     1      43.718 -14.664   8.242  1.00  0.00     0.169 HD
HETATM    9  O   UNL     1      45.933 -13.560   6.257  1.00  0.00    -0.265 OA
BRANCH   7  10
HETATM   10  C   UNL     1      44.160 -15.859   6.614  1.00  0.00     0.035 A 
HETATM   11  C   UNL     1      43.416 -15.897   5.432  1.00  0.00     0.039 A 
HETATM   12  C   UNL     1      43.377 -17.072   4.696  1.00  0.00    -0.022 A 
HETATM   13  C   UNL     1      44.061 -18.212   5.114  1.00  0.00    -0.025 A 
HETATM   14  C   UNL     1      42.689 -17.305   3.396  1.00  0.00     0.274 C 
HETATM   15  C   UNL     1      43.902 -19.309   4.117  1.00  0.00     0.273 C 
HETATM   16  C   UNL     1      44.792 -18.205   6.288  1.00  0.00     0.012 A 
HETATM   17  N   UNL     1      42.873 -18.792   3.116  1.00  0.00    -0.067 N 
HETATM   18  H   UNL     1      41.983 -19.239   3.361  1.00  0.00     0.280 HD
HETATM   19  C   UNL     1      43.189 -19.104   1.696  1.00  0.00     0.270 C 
HETATM   20  C   UNL     1      44.834 -17.022   7.038  1.00  0.00     0.030 A 
ENDBRANCH   7  10
ENDBRANCH   3   6
BRANCH   1  21
HETATM   21  C   UNL     1      42.801 -10.541  10.062  1.00  0.00     0.240 C 
BRANCH  21  22
HETATM   22  O   UNL     1      42.392 -11.301  11.196  1.00  0.00    -0.344 OA
BRANCH  22  23
HETATM   23  C   UNL     1      42.407 -10.671  12.414  1.00  0.00     0.075 A 
HETATM   24  C   UNL     1      41.302 -10.925  13.244  1.00  0.00    -0.028 A 
HETATM   25  C   UNL     1      41.223 -10.298  14.500  1.00  0.00     0.016 A 
HETATM   26  C   UNL     1      40.170 -11.805  12.793  1.00  0.00     0.051 C 
HETATM   27  C   UNL     1      42.233  -9.436  14.942  1.00  0.00    -0.061 A 
HETATM   28  C   UNL     1      42.155  -8.803  16.299  1.00  0.00     0.048 C 
HETATM   29  C   UNL     1      43.341  -9.221  14.121  1.00  0.00     0.009 A 
HETATM   30  C   UNL     1      43.427  -9.827  12.865  1.00  0.00     0.038 A 
ENDBRANCH  22  23
ENDBRANCH  21  22
ENDBRANCH   1  21
TORSDOF 5
ENDMDL
MODEL 2
REMARK VINA RESULT:      -9.2      1.352      2.080
REMARK  5 active torsions:
REMARK  status: ('A' for Active; 'I' for Inactive)
REMARK    1  A    between atoms: C_6  and  O_7 
REMARK    2  A    between atoms: O_7  and  C_8 
REMARK    3  A    between atoms: C_8  and  C_9 
REMARK    4  A    between atoms: C_11  and  C_12 
REMARK       I    between atoms: C_12  and  N_13 
REMARK    5  A    between atoms: N_13  and  C_14 
ROOT
HETATM    1  C   UNL     1      44.670 -12.031  10.651  1.00  0.00     0.078 A 
HETATM    2  O   UNL     1      44.439 -12.956   9.679  1.00  0.00    -0.307 OA
HETATM    3  C   UNL     1      45.258 -12.673   8.617  1.00  0.00     0.143 A 
HETATM    4  C   UNL     1      46.006 -11.547   8.920  1.00  0.00     0.045 A 
HETATM    5  C   UNL     1      45.626 -11.136  10.225  1.00  0.00     0.038 A 
ENDROOT
BRANCH   3   6
HETATM    6  C   UNL     1      45.172 -13.556   7.463  1.00  0.00     0.279 C 
HETATM    7  N   UNL     1      44.169 -14.518   7.544  1.00  0.00    -0.321 N 
HETATM    8  H   UNL     1      43.603 -14.509   8.381  1.00  0.00     0.169 HD
HETATM    9  O   UNL     1      45.934 -13.455   6.505  1.00  0.00    -0.265 OA
BRANCH   7  10
HETATM   10  C   UNL     1      43.877 -15.531   6.605  1.00  0.00     0.035 A 
HETATM   11  C   UNL     1      42.984 -15.370   5.542  1.00  0.00     0.039 A 
HETATM   12  C   UNL     1      42.798 -16.417   4.652  1.00  0.00    -0.022 A 
HETATM   13  C   UNL     1      43.479 -17.624   4.798  1.00  0.00    -0.025 A 
HETATM   14  C   UNL     1      41.937 -16.431   3.437  1.00  0.00     0.274 C 
HETATM   15  C   UNL     1      43.143 -18.550   3.680  1.00  0.00     0.273 C 
HETATM   16  C   UNL     1      44.357 -17.814   5.850  1.00  0.00     0.012 A 
HETATM   17  N   UNL     1      42.017 -17.861   2.915  1.00  0.00    -0.067 N 
HETATM   18  H   UNL     1      41.148 -18.319   3.210  1.00  0.00     0.280 HD
HETATM   19  C   UNL     1      42.131 -17.958   1.435  1.00  0.00     0.270 C 
HETATM   20  C   UNL     1      44.548 -16.762   6.756  1.00  0.00     0.030 A 
ENDBRANCH   7  10
ENDBRANCH   3   6
BRANCH   1  21
HETATM   21  C   UNL     1      43.884 -12.172  11.904  1.00  0.00     0.240 C 
BRANCH  21  22
HETATM   22  O   UNL     1      43.549 -10.850  12.315  1.00  0.00    -0.344 OA
BRANCH  22  23
HETATM   23  C   UNL     1      42.232 -10.478  12.226  1.00  0.00     0.075 A 
HETATM   24  C   UNL     1      41.742  -9.712  13.297  1.00  0.00    -0.028 A 
HETATM   25  C   UNL     1      40.394  -9.311  13.300  1.00  0.00     0.016 A 
HETATM   26  C   UNL     1      42.612  -9.363  14.473  1.00  0.00     0.051 C 
HETATM   27  C   UNL     1      39.537  -9.651  12.247  1.00  0.00    -0.061 A 
HETATM   28  C   UNL     1      38.112  -9.185  12.244  1.00  0.00     0.048 C 
HETATM   29  C   UNL     1      40.047 -10.383  11.173  1.00  0.00     0.009 A 
HETATM   30  C   UNL     1      41.381 -10.799  11.164  1.00  0.00     0.038 A 
ENDBRANCH  22  23
ENDBRANCH  21  22
ENDBRANCH   1  21
TORSDOF 5
ENDMDL
MODEL 3
REMARK VINA RESULT:      -9.2      2.280      3.987
REMARK  5 active torsions:
REMARK  status: ('A' for Active; 'I' for Inactive)
REMARK    1  A    between atoms: C_6  and  O_7 
REMARK    2  A    between atoms: O_7  and  C_8 
REMARK    3  A    between atoms: C_8  and  C_9 
REMARK    4  A    between atoms: C_11  and  C_12 
REMARK       I    between atoms: C_12  and  N_13 
REMARK    5  A    between atoms: N_13  and  C_14 
ROOT
HETATM    1  C   UNL     1      41.251 -11.763   6.644  1.00  0.00     0.078 A 
HETATM    2  O   UNL     1      42.186 -12.572   6.072  1.00  0.00    -0.307 OA
HETATM    3  C   UNL     1      41.534 -13.604   5.450  1.00  0.00     0.143 A 
HETATM    4  C   UNL     1      40.171 -13.451   5.644  1.00  0.00     0.045 A 
HETATM    5  C   UNL     1      39.992 -12.269   6.411  1.00  0.00     0.038 A 
ENDROOT
BRANCH   3   6
HETATM    6  C   UNL     1      42.359 -14.589   4.765  1.00  0.00     0.279 C 
HETATM    7  N   UNL     1      41.708 -15.784   4.470  1.00  0.00    -0.321 N 
HETATM    8  H   UNL     1      40.739 -15.850   4.751  1.00  0.00     0.169 HD
HETATM    9  O   UNL     1      43.536 -14.375   4.485  1.00  0.00    -0.265 OA
BRANCH   7  10
HETATM   10  C   UNL     1      42.258 -16.930   3.857  1.00  0.00     0.035 A 
HETATM   11  C   UNL     1      43.088 -17.840   4.517  1.00  0.00     0.039 A 
HETATM   12  C   UNL     1      43.545 -18.957   3.832  1.00  0.00    -0.022 A 
HETATM   13  C   UNL     1      43.195 -19.187   2.504  1.00  0.00    -0.025 A 
HETATM   14  C   UNL     1      44.392 -20.061   4.363  1.00  0.00     0.274 C 
HETATM   15  C   UNL     1      43.767 -20.480   2.031  1.00  0.00     0.273 C 
HETATM   16  C   UNL     1      42.386 -18.294   1.823  1.00  0.00     0.012 A 
HETATM   17  N   UNL     1      44.686 -20.945   3.156  1.00  0.00    -0.067 N 
HETATM   18  H   UNL     1      45.641 -20.714   2.862  1.00  0.00     0.280 HD
HETATM   19  C   UNL     1      44.613 -22.403   3.444  1.00  0.00     0.270 C 
HETATM   20  C   UNL     1      41.923 -17.162   2.507  1.00  0.00     0.030 A 
ENDBRANCH   7  10
ENDBRANCH   3   6
BRANCH   1  21
HETATM   21  C   UNL     1      41.759 -10.565   7.362  1.00  0.00     0.240 C 
BRANCH  21  22
HETATM   22  O   UNL     1      42.873 -11.004   8.133  1.00  0.00    -0.344 OA
BRANCH  22  23
HETATM   23  C   UNL     1      42.932 -10.599   9.441  1.00  0.00     0.075 A 
HETATM   24  C   UNL     1      44.170 -10.784  10.080  1.00  0.00    -0.028 A 
HETATM   25  C   UNL     1      44.311 -10.422  11.432  1.00  0.00     0.016 A 
HETATM   26  C   UNL     1      45.332 -11.419   9.368  1.00  0.00     0.051 C 
HETATM   27  C   UNL     1      43.242  -9.868  12.146  1.00  0.00    -0.061 A 
HETATM   28  C   UNL     1      43.416  -9.451  13.575  1.00  0.00     0.048 C 
HETATM   29  C   UNL     1      42.029  -9.658  11.488  1.00  0.00     0.009 A 
HETATM   30  C   UNL     1      41.871 -10.026  10.149  1.00  0.00     0.038 A 
ENDBRANCH  22  23
ENDBRANCH  21  22
ENDBRANCH   1  21
TORSDOF 5
ENDMDL
MODEL 4
REMARK VINA RESULT:      -8.6      2.603     10.640
REMARK  5 active torsions:
REMARK  status: ('A' for Active; 'I' for Inactive)
REMARK    1  A    between atoms: C_6  and  O_7 
REMARK    2  A    between atoms: O_7  and  C_8 
REMARK    3  A    between atoms: C_8  and  C_9 
REMARK    4  A    between atoms: C_11  and  C_12 
REMARK       I    between atoms: C_12  and  N_13 
REMARK    5  A    between atoms: N_13  and  C_14 
ROOT
HETATM    1  C   UNL     1      43.847 -14.154   6.212  1.00  0.00     0.078 A 
HETATM    2  O   UNL     1      43.145 -13.144   6.796  1.00  0.00    -0.307 OA
HETATM    3  C   UNL     1      43.914 -12.616   7.800  1.00  0.00     0.143 A 
HETATM    4  C   UNL     1      45.110 -13.312   7.858  1.00  0.00     0.045 A 
HETATM    5  C   UNL     1      45.065 -14.299   6.838  1.00  0.00     0.038 A 
ENDROOT
BRANCH   3   6
HETATM    6  C   UNL     1      43.345 -11.508   8.555  1.00  0.00     0.279 C 
HETATM    7  N   UNL     1      43.474 -11.623   9.937  1.00  0.00    -0.321 N 
HETATM    8  H   UNL     1      43.948 -12.448  10.278  1.00  0.00     0.169 HD
HETATM    9  O   UNL     1      42.789 -10.560   8.006  1.00  0.00    -0.265 OA
BRANCH   7  10
HETATM   10  C   UNL     1      42.985 -10.735  10.919  1.00  0.00     0.035 A 
HETATM   11  C   UNL     1      41.733 -10.118  10.852  1.00  0.00     0.039 A 
HETATM   12  C   UNL     1      41.331  -9.291  11.891  1.00  0.00    -0.022 A 
HETATM   13  C   UNL     1      42.150  -9.064  12.995  1.00  0.00    -0.025 A 
HETATM   14  C   UNL     1      40.029  -8.584  12.034  1.00  0.00     0.274 C 
HETATM   15  C   UNL     1      41.458  -8.192  13.986  1.00  0.00     0.273 C 
HETATM   16  C   UNL     1      43.400  -9.651  13.079  1.00  0.00     0.012 A 
HETATM   17  N   UNL     1      40.180  -7.732  13.290  1.00  0.00    -0.067 N 
HETATM   18  H   UNL     1      40.359  -6.777  12.964  1.00  0.00     0.280 HD
HETATM   19  C   UNL     1      38.975  -7.723  14.162  1.00  0.00     0.270 C 
HETATM   20  C   UNL     1      43.814 -10.485  12.032  1.00  0.00     0.030 A 
ENDBRANCH   7  10
ENDBRANCH   3   6
BRANCH   1  21
HETATM   21  C   UNL     1      43.187 -14.854   5.079  1.00  0.00     0.240 C 
BRANCH  21  22
HETATM   22  O   UNL     1      42.903 -16.173   5.536  1.00  0.00    -0.344 OA
BRANCH  22  23
HETATM   23  C   UNL     1      43.084 -17.199   4.646  1.00  0.00     0.075 A 
HETATM   24  C   UNL     1      44.023 -18.174   5.023  1.00  0.00    -0.028 A 
HETATM   25  C   UNL     1      44.291 -19.248   4.156  1.00  0.00     0.016 A 
HETATM   26  C   UNL     1      44.795 -18.061   6.308  1.00  0.00     0.051 C 
HETATM   27  C   UNL     1      43.627 -19.369   2.930  1.00  0.00    -0.061 A 
HETATM   28  C   UNL     1      43.894 -20.539   2.031  1.00  0.00     0.048 C 
HETATM   29  C   UNL     1      42.671 -18.412   2.584  1.00  0.00     0.009 A 
HETATM   30  C   UNL     1      42.405 -17.332   3.430  1.00  0.00     0.038 A 
ENDBRANCH  22  23
ENDBRANCH  21  22
ENDBRANCH   1  21
TORSDOF 5
ENDMDL
MODEL 5
REMARK VINA RESULT:      -8.5      5.862      9.987
REMARK  5 active torsions:
REMARK  status: ('A' for Active; 'I' for Inactive)
REMARK    1  A    between atoms: C_6  and  O_7 
REMARK    2  A    between atoms: O_7  and  C_8 
REMARK    3  A    between atoms: C_8  and  C_9 
REMARK    4  A    between atoms: C_11  and  C_12 
REMARK       I    between atoms: C_12  and  N_13 
REMARK    5  A    between atoms: N_13  and  C_14 
ROOT
HETATM    1  C   UNL     1      43.576 -15.558   5.527  1.00  0.00     0.078 A 
HETATM    2  O   UNL     1      43.136 -15.427   4.246  1.00  0.00    -0.307 OA
HETATM    3  C   UNL     1      42.831 -14.108   4.033  1.00  0.00     0.143 A 
HETATM    4  C   UNL     1      43.070 -13.402   5.201  1.00  0.00     0.045 A 
HETATM    5  C   UNL     1      43.547 -14.335   6.159  1.00  0.00     0.038 A 
ENDROOT
BRANCH   3   6
HETATM    6  C   UNL     1      42.343 -13.748   2.709  1.00  0.00     0.279 C 
HETATM    7  N   UNL     1      41.226 -14.464   2.290  1.00  0.00    -0.321 N 
HETATM    8  H   UNL     1      40.862 -15.151   2.937  1.00  0.00     0.169 HD
HETATM    9  O   UNL     1      42.888 -12.886   2.024  1.00  0.00    -0.265 OA
BRANCH   7  10
HETATM   10  C   UNL     1      40.563 -14.367   1.048  1.00  0.00     0.035 A 
HETATM   11  C   UNL     1      41.004 -14.999  -0.118  1.00  0.00     0.039 A 
HETATM   12  C   UNL     1      40.256 -14.870  -1.280  1.00  0.00    -0.022 A 
HETATM   13  C   UNL     1      39.079 -14.125  -1.307  1.00  0.00    -0.025 A 
HETATM   14  C   UNL     1      40.524 -15.498  -2.603  1.00  0.00     0.274 C 
HETATM   15  C   UNL     1      38.446 -14.200  -2.654  1.00  0.00     0.273 C 
HETATM   16  C   UNL     1      38.629 -13.478  -0.170  1.00  0.00     0.012 A 
HETATM   17  N   UNL     1      39.463 -14.920  -3.534  1.00  0.00    -0.067 N 
HETATM   18  H   UNL     1      39.934 -14.193  -4.083  1.00  0.00     0.280 HD
HETATM   19  C   UNL     1      38.871 -15.917  -4.466  1.00  0.00     0.270 C 
HETATM   20  C   UNL     1      39.380 -13.600   1.007  1.00  0.00     0.030 A 
ENDBRANCH   7  10
ENDBRANCH   3   6
BRANCH   1  21
HETATM   21  C   UNL     1      43.976 -16.924   5.956  1.00  0.00     0.240 C 
BRANCH  21  22
HETATM   22  O   UNL     1      43.006 -17.813   5.411  1.00  0.00    -0.344 OA
BRANCH  22  23
HETATM   23  C   UNL     1      43.458 -18.808   4.584  1.00  0.00     0.075 A 
HETATM   24  C   UNL     1      42.910 -18.821   3.290  1.00  0.00    -0.028 A 
HETATM   25  C   UNL     1      43.297 -19.825   2.385  1.00  0.00     0.016 A 
HETATM   26  C   UNL     1      41.868 -17.820   2.871  1.00  0.00     0.051 C 
HETATM   27  C   UNL     1      44.230 -20.803   2.747  1.00  0.00    -0.061 A 
HETATM   28  C   UNL     1      44.664 -21.845   1.760  1.00  0.00     0.048 C 
HETATM   29  C   UNL     1      44.793 -20.756   4.024  1.00  0.00     0.009 A 
HETATM   30  C   UNL     1      44.407 -19.772   4.938  1.00  0.00     0.038 A 
ENDBRANCH  22  23
ENDBRANCH  21  22
ENDBRANCH   1  21
TORSDOF 5
ENDMDL
MODEL 6
REMARK VINA RESULT:      -8.4      3.095     10.609
REMARK  5 active torsions:
REMARK  status: ('A' for Active; 'I' for Inactive)
REMARK    1  A    between atoms: C_6  and  O_7 
REMARK    2  A    between atoms: O_7  and  C_8 
REMARK    3  A    between atoms: C_8  and  C_9 
REMARK    4  A    between atoms: C_11  and  C_12 
REMARK       I    between atoms: C_12  and  N_13 
REMARK    5  A    between atoms: N_13  and  C_14 
ROOT
HETATM    1  C   UNL     1      41.790 -12.953   5.018  1.00  0.00     0.078 A 
HETATM    2  O   UNL     1      42.368 -12.253   6.033  1.00  0.00    -0.307 OA
HETATM    3  C   UNL     1      41.408 -11.459   6.604  1.00  0.00     0.143 A 
HETATM    4  C   UNL     1      40.213 -11.652   5.930  1.00  0.00     0.045 A 
HETATM    5  C   UNL     1      40.461 -12.611   4.912  1.00  0.00     0.038 A 
ENDROOT
BRANCH   3   6
HETATM    6  C   UNL     1      41.820 -10.625   7.724  1.00  0.00     0.279 C 
HETATM    7  N   UNL     1      41.925 -11.298   8.938  1.00  0.00    -0.321 N 
HETATM    8  H   UNL     1      41.714 -12.286   8.926  1.00  0.00     0.169 HD
HETATM    9  O   UNL     1      42.044  -9.424   7.596  1.00  0.00    -0.265 OA
BRANCH   7  10
HETATM   10  C   UNL     1      42.257 -10.748  10.195  1.00  0.00     0.035 A 
HETATM   11  C   UNL     1      41.310 -10.318  11.129  1.00  0.00     0.039 A 
HETATM   12  C   UNL     1      41.742  -9.829  12.352  1.00  0.00    -0.022 A 
HETATM   13  C   UNL     1      43.098  -9.755  12.667  1.00  0.00    -0.025 A 
HETATM   14  C   UNL     1      40.901  -9.370  13.493  1.00  0.00     0.274 C 
HETATM   15  C   UNL     1      43.283  -9.252  14.058  1.00  0.00     0.273 C 
HETATM   16  C   UNL     1      44.056 -10.160  11.755  1.00  0.00     0.012 A 
HETATM   17  N   UNL     1      41.892  -8.828  14.518  1.00  0.00    -0.067 N 
HETATM   18  H   UNL     1      41.859  -7.807  14.430  1.00  0.00     0.280 HD
HETATM   19  C   UNL     1      41.570  -9.199  15.922  1.00  0.00     0.270 C 
HETATM   20  C   UNL     1      43.627 -10.653  10.515  1.00  0.00     0.030 A 
ENDBRANCH   7  10
ENDBRANCH   3   6
BRANCH   1  21
HETATM   21  C   UNL     1      42.669 -13.893   4.274  1.00  0.00     0.240 C 
BRANCH  21  22
HETATM   22  O   UNL     1      41.846 -14.991   3.893  1.00  0.00    -0.344 OA
BRANCH  22  23
HETATM   23  C   UNL     1      42.477 -16.145   3.504  1.00  0.00     0.075 A 
HETATM   24  C   UNL     1      42.149 -17.296   4.239  1.00  0.00    -0.028 A 
HETATM   25  C   UNL     1      42.771 -18.517   3.926  1.00  0.00     0.016 A 
HETATM   26  C   UNL     1      41.192 -17.239   5.398  1.00  0.00     0.051 C 
HETATM   27  C   UNL     1      43.701 -18.608   2.884  1.00  0.00    -0.061 A 
HETATM   28  C   UNL     1      44.328 -19.923   2.534  1.00  0.00     0.048 C 
HETATM   29  C   UNL     1      43.990 -17.463   2.139  1.00  0.00     0.009 A 
HETATM   30  C   UNL     1      43.390 -16.240   2.449  1.00  0.00     0.038 A 
ENDBRANCH  22  23
ENDBRANCH  21  22
ENDBRANCH   1  21
TORSDOF 5
ENDMDL
MODEL 7
REMARK VINA RESULT:      -8.4      6.737     10.772
REMARK  5 active torsions:
REMARK  status: ('A' for Active; 'I' for Inactive)
REMARK    1  A    between atoms: C_6  and  O_7 
REMARK    2  A    between atoms: O_7  and  C_8 
REMARK    3  A    between atoms: C_8  and  C_9 
REMARK    4  A    between atoms: C_11  and  C_12 
REMARK       I    between atoms: C_12  and  N_13 
REMARK    5  A    between atoms: N_13  and  C_14 
ROOT
HETATM    1  C   UNL     1      41.501 -16.259   5.263  1.00  0.00     0.078 A 
HETATM    2  O   UNL     1      41.484 -15.670   4.035  1.00  0.00    -0.307 OA
HETATM    3  C   UNL     1      40.583 -14.639   4.069  1.00  0.00     0.143 A 
HETATM    4  C   UNL     1      40.014 -14.586   5.331  1.00  0.00     0.045 A 
HETATM    5  C   UNL     1      40.604 -15.627   6.095  1.00  0.00     0.038 A 
ENDROOT
BRANCH   3   6
HETATM    6  C   UNL     1      40.415 -13.867   2.846  1.00  0.00     0.279 C 
HETATM    7  N   UNL     1      40.446 -14.623   1.677  1.00  0.00    -0.321 N 
HETATM    8  H   UNL     1      40.574 -15.619   1.787  1.00  0.00     0.169 HD
HETATM    9  O   UNL     1      40.268 -12.647   2.858  1.00  0.00    -0.265 OA
BRANCH   7  10
HETATM   10  C   UNL     1      40.356 -14.150   0.349  1.00  0.00     0.035 A 
HETATM   11  C   UNL     1      39.154 -13.789  -0.266  1.00  0.00     0.039 A 
HETATM   12  C   UNL     1      39.179 -13.299  -1.563  1.00  0.00    -0.022 A 
HETATM   13  C   UNL     1      40.376 -13.161  -2.263  1.00  0.00    -0.025 A 
HETATM   14  C   UNL     1      38.026 -12.818  -2.372  1.00  0.00     0.274 C 
HETATM   15  C   UNL     1      40.129 -12.559  -3.604  1.00  0.00     0.273 C 
HETATM   16  C   UNL     1      41.578 -13.525  -1.682  1.00  0.00     0.012 A 
HETATM   17  N   UNL     1      38.611 -12.515  -3.748  1.00  0.00    -0.067 N 
HETATM   18  H   UNL     1      38.356 -13.308  -4.345  1.00  0.00     0.280 HD
HETATM   19  C   UNL     1      38.089 -11.264  -4.363  1.00  0.00     0.270 C 
HETATM   20  C   UNL     1      41.560 -14.024  -0.373  1.00  0.00     0.030 A 
ENDBRANCH   7  10
ENDBRANCH   3   6
BRANCH   1  21
HETATM   21  C   UNL     1      42.435 -17.401   5.440  1.00  0.00     0.240 C 
BRANCH  21  22
HETATM   22  O   UNL     1      43.310 -17.378   4.316  1.00  0.00    -0.344 OA
BRANCH  22  23
HETATM   23  C   UNL     1      43.673 -18.585   3.777  1.00  0.00     0.075 A 
HETATM   24  C   UNL     1      43.212 -18.834   2.474  1.00  0.00    -0.028 A 
HETATM   25  C   UNL     1      43.515 -20.060   1.855  1.00  0.00     0.016 A 
HETATM   26  C   UNL     1      42.346 -17.843   1.747  1.00  0.00     0.051 C 
HETATM   27  C   UNL     1      44.281 -21.030   2.512  1.00  0.00    -0.061 A 
HETATM   28  C   UNL     1      44.629 -22.317   1.827  1.00  0.00     0.048 C 
HETATM   29  C   UNL     1      44.762 -20.755   3.793  1.00  0.00     0.009 A 
HETATM   30  C   UNL     1      44.457 -19.546   4.425  1.00  0.00     0.038 A 
ENDBRANCH  22  23
ENDBRANCH  21  22
ENDBRANCH   1  21
TORSDOF 5
ENDMDL
MODEL 8
REMARK VINA RESULT:      -8.3      6.715     10.701
REMARK  5 active torsions:
REMARK  status: ('A' for Active; 'I' for Inactive)
REMARK    1  A    between atoms: C_6  and  O_7 
REMARK    2  A    between atoms: O_7  and  C_8 
REMARK    3  A    between atoms: C_8  and  C_9 
REMARK    4  A    between atoms: C_11  and  C_12 
REMARK       I    between atoms: C_12  and  N_13 
REMARK    5  A    between atoms: N_13  and  C_14 
ROOT
HETATM    1  C   UNL     1      41.087 -16.160   5.126  1.00  0.00     0.078 A 
HETATM    2  O   UNL     1      40.913 -15.917   3.797  1.00  0.00    -0.307 OA
HETATM    3  C   UNL     1      40.238 -14.732   3.666  1.00  0.00     0.143 A 
HETATM    4  C   UNL     1      39.972 -14.229   4.929  1.00  0.00     0.045 A 
HETATM    5  C   UNL     1      40.517 -15.147   5.864  1.00  0.00     0.038 A 
ENDROOT
BRANCH   3   6
HETATM    6  C   UNL     1      39.952 -14.281   2.311  1.00  0.00     0.279 C 
HETATM    7  N   UNL     1      41.062 -14.227   1.473  1.00  0.00    -0.321 N 
HETATM    8  H   UNL     1      41.946 -14.507   1.876  1.00  0.00     0.169 HD
HETATM    9  O   UNL     1      38.819 -13.967   1.953  1.00  0.00    -0.265 OA
BRANCH   7  10
HETATM   10  C   UNL     1      41.101 -13.790   0.131  1.00  0.00     0.035 A 
HETATM   11  C   UNL     1      41.300 -12.459  -0.245  1.00  0.00     0.039 A 
HETATM   12  C   UNL     1      41.361 -12.141  -1.594  1.00  0.00    -0.022 A 
HETATM   13  C   UNL     1      41.226 -13.119  -2.577  1.00  0.00    -0.025 A 
HETATM   14  C   UNL     1      41.612 -10.803  -2.199  1.00  0.00     0.274 C 
HETATM   15  C   UNL     1      41.391 -12.521  -3.933  1.00  0.00     0.273 C 
HETATM   16  C   UNL     1      41.014 -14.441  -2.231  1.00  0.00     0.012 A 
HETATM   17  N   UNL     1      41.448 -11.014  -3.700  1.00  0.00    -0.067 N 
HETATM   18  H   UNL     1      40.519 -10.651  -3.938  1.00  0.00     0.280 HD
HETATM   19  C   UNL     1      42.464 -10.305  -4.523  1.00  0.00     0.270 C 
HETATM   20  C   UNL     1      40.948 -14.771  -0.871  1.00  0.00     0.030 A 
ENDBRANCH   7  10
ENDBRANCH   3   6
BRANCH   1  21
HETATM   21  C   UNL     1      41.819 -17.403   5.484  1.00  0.00     0.240 C 
BRANCH  21  22
HETATM   22  O   UNL     1      43.047 -17.364   4.762  1.00  0.00    -0.344 OA
BRANCH  22  23
HETATM   23  C   UNL     1      43.350 -18.448   3.979  1.00  0.00     0.075 A 
HETATM   24  C   UNL     1      44.315 -19.326   4.502  1.00  0.00    -0.028 A 
HETATM   25  C   UNL     1      44.707 -20.449   3.751  1.00  0.00     0.016 A 
HETATM   26  C   UNL     1      44.985 -19.057   5.821  1.00  0.00     0.051 C 
HETATM   27  C   UNL     1      44.141 -20.713   2.499  1.00  0.00    -0.061 A 
HETATM   28  C   UNL     1      44.539 -21.934   1.726  1.00  0.00     0.048 C 
HETATM   29  C   UNL     1      43.158 -19.851   2.008  1.00  0.00     0.009 A 
HETATM   30  C   UNL     1      42.770 -18.725   2.738  1.00  0.00     0.038 A 
ENDBRANCH  22  23
ENDBRANCH  21  22
ENDBRANCH   1  21
TORSDOF 5
ENDMDL
MODEL 9
REMARK VINA RESULT:      -8.3      6.580     10.693
REMARK  5 active torsions:
REMARK  status: ('A' for Active; 'I' for Inactive)
REMARK    1  A    between atoms: C_6  and  O_7 
REMARK    2  A    between atoms: O_7  and  C_8 
REMARK    3  A    between atoms: C_8  and  C_9 
REMARK    4  A    between atoms: C_11  and  C_12 
REMARK       I    between atoms: C_12  and  N_13 
REMARK    5  A    between atoms: N_13  and  C_14 
ROOT
HETATM    1  C   UNL     1      41.864 -15.776   5.167  1.00  0.00     0.078 A 
HETATM    2  O   UNL     1      41.690 -15.204   3.944  1.00  0.00    -0.307 OA
HETATM    3  C   UNL     1      40.528 -14.478   3.974  1.00  0.00     0.143 A 
HETATM    4  C   UNL     1      39.956 -14.606   5.230  1.00  0.00     0.045 A 
HETATM    5  C   UNL     1      40.815 -15.440   5.993  1.00  0.00     0.038 A 
ENDROOT
BRANCH   3   6
HETATM    6  C   UNL     1      40.156 -13.775   2.755  1.00  0.00     0.279 C 
HETATM    7  N   UNL     1      40.823 -14.207   1.612  1.00  0.00    -0.321 N 
HETATM    8  H   UNL     1      41.487 -14.959   1.734  1.00  0.00     0.169 HD
HETATM    9  O   UNL     1      39.326 -12.869   2.750  1.00  0.00    -0.265 OA
BRANCH   7  10
HETATM   10  C   UNL     1      40.705 -13.688   0.304  1.00  0.00     0.035 A 
HETATM   11  C   UNL     1      41.513 -12.667  -0.201  1.00  0.00     0.039 A 
HETATM   12  C   UNL     1      41.340 -12.256  -1.515  1.00  0.00    -0.022 A 
HETATM   13  C   UNL     1      40.378 -12.839  -2.337  1.00  0.00    -0.025 A 
HETATM   14  C   UNL     1      42.124 -11.227  -2.253  1.00  0.00     0.274 C 
HETATM   15  C   UNL     1      40.444 -12.259  -3.708  1.00  0.00     0.273 C 
HETATM   16  C   UNL     1      39.555 -13.842  -1.856  1.00  0.00     0.012 A 
HETATM   17  N   UNL     1      41.429 -11.098  -3.604  1.00  0.00    -0.067 N 
HETATM   18  H   UNL     1      40.863 -10.245  -3.551  1.00  0.00     0.280 HD
HETATM   19  C   UNL     1      42.365 -10.983  -4.755  1.00  0.00     0.270 C 
HETATM   20  C   UNL     1      39.721 -14.260  -0.530  1.00  0.00     0.030 A 
ENDBRANCH   7  10
ENDBRANCH   3   6
BRANCH   1  21
HETATM   21  C   UNL     1      43.087 -16.601   5.347  1.00  0.00     0.240 C 
BRANCH  21  22
HETATM   22  O   UNL     1      43.660 -16.752   4.052  1.00  0.00    -0.344 OA
BRANCH  22  23
HETATM   23  C   UNL     1      43.843 -18.030   3.590  1.00  0.00     0.075 A 
HETATM   24  C   UNL     1      43.579 -18.227   2.224  1.00  0.00    -0.028 A 
HETATM   25  C   UNL     1      43.714 -19.514   1.673  1.00  0.00     0.016 A 
HETATM   26  C   UNL     1      43.096 -17.104   1.350  1.00  0.00     0.051 C 
HETATM   27  C   UNL     1      44.119 -20.598   2.460  1.00  0.00    -0.061 A 
HETATM   28  C   UNL     1      44.296 -21.956   1.852  1.00  0.00     0.048 C 
HETATM   29  C   UNL     1      44.411 -20.379   3.808  1.00  0.00     0.009 A 
HETATM   30  C   UNL     1      44.269 -19.109   4.371  1.00  0.00     0.038 A 
ENDBRANCH  22  23
ENDBRANCH  21  22
ENDBRANCH   1  21
TORSDOF 5
ENDMDL
MODEL 10
REMARK VINA RESULT:      -8.2      7.392     11.595
REMARK  5 active torsions:
REMARK  status: ('A' for Active; 'I' for Inactive)
REMARK    1  A    between atoms: C_6  and  O_7 
REMARK    2  A    between atoms: O_7  and  C_8 
REMARK    3  A    between atoms: C_8  and  C_9 
REMARK    4  A    between atoms: C_11  and  C_12 
REMARK       I    between atoms: C_12  and  N_13 
REMARK    5  A    between atoms: N_13  and  C_14 
ROOT
HETATM    1  C   UNL     1      41.900 -16.472   2.018  1.00  0.00     0.078 A 
HETATM    2  O   UNL     1      41.779 -15.184   1.593  1.00  0.00    -0.307 OA
HETATM    3  C   UNL     1      41.466 -15.203   0.258  1.00  0.00     0.143 A 
HETATM    4  C   UNL     1      41.403 -16.521  -0.164  1.00  0.00     0.045 A 
HETATM    5  C   UNL     1      41.682 -17.333   0.966  1.00  0.00     0.038 A 
ENDROOT
BRANCH   3   6
HETATM    6  C   UNL     1      41.284 -13.916  -0.397  1.00  0.00     0.279 C 
HETATM    7  N   UNL     1      42.330 -13.542  -1.237  1.00  0.00    -0.321 N 
HETATM    8  H   UNL     1      43.099 -14.193  -1.316  1.00  0.00     0.169 HD
HETATM    9  O   UNL     1      40.290 -13.220  -0.206  1.00  0.00    -0.265 OA
BRANCH   7  10
HETATM   10  C   UNL     1      42.455 -12.339  -1.965  1.00  0.00     0.035 A 
HETATM   11  C   UNL     1      42.115 -12.210  -3.315  1.00  0.00     0.039 A 
HETATM   12  C   UNL     1      42.239 -10.972  -3.927  1.00  0.00    -0.022 A 
HETATM   13  C   UNL     1      42.696  -9.858  -3.225  1.00  0.00    -0.025 A 
HETATM   14  C   UNL     1      41.888 -10.615  -5.329  1.00  0.00     0.274 C 
HETATM   15  C   UNL     1      42.676  -8.649  -4.097  1.00  0.00     0.273 C 
HETATM   16  C   UNL     1      43.052  -9.962  -1.893  1.00  0.00     0.012 A 
HETATM   17  N   UNL     1      42.340  -9.168  -5.492  1.00  0.00    -0.067 N 
HETATM   18  H   UNL     1      43.227  -9.205  -6.006  1.00  0.00     0.280 HD
HETATM   19  C   UNL     1      41.382  -8.318  -6.248  1.00  0.00     0.270 C 
HETATM   20  C   UNL     1      42.933 -11.211  -1.268  1.00  0.00     0.030 A 
ENDBRANCH   7  10
ENDBRANCH   3   6
BRANCH   1  21
HETATM   21  C   UNL     1      42.225 -16.669   3.455  1.00  0.00     0.240 C 
BRANCH  21  22
HETATM   22  O   UNL     1      43.617 -16.965   3.511  1.00  0.00    -0.344 OA
BRANCH  22  23
HETATM   23  C   UNL     1      43.975 -18.254   3.808  1.00  0.00     0.075 A 
HETATM   24  C   UNL     1      44.262 -18.512   5.159  1.00  0.00    -0.028 A 
HETATM   25  C   UNL     1      44.665 -19.802   5.547  1.00  0.00     0.016 A 
HETATM   26  C   UNL     1      44.208 -17.420   6.192  1.00  0.00     0.051 C 
HETATM   27  C   UNL     1      44.771 -20.837   4.612  1.00  0.00    -0.061 A 
HETATM   28  C   UNL     1      45.165 -22.217   5.044  1.00  0.00     0.048 C 
HETATM   29  C   UNL     1      44.449 -20.575   3.278  1.00  0.00     0.009 A 
HETATM   30  C   UNL     1      44.061 -19.294   2.877  1.00  0.00     0.038 A 
ENDBRANCH  22  23
ENDBRANCH  21  22
ENDBRANCH   1  21
TORSDOF 5
ENDMDL
