MODEL 1
REMARK VINA RESULT:      -9.1      0.000      0.000
REMARK  6 active torsions:
REMARK  status: ('A' for Active; 'I' for Inactive)
REMARK    1  A    between atoms: C_4  and  C_5 
REMARK    2  A    between atoms: C_5  and  C_6 
REMARK    3  A    between atoms: C_7  and  N_8 
REMARK       I    between atoms: N_8  and  C_9 
REMARK    4  A    between atoms: C_9  and  C_10 
REMARK    5  A    between atoms: C_15  and  C_16 
REMARK       I    between atoms: C_16  and  N_17 
REMARK    6  A    between atoms: N_17  and  C_18 
ROOT
HETATM    1  N   UNL     1      40.908 -13.662   2.487  1.00  0.00    -0.321 N 
HETATM    2  C   UNL     1      41.684 -13.403   1.379  1.00  0.00     0.277 C 
HETATM    3  O   UNL     1      42.487 -12.489   1.256  1.00  0.00    -0.266 OA
HETATM    4  H   UNL     1      40.534 -14.611   2.488  1.00  0.00     0.169 HD
ENDROOT
BRANCH   2   5
HETATM    5  C   UNL     1      41.483 -14.407   0.332  1.00  0.00     0.158 A 
HETATM    6  N   UNL     1      41.254 -14.014  -0.986  1.00  0.00    -0.236 NA
HETATM    7  C   UNL     1      41.127 -15.128  -1.666  1.00  0.00     0.208 A 
HETATM    8  N   UNL     1      41.278 -16.216  -0.864  1.00  0.00    -0.344 N 
HETATM    9  H   UNL     1      41.247 -17.189  -1.145  1.00  0.00     0.167 HD
HETATM   10  C   UNL     1      41.518 -15.793   0.429  1.00  0.00     0.136 A 
BRANCH  10  11
HETATM   11  C   UNL     1      41.781 -16.761   1.479  1.00  0.00     0.275 C 
HETATM   12  N   UNL     1      43.039 -17.316   1.502  1.00  0.00    -0.322 N 
HETATM   13  H   UNL     1      43.726 -16.944   0.848  1.00  0.00     0.169 HD
HETATM   14  O   UNL     1      40.888 -17.019   2.281  1.00  0.00    -0.266 OA
BRANCH  12  15
HETATM   15  C   UNL     1      43.518 -18.362   2.316  1.00  0.00     0.035 A 
HETATM   16  C   UNL     1      43.722 -19.670   1.877  1.00  0.00     0.029 A 
HETATM   17  C   UNL     1      44.248 -20.633   2.745  1.00  0.00     0.002 A 
HETATM   18  C   UNL     1      44.571 -20.296   4.058  1.00  0.00     0.000 A 
HETATM   19  C   UNL     1      44.366 -18.996   4.507  1.00  0.00     0.002 A 
HETATM   20  C   UNL     1      43.842 -18.034   3.640  1.00  0.00     0.029 A 
ENDBRANCH  12  15
ENDBRANCH  10  11
ENDBRANCH   2   5
BRANCH   1  21
HETATM   21  C   UNL     1      40.781 -12.888   3.658  1.00  0.00     0.049 A 
HETATM   22  C   UNL     1      41.545 -13.004   4.837  1.00  0.00     0.043 A 
HETATM   23  C   UNL     1      41.238 -12.208   5.956  1.00  0.00     0.041 A 
HETATM   24  C   UNL     1      40.218 -11.265   5.890  1.00  0.00     0.035 A 
HETATM   25  C   UNL     1      39.501 -11.094   4.712  1.00  0.00     0.026 A 
HETATM   26 CL   UNL     1      39.865 -10.283   7.256  1.00  0.00    -0.084 Cl
HETATM   27  C   UNL     1      39.785 -11.896   3.603  1.00  0.00     0.032 A 
BRANCH  22  28
HETATM   28  C   UNL     1      42.768 -13.829   5.005  1.00  0.00     0.194 C 
HETATM   29  O   UNL     1      43.760 -13.539   4.338  1.00  0.00    -0.287 OA
BRANCH  28  30
HETATM   30  C   UNL     1      42.787 -15.045   5.868  1.00  0.00     0.015 A 
HETATM   31  C   UNL     1      41.662 -15.881   5.851  1.00  0.00     0.015 A 
HETATM   32  C   UNL     1      41.633 -17.048   6.615  1.00  0.00     0.001 A 
HETATM   33  C   UNL     1      42.721 -17.377   7.419  1.00  0.00     0.000 A 
HETATM   34  C   UNL     1      43.833 -16.538   7.466  1.00  0.00     0.001 A 
HETATM   35  C   UNL     1      43.867 -15.370   6.698  1.00  0.00     0.015 A 
ENDBRANCH  28  30
ENDBRANCH  22  28
ENDBRANCH   1  21
TORSDOF 6
ENDMDL
MODEL 2
REMARK VINA RESULT:      -8.7      3.794      7.979
REMARK  6 active torsions:
REMARK  status: ('A' for Active; 'I' for Inactive)
REMARK    1  A    between atoms: C_4  and  C_5 
REMARK    2  A    between atoms: C_5  and  C_6 
REMARK    3  A    between atoms: C_7  and  N_8 
REMARK       I    between atoms: N_8  and  C_9 
REMARK    4  A    between atoms: C_9  and  C_10 
REMARK    5  A    between atoms: C_15  and  C_16 
REMARK       I    between atoms: C_16  and  N_17 
REMARK    6  A    between atoms: N_17  and  C_18 
ROOT
HETATM    1  N   UNL     1      43.932 -14.564   7.351  1.00  0.00    -0.321 N 
HETATM    2  C   UNL     1      44.900 -13.600   7.531  1.00  0.00     0.277 C 
HETATM    3  O   UNL     1      45.887 -13.428   6.831  1.00  0.00    -0.266 OA
HETATM    4  H   UNL     1      43.073 -14.353   7.860  1.00  0.00     0.169 HD
ENDROOT
BRANCH   2   5
HETATM    5  C   UNL     1      44.589 -12.728   8.665  1.00  0.00     0.158 A 
HETATM    6  N   UNL     1      45.333 -12.809   9.842  1.00  0.00    -0.236 NA
HETATM    7  C   UNL     1      44.821 -11.907  10.643  1.00  0.00     0.208 A 
HETATM    8  N   UNL     1      43.799 -11.237  10.044  1.00  0.00    -0.344 N 
HETATM    9  H   UNL     1      43.252 -10.481  10.438  1.00  0.00     0.167 HD
HETATM   10  C   UNL     1      43.625 -11.731   8.765  1.00  0.00     0.136 A 
BRANCH  10  11
HETATM   11  C   UNL     1      42.635 -11.142   7.882  1.00  0.00     0.275 C 
HETATM   12  N   UNL     1      41.962 -12.006   7.050  1.00  0.00    -0.322 N 
HETATM   13  H   UNL     1      42.131 -13.003   7.175  1.00  0.00     0.169 HD
HETATM   14  O   UNL     1      42.445  -9.930   7.932  1.00  0.00    -0.266 OA
BRANCH  12  15
HETATM   15  C   UNL     1      41.058 -11.696   6.014  1.00  0.00     0.035 A 
HETATM   16  C   UNL     1      41.377 -10.930   4.893  1.00  0.00     0.029 A 
HETATM   17  C   UNL     1      40.427 -10.715   3.890  1.00  0.00     0.002 A 
HETATM   18  C   UNL     1      39.150 -11.261   4.001  1.00  0.00     0.000 A 
HETATM   19  C   UNL     1      38.818 -12.020   5.118  1.00  0.00     0.002 A 
HETATM   20  C   UNL     1      39.768 -12.237   6.119  1.00  0.00     0.029 A 
ENDBRANCH  12  15
ENDBRANCH  10  11
ENDBRANCH   2   5
BRANCH   1  21
HETATM   21  C   UNL     1      43.918 -15.616   6.413  1.00  0.00     0.049 A 
HETATM   22  C   UNL     1      43.456 -15.557   5.083  1.00  0.00     0.043 A 
HETATM   23  C   UNL     1      43.431 -16.723   4.295  1.00  0.00     0.041 A 
HETATM   24  C   UNL     1      43.913 -17.925   4.801  1.00  0.00     0.035 A 
HETATM   25  C   UNL     1      44.433 -17.981   6.089  1.00  0.00     0.026 A 
HETATM   26 CL   UNL     1      43.898 -19.338   3.822  1.00  0.00    -0.084 Cl
HETATM   27  C   UNL     1      44.440 -16.833   6.885  1.00  0.00     0.032 A 
BRANCH  22  28
HETATM   28  C   UNL     1      43.079 -14.326   4.344  1.00  0.00     0.194 C 
HETATM   29  O   UNL     1      43.718 -13.298   4.566  1.00  0.00    -0.287 OA
BRANCH  28  30
HETATM   30  C   UNL     1      41.896 -14.280   3.437  1.00  0.00     0.015 A 
HETATM   31  C   UNL     1      42.021 -13.584   2.227  1.00  0.00     0.015 A 
HETATM   32  C   UNL     1      40.958 -13.531   1.325  1.00  0.00     0.001 A 
HETATM   33  C   UNL     1      39.754 -14.156   1.636  1.00  0.00     0.000 A 
HETATM   34  C   UNL     1      39.609 -14.827   2.849  1.00  0.00     0.001 A 
HETATM   35  C   UNL     1      40.674 -14.886   3.753  1.00  0.00     0.015 A 
ENDBRANCH  28  30
ENDBRANCH  22  28
ENDBRANCH   1  21
TORSDOF 6
ENDMDL
MODEL 3
REMARK VINA RESULT:      -8.7      2.787      5.562
REMARK  6 active torsions:
REMARK  status: ('A' for Active; 'I' for Inactive)
REMARK    1  A    between atoms: C_4  and  C_5 
REMARK    2  A    between atoms: C_5  and  C_6 
REMARK    3  A    between atoms: C_7  and  N_8 
REMARK       I    between atoms: N_8  and  C_9 
REMARK    4  A    between atoms: C_9  and  C_10 
REMARK    5  A    between atoms: C_15  and  C_16 
REMARK       I    between atoms: C_16  and  N_17 
REMARK    6  A    between atoms: N_17  and  C_18 
ROOT
HETATM    1  N   UNL     1      40.965 -13.092   2.264  1.00  0.00    -0.321 N 
HETATM    2  C   UNL     1      42.070 -13.037   3.084  1.00  0.00     0.277 C 
HETATM    3  O   UNL     1      43.224 -13.279   2.760  1.00  0.00    -0.266 OA
HETATM    4  H   UNL     1      40.168 -12.586   2.650  1.00  0.00     0.169 HD
ENDROOT
BRANCH   2   5
HETATM    5  C   UNL     1      41.719 -12.587   4.433  1.00  0.00     0.158 A 
HETATM    6  N   UNL     1      41.453 -11.241   4.680  1.00  0.00    -0.236 NA
HETATM    7  C   UNL     1      41.166 -11.169   5.957  1.00  0.00     0.208 A 
HETATM    8  N   UNL     1      41.216 -12.396   6.544  1.00  0.00    -0.344 N 
HETATM    9  H   UNL     1      41.016 -12.616   7.512  1.00  0.00     0.167 HD
HETATM   10  C   UNL     1      41.560 -13.337   5.593  1.00  0.00     0.136 A 
BRANCH  10  11
HETATM   11  C   UNL     1      41.620 -14.744   5.944  1.00  0.00     0.275 C 
HETATM   12  N   UNL     1      42.853 -15.236   6.304  1.00  0.00    -0.322 N 
HETATM   13  H   UNL     1      43.616 -14.566   6.392  1.00  0.00     0.169 HD
HETATM   14  O   UNL     1      40.586 -15.405   5.915  1.00  0.00    -0.266 OA
BRANCH  12  15
HETATM   15  C   UNL     1      43.220 -16.572   6.561  1.00  0.00     0.035 A 
HETATM   16  C   UNL     1      43.433 -17.099   7.834  1.00  0.00     0.029 A 
HETATM   17  C   UNL     1      43.747 -18.453   7.995  1.00  0.00     0.002 A 
HETATM   18  C   UNL     1      43.853 -19.288   6.885  1.00  0.00     0.000 A 
HETATM   19  C   UNL     1      43.650 -18.770   5.610  1.00  0.00     0.002 A 
HETATM   20  C   UNL     1      43.334 -17.420   5.449  1.00  0.00     0.029 A 
ENDBRANCH  12  15
ENDBRANCH  10  11
ENDBRANCH   2   5
BRANCH   1  21
HETATM   21  C   UNL     1      40.896 -13.539   0.929  1.00  0.00     0.049 A 
HETATM   22  C   UNL     1      40.928 -14.876   0.481  1.00  0.00     0.043 A 
HETATM   23  C   UNL     1      40.935 -15.155  -0.898  1.00  0.00     0.041 A 
HETATM   24  C   UNL     1      40.853 -14.123  -1.826  1.00  0.00     0.035 A 
HETATM   25  C   UNL     1      40.753 -12.806  -1.396  1.00  0.00     0.026 A 
HETATM   26 CL   UNL     1      40.839 -14.478  -3.508  1.00  0.00    -0.084 Cl
HETATM   27  C   UNL     1      40.768 -12.518  -0.029  1.00  0.00     0.032 A 
BRANCH  22  28
HETATM   28  C   UNL     1      40.839 -16.084   1.339  1.00  0.00     0.194 C 
HETATM   29  O   UNL     1      39.799 -16.275   1.966  1.00  0.00    -0.287 OA
BRANCH  28  30
HETATM   30  C   UNL     1      42.001 -16.999   1.537  1.00  0.00     0.015 A 
HETATM   31  C   UNL     1      41.738 -18.335   1.867  1.00  0.00     0.015 A 
HETATM   32  C   UNL     1      42.782 -19.244   2.036  1.00  0.00     0.001 A 
HETATM   33  C   UNL     1      44.100 -18.818   1.898  1.00  0.00     0.000 A 
HETATM   34  C   UNL     1      44.375 -17.484   1.599  1.00  0.00     0.001 A 
HETATM   35  C   UNL     1      43.330 -16.572   1.423  1.00  0.00     0.015 A 
ENDBRANCH  28  30
ENDBRANCH  22  28
ENDBRANCH   1  21
TORSDOF 6
ENDMDL
MODEL 4
REMARK VINA RESULT:      -8.6      2.470      6.190
REMARK  6 active torsions:
REMARK  status: ('A' for Active; 'I' for Inactive)
REMARK    1  A    between atoms: C_4  and  C_5 
REMARK    2  A    between atoms: C_5  and  C_6 
REMARK    3  A    between atoms: C_7  and  N_8 
REMARK       I    between atoms: N_8  and  C_9 
REMARK    4  A    between atoms: C_9  and  C_10 
REMARK    5  A    between atoms: C_15  and  C_16 
REMARK       I    between atoms: C_16  and  N_17 
REMARK    6  A    between atoms: N_17  and  C_18 
ROOT
HETATM    1  N   UNL     1      42.774 -17.094   1.695  1.00  0.00    -0.321 N 
HETATM    2  C   UNL     1      41.481 -16.858   1.282  1.00  0.00     0.277 C 
HETATM    3  O   UNL     1      40.485 -17.473   1.636  1.00  0.00    -0.266 OA
HETATM    4  H   UNL     1      43.393 -16.305   1.509  1.00  0.00     0.169 HD
ENDROOT
BRANCH   2   5
HETATM    5  C   UNL     1      41.405 -15.710   0.376  1.00  0.00     0.158 A 
HETATM    6  N   UNL     1      41.237 -15.904  -0.995  1.00  0.00    -0.236 NA
HETATM    7  C   UNL     1      41.197 -14.702  -1.516  1.00  0.00     0.208 A 
HETATM    8  N   UNL     1      41.313 -13.744  -0.557  1.00  0.00    -0.344 N 
HETATM    9  H   UNL     1      41.291 -12.740  -0.693  1.00  0.00     0.167 HD
HETATM   10  C   UNL     1      41.440 -14.353   0.676  1.00  0.00     0.136 A 
BRANCH  10  11
HETATM   11  C   UNL     1      41.515 -13.551   1.884  1.00  0.00     0.275 C 
HETATM   12  N   UNL     1      40.466 -13.668   2.766  1.00  0.00    -0.322 N 
HETATM   13  H   UNL     1      39.760 -14.374   2.563  1.00  0.00     0.169 HD
HETATM   14  O   UNL     1      42.497 -12.835   2.056  1.00  0.00    -0.266 OA
BRANCH  12  15
HETATM   15  C   UNL     1      40.220 -12.920   3.934  1.00  0.00     0.035 A 
HETATM   16  C   UNL     1      40.036 -11.537   3.960  1.00  0.00     0.029 A 
HETATM   17  C   UNL     1      39.747 -10.885   5.163  1.00  0.00     0.002 A 
HETATM   18  C   UNL     1      39.641 -11.608   6.349  1.00  0.00     0.000 A 
HETATM   19  C   UNL     1      39.828 -12.987   6.335  1.00  0.00     0.002 A 
HETATM   20  C   UNL     1      40.115 -13.638   5.134  1.00  0.00     0.029 A 
ENDBRANCH  12  15
ENDBRANCH  10  11
ENDBRANCH   2   5
BRANCH   1  21
HETATM   21  C   UNL     1      43.247 -18.143   2.509  1.00  0.00     0.049 A 
HETATM   22  C   UNL     1      43.198 -18.212   3.916  1.00  0.00     0.043 A 
HETATM   23  C   UNL     1      43.793 -19.295   4.589  1.00  0.00     0.041 A 
HETATM   24  C   UNL     1      44.383 -20.330   3.872  1.00  0.00     0.035 A 
HETATM   25  C   UNL     1      44.379 -20.307   2.483  1.00  0.00     0.026 A 
HETATM   26 CL   UNL     1      45.088 -21.660   4.704  1.00  0.00    -0.084 Cl
HETATM   27  C   UNL     1      43.810 -19.224   1.807  1.00  0.00     0.032 A 
BRANCH  22  28
HETATM   28  C   UNL     1      42.457 -17.285   4.808  1.00  0.00     0.194 C 
HETATM   29  O   UNL     1      41.243 -17.441   4.927  1.00  0.00    -0.287 OA
BRANCH  28  30
HETATM   30  C   UNL     1      43.121 -16.123   5.467  1.00  0.00     0.015 A 
HETATM   31  C   UNL     1      43.318 -14.961   4.709  1.00  0.00     0.015 A 
HETATM   32  C   UNL     1      43.908 -13.833   5.280  1.00  0.00     0.001 A 
HETATM   33  C   UNL     1      44.325 -13.866   6.607  1.00  0.00     0.000 A 
HETATM   34  C   UNL     1      44.161 -15.027   7.362  1.00  0.00     0.001 A 
HETATM   35  C   UNL     1      43.566 -16.157   6.795  1.00  0.00     0.015 A 
ENDBRANCH  28  30
ENDBRANCH  22  28
ENDBRANCH   1  21
TORSDOF 6
ENDMDL
MODEL 5
REMARK VINA RESULT:      -8.1      1.956      2.648
REMARK  6 active torsions:
REMARK  status: ('A' for Active; 'I' for Inactive)
REMARK    1  A    between atoms: C_4  and  C_5 
REMARK    2  A    between atoms: C_5  and  C_6 
REMARK    3  A    between atoms: C_7  and  N_8 
REMARK       I    between atoms: N_8  and  C_9 
REMARK    4  A    between atoms: C_9  and  C_10 
REMARK    5  A    between atoms: C_15  and  C_16 
REMARK       I    between atoms: C_16  and  N_17 
REMARK    6  A    between atoms: N_17  and  C_18 
ROOT
HETATM    1  N   UNL     1      39.741 -12.823   1.749  1.00  0.00    -0.321 N 
HETATM    2  C   UNL     1      38.897 -13.593   0.979  1.00  0.00     0.277 C 
HETATM    3  O   UNL     1      37.939 -14.237   1.380  1.00  0.00    -0.266 OA
HETATM    4  H   UNL     1      40.280 -12.160   1.192  1.00  0.00     0.169 HD
ENDROOT
BRANCH   2   5
HETATM    5  C   UNL     1      39.244 -13.518  -0.442  1.00  0.00     0.158 A 
HETATM    6  N   UNL     1      38.765 -12.472  -1.230  1.00  0.00    -0.236 NA
HETATM    7  C   UNL     1      39.255 -12.684  -2.428  1.00  0.00     0.208 A 
HETATM    8  N   UNL     1      40.036 -13.798  -2.452  1.00  0.00    -0.344 N 
HETATM    9  H   UNL     1      40.546 -14.167  -3.246  1.00  0.00     0.167 HD
HETATM   10  C   UNL     1      40.062 -14.358  -1.189  1.00  0.00     0.136 A 
BRANCH  10  11
HETATM   11  C   UNL     1      40.880 -15.527  -0.925  1.00  0.00     0.275 C 
HETATM   12  N   UNL     1      41.078 -15.853   0.397  1.00  0.00    -0.322 N 
HETATM   13  H   UNL     1      40.564 -15.315   1.093  1.00  0.00     0.169 HD
HETATM   14  O   UNL     1      41.333 -16.158  -1.875  1.00  0.00    -0.266 OA
BRANCH  12  15
HETATM   15  C   UNL     1      41.924 -16.842   0.936  1.00  0.00     0.035 A 
HETATM   16  C   UNL     1      41.493 -18.095   1.372  1.00  0.00     0.029 A 
HETATM   17  C   UNL     1      42.414 -19.033   1.848  1.00  0.00     0.002 A 
HETATM   18  C   UNL     1      43.772 -18.727   1.894  1.00  0.00     0.000 A 
HETATM   19  C   UNL     1      44.213 -17.477   1.467  1.00  0.00     0.002 A 
HETATM   20  C   UNL     1      43.293 -16.541   0.990  1.00  0.00     0.029 A 
ENDBRANCH  12  15
ENDBRANCH  10  11
ENDBRANCH   2   5
BRANCH   1  21
HETATM   21  C   UNL     1      39.763 -12.698   3.152  1.00  0.00     0.049 A 
HETATM   22  C   UNL     1      40.599 -13.390   4.052  1.00  0.00     0.043 A 
HETATM   23  C   UNL     1      40.439 -13.214   5.439  1.00  0.00     0.041 A 
HETATM   24  C   UNL     1      39.498 -12.316   5.930  1.00  0.00     0.035 A 
HETATM   25  C   UNL     1      38.714 -11.577   5.052  1.00  0.00     0.026 A 
HETATM   26 CL   UNL     1      39.327 -12.092   7.626  1.00  0.00    -0.084 Cl
HETATM   27  C   UNL     1      38.851 -11.763   3.674  1.00  0.00     0.032 A 
BRANCH  22  28
HETATM   28  C   UNL     1      41.759 -14.241   3.684  1.00  0.00     0.194 C 
HETATM   29  O   UNL     1      42.497 -13.856   2.779  1.00  0.00    -0.287 OA
BRANCH  28  30
HETATM   30  C   UNL     1      41.983 -15.580   4.302  1.00  0.00     0.015 A 
HETATM   31  C   UNL     1      43.287 -15.915   4.691  1.00  0.00     0.015 A 
HETATM   32  C   UNL     1      43.553 -17.141   5.301  1.00  0.00     0.001 A 
HETATM   33  C   UNL     1      42.520 -18.051   5.507  1.00  0.00     0.000 A 
HETATM   34  C   UNL     1      41.224 -17.740   5.098  1.00  0.00     0.001 A 
HETATM   35  C   UNL     1      40.953 -16.511   4.491  1.00  0.00     0.015 A 
ENDBRANCH  28  30
ENDBRANCH  22  28
ENDBRANCH   1  21
TORSDOF 6
ENDMDL
MODEL 6
REMARK VINA RESULT:      -8.1      2.436      4.758
REMARK  6 active torsions:
REMARK  status: ('A' for Active; 'I' for Inactive)
REMARK    1  A    between atoms: C_4  and  C_5 
REMARK    2  A    between atoms: C_5  and  C_6 
REMARK    3  A    between atoms: C_7  and  N_8 
REMARK       I    between atoms: N_8  and  C_9 
REMARK    4  A    between atoms: C_9  and  C_10 
REMARK    5  A    between atoms: C_15  and  C_16 
REMARK       I    between atoms: C_16  and  N_17 
REMARK    6  A    between atoms: N_17  and  C_18 
ROOT
HETATM    1  N   UNL     1      41.631 -13.412   4.588  1.00  0.00    -0.321 N 
HETATM    2  C   UNL     1      41.555 -14.566   5.336  1.00  0.00     0.277 C 
HETATM    3  O   UNL     1      40.565 -15.269   5.482  1.00  0.00    -0.266 OA
HETATM    4  H   UNL     1      42.592 -13.150   4.372  1.00  0.00     0.169 HD
ENDROOT
BRANCH   2   5
HETATM    5  C   UNL     1      42.850 -14.914   5.923  1.00  0.00     0.158 A 
HETATM    6  N   UNL     1      43.573 -13.967   6.647  1.00  0.00    -0.236 NA
HETATM    7  C   UNL     1      44.661 -14.583   7.041  1.00  0.00     0.208 A 
HETATM    8  N   UNL     1      44.672 -15.879   6.627  1.00  0.00    -0.344 N 
HETATM    9  H   UNL     1      45.385 -16.573   6.817  1.00  0.00     0.167 HD
HETATM   10  C   UNL     1      43.518 -16.134   5.912  1.00  0.00     0.136 A 
BRANCH  10  11
HETATM   11  C   UNL     1      43.248 -17.469   5.410  1.00  0.00     0.275 C 
HETATM   12  N   UNL     1      44.259 -18.074   4.699  1.00  0.00    -0.322 N 
HETATM   13  H   UNL     1      45.154 -17.590   4.656  1.00  0.00     0.169 HD
HETATM   14  O   UNL     1      42.159 -17.981   5.651  1.00  0.00    -0.266 OA
BRANCH  12  15
HETATM   15  C   UNL     1      44.222 -19.294   3.995  1.00  0.00     0.035 A 
HETATM   16  C   UNL     1      43.766 -19.433   2.684  1.00  0.00     0.029 A 
HETATM   17  C   UNL     1      43.813 -20.678   2.048  1.00  0.00     0.002 A 
HETATM   18  C   UNL     1      44.315 -21.792   2.717  1.00  0.00     0.000 A 
HETATM   19  C   UNL     1      44.766 -21.666   4.027  1.00  0.00     0.002 A 
HETATM   20  C   UNL     1      44.721 -20.423   4.662  1.00  0.00     0.029 A 
ENDBRANCH  12  15
ENDBRANCH  10  11
ENDBRANCH   2   5
BRANCH   1  21
HETATM   21  C   UNL     1      40.585 -12.733   3.932  1.00  0.00     0.049 A 
HETATM   22  C   UNL     1      40.386 -12.625   2.540  1.00  0.00     0.043 A 
HETATM   23  C   UNL     1      39.335 -11.837   2.038  1.00  0.00     0.041 A 
HETATM   24  C   UNL     1      38.452 -11.205   2.906  1.00  0.00     0.035 A 
HETATM   25  C   UNL     1      38.596 -11.358   4.280  1.00  0.00     0.026 A 
HETATM   26 CL   UNL     1      37.157 -10.262   2.282  1.00  0.00    -0.084 Cl
HETATM   27  C   UNL     1      39.651 -12.121   4.787  1.00  0.00     0.032 A 
BRANCH  22  28
HETATM   28  C   UNL     1      41.128 -13.375   1.494  1.00  0.00     0.194 C 
HETATM   29  O   UNL     1      41.724 -12.731   0.633  1.00  0.00    -0.287 OA
BRANCH  28  30
HETATM   30  C   UNL     1      41.077 -14.862   1.403  1.00  0.00     0.015 A 
HETATM   31  C   UNL     1      42.077 -15.511   0.667  1.00  0.00     0.015 A 
HETATM   32  C   UNL     1      42.098 -16.903   0.571  1.00  0.00     0.001 A 
HETATM   33  C   UNL     1      41.106 -17.656   1.192  1.00  0.00     0.000 A 
HETATM   34  C   UNL     1      40.089 -17.019   1.903  1.00  0.00     0.001 A 
HETATM   35  C   UNL     1      40.068 -15.625   2.005  1.00  0.00     0.015 A 
ENDBRANCH  28  30
ENDBRANCH  22  28
ENDBRANCH   1  21
TORSDOF 6
ENDMDL
MODEL 7
REMARK VINA RESULT:      -8.0      3.298      6.792
REMARK  6 active torsions:
REMARK  status: ('A' for Active; 'I' for Inactive)
REMARK    1  A    between atoms: C_4  and  C_5 
REMARK    2  A    between atoms: C_5  and  C_6 
REMARK    3  A    between atoms: C_7  and  N_8 
REMARK       I    between atoms: N_8  and  C_9 
REMARK    4  A    between atoms: C_9  and  C_10 
REMARK    5  A    between atoms: C_15  and  C_16 
REMARK       I    between atoms: C_16  and  N_17 
REMARK    6  A    between atoms: N_17  and  C_18 
ROOT
HETATM    1  N   UNL     1      41.457 -15.857   0.988  1.00  0.00    -0.321 N 
HETATM    2  C   UNL     1      41.704 -14.650   0.373  1.00  0.00     0.277 C 
HETATM    3  O   UNL     1      42.180 -13.654   0.900  1.00  0.00    -0.266 OA
HETATM    4  H   UNL     1      41.333 -16.617   0.320  1.00  0.00     0.169 HD
ENDROOT
BRANCH   2   5
HETATM    5  C   UNL     1      41.373 -14.693  -1.053  1.00  0.00     0.158 A 
HETATM    6  N   UNL     1      41.108 -15.912  -1.678  1.00  0.00    -0.236 NA
HETATM    7  C   UNL     1      40.841 -15.614  -2.926  1.00  0.00     0.208 A 
HETATM    8  N   UNL     1      40.903 -14.271  -3.138  1.00  0.00    -0.344 N 
HETATM    9  H   UNL     1      40.718 -13.782  -4.005  1.00  0.00     0.167 HD
HETATM   10  C   UNL     1      41.233 -13.643  -1.952  1.00  0.00     0.136 A 
BRANCH  10  11
HETATM   11  C   UNL     1      41.301 -12.194  -1.886  1.00  0.00     0.275 C 
HETATM   12  N   UNL     1      42.516 -11.621  -2.182  1.00  0.00    -0.322 N 
HETATM   13  H   UNL     1      43.254 -12.238  -2.518  1.00  0.00     0.169 HD
HETATM   14  O   UNL     1      40.287 -11.569  -1.588  1.00  0.00    -0.266 OA
BRANCH  12  15
HETATM   15  C   UNL     1      42.895 -10.269  -2.069  1.00  0.00     0.035 A 
HETATM   16  C   UNL     1      43.810  -9.783  -1.136  1.00  0.00     0.029 A 
HETATM   17  C   UNL     1      44.163  -8.429  -1.130  1.00  0.00     0.002 A 
HETATM   18  C   UNL     1      43.603  -7.552  -2.056  1.00  0.00     0.000 A 
HETATM   19  C   UNL     1      42.684  -8.025  -2.988  1.00  0.00     0.002 A 
HETATM   20  C   UNL     1      42.334  -9.377  -2.995  1.00  0.00     0.029 A 
ENDBRANCH  12  15
ENDBRANCH  10  11
ENDBRANCH   2   5
BRANCH   1  21
HETATM   21  C   UNL     1      41.586 -16.178   2.355  1.00  0.00     0.049 A 
HETATM   22  C   UNL     1      42.450 -17.137   2.922  1.00  0.00     0.043 A 
HETATM   23  C   UNL     1      42.400 -17.400   4.303  1.00  0.00     0.041 A 
HETATM   24  C   UNL     1      41.542 -16.679   5.126  1.00  0.00     0.035 A 
HETATM   25  C   UNL     1      40.733 -15.684   4.590  1.00  0.00     0.026 A 
HETATM   26 CL   UNL     1      41.505 -16.993   6.816  1.00  0.00    -0.084 Cl
HETATM   27  C   UNL     1      40.761 -15.433   3.215  1.00  0.00     0.032 A 
BRANCH  22  28
HETATM   28  C   UNL     1      43.538 -17.857   2.212  1.00  0.00     0.194 C 
HETATM   29  O   UNL     1      44.127 -17.270   1.306  1.00  0.00    -0.287 OA
BRANCH  28  30
HETATM   30  C   UNL     1      43.854 -19.287   2.497  1.00  0.00     0.015 A 
HETATM   31  C   UNL     1      43.384 -20.255   1.600  1.00  0.00     0.015 A 
HETATM   32  C   UNL     1      43.673 -21.606   1.798  1.00  0.00     0.001 A 
HETATM   33  C   UNL     1      44.416 -22.000   2.907  1.00  0.00     0.000 A 
HETATM   34  C   UNL     1      44.864 -21.048   3.821  1.00  0.00     0.001 A 
HETATM   35  C   UNL     1      44.581 -19.693   3.623  1.00  0.00     0.015 A 
ENDBRANCH  28  30
ENDBRANCH  22  28
ENDBRANCH   1  21
TORSDOF 6
ENDMDL
MODEL 8
REMARK VINA RESULT:      -7.8      3.014      6.436
REMARK  6 active torsions:
REMARK  status: ('A' for Active; 'I' for Inactive)
REMARK    1  A    between atoms: C_4  and  C_5 
REMARK    2  A    between atoms: C_5  and  C_6 
REMARK    3  A    between atoms: C_7  and  N_8 
REMARK       I    between atoms: N_8  and  C_9 
REMARK    4  A    between atoms: C_9  and  C_10 
REMARK    5  A    between atoms: C_15  and  C_16 
REMARK       I    between atoms: C_16  and  N_17 
REMARK    6  A    between atoms: N_17  and  C_18 
ROOT
HETATM    1  N   UNL     1      40.931 -13.031   1.935  1.00  0.00    -0.321 N 
HETATM    2  C   UNL     1      41.473 -14.130   2.564  1.00  0.00     0.277 C 
HETATM    3  O   UNL     1      42.392 -14.821   2.149  1.00  0.00    -0.266 OA
HETATM    4  H   UNL     1      40.387 -12.447   2.570  1.00  0.00     0.169 HD
ENDROOT
BRANCH   2   5
HETATM    5  C   UNL     1      40.848 -14.368   3.867  1.00  0.00     0.158 A 
HETATM    6  N   UNL     1      40.131 -13.354   4.501  1.00  0.00    -0.236 NA
HETATM    7  C   UNL     1      39.697 -13.880   5.621  1.00  0.00     0.208 A 
HETATM    8  N   UNL     1      40.079 -15.180   5.737  1.00  0.00    -0.344 N 
HETATM    9  H   UNL     1      39.857 -15.816   6.494  1.00  0.00     0.167 HD
HETATM   10  C   UNL     1      40.814 -15.535   4.622  1.00  0.00     0.136 A 
BRANCH  10  11
HETATM   11  C   UNL     1      41.291 -16.897   4.463  1.00  0.00     0.275 C 
HETATM   12  N   UNL     1      42.501 -17.055   3.827  1.00  0.00    -0.322 N 
HETATM   13  H   UNL     1      43.022 -16.210   3.598  1.00  0.00     0.169 HD
HETATM   14  O   UNL     1      40.609 -17.817   4.907  1.00  0.00    -0.266 OA
BRANCH  12  15
HETATM   15  C   UNL     1      43.128 -18.252   3.427  1.00  0.00     0.035 A 
HETATM   16  C   UNL     1      42.941 -18.861   2.187  1.00  0.00     0.029 A 
HETATM   17  C   UNL     1      43.645 -20.024   1.858  1.00  0.00     0.002 A 
HETATM   18  C   UNL     1      44.539 -20.587   2.766  1.00  0.00     0.000 A 
HETATM   19  C   UNL     1      44.728 -19.990   4.009  1.00  0.00     0.002 A 
HETATM   20  C   UNL     1      44.026 -18.828   4.336  1.00  0.00     0.029 A 
ENDBRANCH  12  15
ENDBRANCH  10  11
ENDBRANCH   2   5
BRANCH   1  21
HETATM   21  C   UNL     1      41.225 -12.535   0.649  1.00  0.00     0.049 A 
HETATM   22  C   UNL     1      40.644 -12.942  -0.569  1.00  0.00     0.043 A 
HETATM   23  C   UNL     1      41.109 -12.406  -1.784  1.00  0.00     0.041 A 
HETATM   24  C   UNL     1      42.101 -11.431  -1.790  1.00  0.00     0.035 A 
HETATM   25  C   UNL     1      42.634 -10.973  -0.591  1.00  0.00     0.026 A 
HETATM   26 CL   UNL     1      42.645 -10.767  -3.279  1.00  0.00    -0.084 Cl
HETATM   27  C   UNL     1      42.194 -11.517   0.618  1.00  0.00     0.032 A 
BRANCH  22  28
HETATM   28  C   UNL     1      39.466 -13.833  -0.718  1.00  0.00     0.194 C 
HETATM   29  O   UNL     1      38.754 -14.022   0.267  1.00  0.00    -0.287 OA
BRANCH  28  30
HETATM   30  C   UNL     1      39.191 -14.574  -1.983  1.00  0.00     0.015 A 
HETATM   31  C   UNL     1      40.159 -15.480  -2.438  1.00  0.00     0.015 A 
HETATM   32  C   UNL     1      39.946 -16.224  -3.599  1.00  0.00     0.001 A 
HETATM   33  C   UNL     1      38.772 -16.051  -4.326  1.00  0.00     0.000 A 
HETATM   34  C   UNL     1      37.815 -15.132  -3.898  1.00  0.00     0.001 A 
HETATM   35  C   UNL     1      38.023 -14.389  -2.733  1.00  0.00     0.015 A 
ENDBRANCH  28  30
ENDBRANCH  22  28
ENDBRANCH   1  21
TORSDOF 6
ENDMDL
MODEL 9
REMARK VINA RESULT:      -7.8      1.879      2.654
REMARK  6 active torsions:
REMARK  status: ('A' for Active; 'I' for Inactive)
REMARK    1  A    between atoms: C_4  and  C_5 
REMARK    2  A    between atoms: C_5  and  C_6 
REMARK    3  A    between atoms: C_7  and  N_8 
REMARK       I    between atoms: N_8  and  C_9 
REMARK    4  A    between atoms: C_9  and  C_10 
REMARK    5  A    between atoms: C_15  and  C_16 
REMARK       I    between atoms: C_16  and  N_17 
REMARK    6  A    between atoms: N_17  and  C_18 
ROOT
HETATM    1  N   UNL     1      39.673 -12.409   3.955  1.00  0.00    -0.321 N 
HETATM    2  C   UNL     1      39.884 -12.081   2.634  1.00  0.00     0.277 C 
HETATM    3  O   UNL     1      40.747 -11.329   2.204  1.00  0.00    -0.266 OA
HETATM    4  H   UNL     1      39.107 -13.250   4.062  1.00  0.00     0.169 HD
ENDROOT
BRANCH   2   5
HETATM    5  C   UNL     1      38.963 -12.795   1.747  1.00  0.00     0.158 A 
HETATM    6  N   UNL     1      37.744 -12.222   1.388  1.00  0.00    -0.236 NA
HETATM    7  C   UNL     1      37.169 -13.091   0.593  1.00  0.00     0.208 A 
HETATM    8  N   UNL     1      37.956 -14.185   0.406  1.00  0.00    -0.344 N 
HETATM    9  H   UNL     1      37.754 -14.989  -0.177  1.00  0.00     0.167 HD
HETATM   10  C   UNL     1      39.125 -14.028   1.126  1.00  0.00     0.136 A 
BRANCH  10  11
HETATM   11  C   UNL     1      40.172 -15.030   1.048  1.00  0.00     0.275 C 
HETATM   12  N   UNL     1      40.607 -15.558   2.242  1.00  0.00    -0.322 N 
HETATM   13  H   UNL     1      40.105 -15.285   3.085  1.00  0.00     0.169 HD
HETATM   14  O   UNL     1      40.596 -15.356  -0.056  1.00  0.00    -0.266 OA
BRANCH  12  15
HETATM   15  C   UNL     1      41.686 -16.436   2.467  1.00  0.00     0.035 A 
HETATM   16  C   UNL     1      41.559 -17.721   2.994  1.00  0.00     0.029 A 
HETATM   17  C   UNL     1      42.684 -18.540   3.137  1.00  0.00     0.002 A 
HETATM   18  C   UNL     1      43.943 -18.081   2.756  1.00  0.00     0.000 A 
HETATM   19  C   UNL     1      44.082 -16.799   2.235  1.00  0.00     0.002 A 
HETATM   20  C   UNL     1      42.959 -15.981   2.091  1.00  0.00     0.029 A 
ENDBRANCH  12  15
ENDBRANCH  10  11
ENDBRANCH   2   5
BRANCH   1  21
HETATM   21  C   UNL     1      40.313 -11.879   5.093  1.00  0.00     0.049 A 
HETATM   22  C   UNL     1      41.500 -12.347   5.693  1.00  0.00     0.043 A 
HETATM   23  C   UNL     1      41.968 -11.758   6.882  1.00  0.00     0.041 A 
HETATM   24  C   UNL     1      41.297 -10.677   7.443  1.00  0.00     0.035 A 
HETATM   25  C   UNL     1      40.162 -10.164   6.826  1.00  0.00     0.026 A 
HETATM   26 CL   UNL     1      41.889  -9.951   8.885  1.00  0.00    -0.084 Cl
HETATM   27  C   UNL     1      39.679 -10.757   5.657  1.00  0.00     0.032 A 
BRANCH  22  28
HETATM   28  C   UNL     1      42.420 -13.365   5.125  1.00  0.00     0.194 C 
HETATM   29  O   UNL     1      43.080 -13.062   4.133  1.00  0.00    -0.287 OA
BRANCH  28  30
HETATM   30  C   UNL     1      42.480 -14.758   5.657  1.00  0.00     0.015 A 
HETATM   31  C   UNL     1      43.740 -15.354   5.799  1.00  0.00     0.015 A 
HETATM   32  C   UNL     1      43.861 -16.643   6.318  1.00  0.00     0.001 A 
HETATM   33  C   UNL     1      42.720 -17.355   6.679  1.00  0.00     0.000 A 
HETATM   34  C   UNL     1      41.460 -16.783   6.514  1.00  0.00     0.001 A 
HETATM   35  C   UNL     1      41.335 -15.489   5.999  1.00  0.00     0.015 A 
ENDBRANCH  28  30
ENDBRANCH  22  28
ENDBRANCH   1  21
TORSDOF 6
ENDMDL
MODEL 10
REMARK VINA RESULT:      -7.8      2.517      5.599
REMARK  6 active torsions:
REMARK  status: ('A' for Active; 'I' for Inactive)
REMARK    1  A    between atoms: C_4  and  C_5 
REMARK    2  A    between atoms: C_5  and  C_6 
REMARK    3  A    between atoms: C_7  and  N_8 
REMARK       I    between atoms: N_8  and  C_9 
REMARK    4  A    between atoms: C_9  and  C_10 
REMARK    5  A    between atoms: C_15  and  C_16 
REMARK       I    between atoms: C_16  and  N_17 
REMARK    6  A    between atoms: N_17  and  C_18 
ROOT
HETATM    1  N   UNL     1      41.263 -13.688   3.828  1.00  0.00    -0.321 N 
HETATM    2  C   UNL     1      41.173 -14.621   4.837  1.00  0.00     0.277 C 
HETATM    3  O   UNL     1      40.169 -15.238   5.164  1.00  0.00    -0.266 OA
HETATM    4  H   UNL     1      42.227 -13.514   3.543  1.00  0.00     0.169 HD
ENDROOT
BRANCH   2   5
HETATM    5  C   UNL     1      42.470 -14.852   5.476  1.00  0.00     0.158 A 
HETATM    6  N   UNL     1      43.117 -13.817   6.152  1.00  0.00    -0.236 NA
HETATM    7  C   UNL     1      44.228 -14.340   6.611  1.00  0.00     0.208 A 
HETATM    8  N   UNL     1      44.327 -15.657   6.284  1.00  0.00    -0.344 N 
HETATM    9  H   UNL     1      45.074 -16.293   6.536  1.00  0.00     0.167 HD
HETATM   10  C   UNL     1      43.209 -16.027   5.561  1.00  0.00     0.136 A 
BRANCH  10  11
HETATM   11  C   UNL     1      43.032 -17.405   5.141  1.00  0.00     0.275 C 
HETATM   12  N   UNL     1      44.017 -17.935   4.340  1.00  0.00    -0.322 N 
HETATM   13  H   UNL     1      44.844 -17.363   4.176  1.00  0.00     0.169 HD
HETATM   14  O   UNL     1      42.039 -18.016   5.525  1.00  0.00    -0.266 OA
BRANCH  12  15
HETATM   15  C   UNL     1      44.036 -19.184   3.689  1.00  0.00     0.035 A 
HETATM   16  C   UNL     1      43.531 -19.413   2.410  1.00  0.00     0.029 A 
HETATM   17  C   UNL     1      43.638 -20.678   1.823  1.00  0.00     0.002 A 
HETATM   18  C   UNL     1      44.248 -21.725   2.512  1.00  0.00     0.000 A 
HETATM   19  C   UNL     1      44.749 -21.509   3.792  1.00  0.00     0.002 A 
HETATM   20  C   UNL     1      44.644 -20.245   4.376  1.00  0.00     0.029 A 
ENDBRANCH  12  15
ENDBRANCH  10  11
ENDBRANCH   2   5
BRANCH   1  21
HETATM   21  C   UNL     1      40.222 -13.160   3.039  1.00  0.00     0.049 A 
HETATM   22  C   UNL     1      39.917 -13.497   1.704  1.00  0.00     0.043 A 
HETATM   23  C   UNL     1      38.892 -12.816   1.023  1.00  0.00     0.041 A 
HETATM   24  C   UNL     1      38.136 -11.848   1.675  1.00  0.00     0.035 A 
HETATM   25  C   UNL     1      38.382 -11.554   3.011  1.00  0.00     0.026 A 
HETATM   26 CL   UNL     1      36.871 -11.037   0.840  1.00  0.00    -0.084 Cl
HETATM   27  C   UNL     1      39.414 -12.210   3.688  1.00  0.00     0.032 A 
BRANCH  22  28
HETATM   28  C   UNL     1      40.508 -14.620   0.932  1.00  0.00     0.194 C 
HETATM   29  O   UNL     1      40.671 -15.695   1.506  1.00  0.00    -0.287 OA
BRANCH  28  30
HETATM   30  C   UNL     1      40.998 -14.445  -0.465  1.00  0.00     0.015 A 
HETATM   31  C   UNL     1      40.693 -15.444  -1.399  1.00  0.00     0.015 A 
HETATM   32  C   UNL     1      41.100 -15.322  -2.728  1.00  0.00     0.001 A 
HETATM   33  C   UNL     1      41.834 -14.209  -3.128  1.00  0.00     0.000 A 
HETATM   34  C   UNL     1      42.168 -13.223  -2.201  1.00  0.00     0.001 A 
HETATM   35  C   UNL     1      41.758 -13.340  -0.870  1.00  0.00     0.015 A 
ENDBRANCH  28  30
ENDBRANCH  22  28
ENDBRANCH   1  21
TORSDOF 6
ENDMDL
