MODEL 1
REMARK VINA RESULT:      -8.3      0.000      0.000
REMARK  7 active torsions:
REMARK  status: ('A' for Active; 'I' for Inactive)
REMARK    1  A    between atoms: C_2  and  O_3 
REMARK    2  A    between atoms: O_3  and  C_4 
REMARK    3  A    between atoms: C_4  and  C_5 
REMARK    4  A    between atoms: C_6  and  C_7 
REMARK    5  A    between atoms: C_18  and  S_19 
REMARK    6  A    between atoms: S_19  and  C_20 
REMARK    7  A    between atoms: C_20  and  C_21 
ROOT
HETATM    1  C   UNL     1      39.336 -13.124   2.100  1.00  0.00     0.070 A 
HETATM    2  C   UNL     1      40.599 -13.277   2.934  1.00  0.00     0.203 A 
HETATM    3  N   UNL     1      40.957 -14.689   3.106  1.00  0.00    -0.082 N 
HETATM    4  C   UNL     1      40.213 -15.735   2.634  1.00  0.00     0.726 A 
HETATM    5  N   UNL     1      39.081 -15.481   1.949  1.00  0.00    -0.192 N 
HETATM    6  N   UNL     1      42.077 -15.120   3.713  1.00  0.00    -0.128 NA
HETATM    7  C   UNL     1      41.916 -16.445   3.631  1.00  0.00     0.226 A 
HETATM    8  N   UNL     1      40.793 -16.862   2.957  1.00  0.00    -0.035 NA
HETATM    9  C   UNL     1      38.645 -14.196   1.639  1.00  0.00     0.037 A 
HETATM   10  C   UNL     1      37.432 -14.113   0.746  1.00  0.00     0.070 C 
HETATM   11  H   UNL     1      38.550 -16.263   1.571  1.00  0.00     0.184 HD
ENDROOT
BRANCH   7  12
HETATM   12  S   UNL     1      43.066 -17.521   4.367  1.00  0.00    -0.083 SA
BRANCH  12  13
HETATM   13  C   UNL     1      43.970 -18.080   2.901  1.00  0.00     0.121 C 
BRANCH  13  14
HETATM   14  C   UNL     1      44.096 -19.586   2.880  1.00  0.00    -0.047 A 
HETATM   15  C   UNL     1      44.588 -20.276   4.000  1.00  0.00     0.031 A 
HETATM   16  C   UNL     1      44.727 -21.663   3.964  1.00  0.00     0.034 A 
HETATM   17 CL   UNL     1      45.326 -22.496   5.345  1.00  0.00    -0.084 Cl
HETATM   18  C   UNL     1      44.387 -22.380   2.818  1.00  0.00     0.024 A 
HETATM   19  C   UNL     1      43.903 -21.704   1.699  1.00  0.00     0.002 A 
HETATM   20  C   UNL     1      43.757 -20.316   1.730  1.00  0.00     0.008 A 
ENDBRANCH  13  14
ENDBRANCH  12  13
ENDBRANCH   7  12
BRANCH   2  21
HETATM   21  C   UNL     1      40.489 -12.601   4.302  1.00  0.00    -0.028 A 
HETATM   22  C   UNL     1      41.315 -11.521   4.662  1.00  0.00     0.011 A 
HETATM   23  C   UNL     1      41.190 -10.921   5.917  1.00  0.00     0.024 A 
HETATM   24  C   UNL     1      40.243 -11.394   6.822  1.00  0.00     0.034 A 
HETATM   25 CL   UNL     1      40.091 -10.652   8.367  1.00  0.00    -0.084 Cl
HETATM   26  C   UNL     1      39.420 -12.465   6.485  1.00  0.00     0.024 A 
HETATM   27  C   UNL     1      39.543 -13.067   5.231  1.00  0.00     0.011 A 
ENDBRANCH   2  21
BRANCH   1  28
HETATM   28  C   UNL     1      38.987 -11.716   1.827  1.00  0.00     0.293 C 
HETATM   29  O   UNL     1      39.638 -11.006   1.079  1.00  0.00    -0.259 OA
BRANCH  28  30
HETATM   30  O   UNL     1      37.936 -11.335   2.594  1.00  0.00    -0.318 OA
BRANCH  30  31
HETATM   31  C   UNL     1      37.811  -9.923   2.820  1.00  0.00     0.174 C 
HETATM   32  C   UNL     1      38.091  -9.585   4.273  1.00  0.00     0.034 C 
ENDBRANCH  30  31
ENDBRANCH  28  30
ENDBRANCH   1  28
TORSDOF 7
ENDMDL
MODEL 2
REMARK VINA RESULT:      -8.3      2.863      3.676
REMARK  7 active torsions:
REMARK  status: ('A' for Active; 'I' for Inactive)
REMARK    1  A    between atoms: C_2  and  O_3 
REMARK    2  A    between atoms: O_3  and  C_4 
REMARK    3  A    between atoms: C_4  and  C_5 
REMARK    4  A    between atoms: C_6  and  C_7 
REMARK    5  A    between atoms: C_18  and  S_19 
REMARK    6  A    between atoms: S_19  and  C_20 
REMARK    7  A    between atoms: C_20  and  C_21 
ROOT
HETATM    1  C   UNL     1      41.271 -13.785  -1.102  1.00  0.00     0.070 A 
HETATM    2  C   UNL     1      41.603 -13.721   0.382  1.00  0.00     0.203 A 
HETATM    3  N   UNL     1      41.623 -15.059   0.982  1.00  0.00    -0.082 N 
HETATM    4  C   UNL     1      41.315 -16.210   0.309  1.00  0.00     0.726 A 
HETATM    5  N   UNL     1      40.985 -16.141  -0.995  1.00  0.00    -0.192 N 
HETATM    6  N   UNL     1      41.983 -15.317   2.252  1.00  0.00    -0.128 NA
HETATM    7  C   UNL     1      41.806 -16.641   2.301  1.00  0.00     0.226 A 
HETATM    8  N   UNL     1      41.417 -17.230   1.122  1.00  0.00    -0.035 NA
HETATM    9  C   UNL     1      40.991 -14.956  -1.726  1.00  0.00     0.037 A 
HETATM   10  C   UNL     1      40.729 -15.096  -3.205  1.00  0.00     0.070 C 
HETATM   11  H   UNL     1      40.790 -17.004  -1.498  1.00  0.00     0.184 HD
ENDROOT
BRANCH   7  12
HETATM   12  S   UNL     1      42.044 -17.508   3.789  1.00  0.00    -0.083 SA
BRANCH  12  13
HETATM   13  C   UNL     1      43.799 -17.927   3.644  1.00  0.00     0.121 C 
BRANCH  13  14
HETATM   14  C   UNL     1      43.986 -19.397   3.348  1.00  0.00    -0.047 A 
HETATM   15  C   UNL     1      44.540 -20.253   4.312  1.00  0.00     0.031 A 
HETATM   16  C   UNL     1      44.736 -21.604   4.022  1.00  0.00     0.034 A 
HETATM   17 CL   UNL     1      45.410 -22.644   5.215  1.00  0.00    -0.084 Cl
HETATM   18  C   UNL     1      44.390 -22.117   2.773  1.00  0.00     0.024 A 
HETATM   19  C   UNL     1      43.844 -21.273   1.806  1.00  0.00     0.002 A 
HETATM   20  C   UNL     1      43.643 -19.922   2.092  1.00  0.00     0.008 A 
ENDBRANCH  13  14
ENDBRANCH  12  13
ENDBRANCH   7  12
BRANCH   2  21
HETATM   21  C   UNL     1      40.648 -12.818   1.163  1.00  0.00    -0.028 A 
HETATM   22  C   UNL     1      39.268 -13.084   1.230  1.00  0.00     0.011 A 
HETATM   23  C   UNL     1      38.418 -12.243   1.953  1.00  0.00     0.024 A 
HETATM   24  C   UNL     1      38.937 -11.131   2.612  1.00  0.00     0.034 A 
HETATM   25 CL   UNL     1      37.889 -10.099   3.503  1.00  0.00    -0.084 Cl
HETATM   26  C   UNL     1      40.299 -10.850   2.553  1.00  0.00     0.024 A 
HETATM   27  C   UNL     1      41.151 -11.688   1.830  1.00  0.00     0.011 A 
ENDBRANCH   2  21
BRANCH   1  28
HETATM   28  C   UNL     1      41.327 -12.468  -1.766  1.00  0.00     0.293 C 
HETATM   29  O   UNL     1      40.327 -11.839  -2.073  1.00  0.00    -0.259 OA
BRANCH  28  30
HETATM   30  O   UNL     1      42.609 -12.143  -2.059  1.00  0.00    -0.318 OA
BRANCH  30  31
HETATM   31  C   UNL     1      42.878 -10.740  -2.203  1.00  0.00     0.174 C 
HETATM   32  C   UNL     1      43.290 -10.133  -0.875  1.00  0.00     0.034 C 
ENDBRANCH  30  31
ENDBRANCH  28  30
ENDBRANCH   1  28
TORSDOF 7
ENDMDL
MODEL 3
REMARK VINA RESULT:      -8.1      3.047      4.730
REMARK  7 active torsions:
REMARK  status: ('A' for Active; 'I' for Inactive)
REMARK    1  A    between atoms: C_2  and  O_3 
REMARK    2  A    between atoms: O_3  and  C_4 
REMARK    3  A    between atoms: C_4  and  C_5 
REMARK    4  A    between atoms: C_6  and  C_7 
REMARK    5  A    between atoms: C_18  and  S_19 
REMARK    6  A    between atoms: S_19  and  C_20 
REMARK    7  A    between atoms: C_20  and  C_21 
ROOT
HETATM    1  C   UNL     1      41.060 -13.116   5.748  1.00  0.00     0.070 A 
HETATM    2  C   UNL     1      41.246 -14.582   5.386  1.00  0.00     0.203 A 
HETATM    3  N   UNL     1      42.496 -15.113   5.940  1.00  0.00    -0.082 N 
HETATM    4  C   UNL     1      43.409 -14.367   6.634  1.00  0.00     0.726 A 
HETATM    5  N   UNL     1      43.162 -13.061   6.853  1.00  0.00    -0.192 N 
HETATM    6  N   UNL     1      42.873 -16.402   5.864  1.00  0.00    -0.128 NA
HETATM    7  C   UNL     1      44.060 -16.354   6.478  1.00  0.00     0.226 A 
HETATM    8  N   UNL     1      44.415 -15.127   6.984  1.00  0.00    -0.035 NA
HETATM    9  C   UNL     1      41.989 -12.426   6.455  1.00  0.00     0.037 A 
HETATM   10  C   UNL     1      41.831 -10.997   6.911  1.00  0.00     0.070 C 
HETATM   11  H   UNL     1      43.829 -12.520   7.399  1.00  0.00     0.184 HD
ENDROOT
BRANCH   7  12
HETATM   12  S   UNL     1      45.058 -17.775   6.580  1.00  0.00    -0.083 SA
BRANCH  12  13
HETATM   13  C   UNL     1      43.855 -19.049   6.124  1.00  0.00     0.121 C 
BRANCH  13  14
HETATM   14  C   UNL     1      44.055 -19.500   4.695  1.00  0.00    -0.047 A 
HETATM   15  C   UNL     1      43.756 -18.640   3.627  1.00  0.00     0.031 A 
HETATM   16  C   UNL     1      43.917 -19.073   2.311  1.00  0.00     0.034 A 
HETATM   17 CL   UNL     1      43.553 -18.006   1.012  1.00  0.00    -0.084 Cl
HETATM   18  C   UNL     1      44.369 -20.363   2.040  1.00  0.00     0.024 A 
HETATM   19  C   UNL     1      44.663 -21.227   3.094  1.00  0.00     0.002 A 
HETATM   20  C   UNL     1      44.508 -20.799   4.413  1.00  0.00     0.008 A 
ENDBRANCH  13  14
ENDBRANCH  12  13
ENDBRANCH   7  12
BRANCH   2  21
HETATM   21  C   UNL     1      41.203 -14.828   3.877  1.00  0.00    -0.028 A 
HETATM   22  C   UNL     1      40.207 -15.627   3.286  1.00  0.00     0.011 A 
HETATM   23  C   UNL     1      40.190 -15.832   1.904  1.00  0.00     0.024 A 
HETATM   24  C   UNL     1      41.167 -15.245   1.103  1.00  0.00     0.034 A 
HETATM   25 CL   UNL     1      41.142 -15.498  -0.598  1.00  0.00    -0.084 Cl
HETATM   26  C   UNL     1      42.163 -14.455   1.671  1.00  0.00     0.024 A 
HETATM   27  C   UNL     1      42.183 -14.249   3.052  1.00  0.00     0.011 A 
ENDBRANCH   2  21
BRANCH   1  28
HETATM   28  C   UNL     1      39.772 -12.563   5.286  1.00  0.00     0.293 C 
HETATM   29  O   UNL     1      38.716 -12.774   5.861  1.00  0.00    -0.259 OA
BRANCH  28  30
HETATM   30  O   UNL     1      39.937 -11.903   4.113  1.00  0.00    -0.318 OA
BRANCH  30  31
HETATM   31  C   UNL     1      38.750 -11.730   3.324  1.00  0.00     0.174 C 
HETATM   32  C   UNL     1      38.940 -12.309   1.935  1.00  0.00     0.034 C 
ENDBRANCH  30  31
ENDBRANCH  28  30
ENDBRANCH   1  28
TORSDOF 7
ENDMDL
MODEL 4
REMARK VINA RESULT:      -8.1      2.463      4.003
REMARK  7 active torsions:
REMARK  status: ('A' for Active; 'I' for Inactive)
REMARK    1  A    between atoms: C_2  and  O_3 
REMARK    2  A    between atoms: O_3  and  C_4 
REMARK    3  A    between atoms: C_4  and  C_5 
REMARK    4  A    between atoms: C_6  and  C_7 
REMARK    5  A    between atoms: C_18  and  S_19 
REMARK    6  A    between atoms: S_19  and  C_20 
REMARK    7  A    between atoms: C_20  and  C_21 
ROOT
HETATM    1  C   UNL     1      40.615 -12.549   5.473  1.00  0.00     0.070 A 
HETATM    2  C   UNL     1      40.631 -13.954   4.889  1.00  0.00     0.203 A 
HETATM    3  N   UNL     1      41.824 -14.694   5.315  1.00  0.00    -0.082 N 
HETATM    4  C   UNL     1      42.826 -14.165   6.081  1.00  0.00     0.726 A 
HETATM    5  N   UNL     1      42.730 -12.889   6.501  1.00  0.00    -0.192 N 
HETATM    6  N   UNL     1      42.054 -15.989   5.034  1.00  0.00    -0.128 NA
HETATM    7  C   UNL     1      43.250 -16.164   5.607  1.00  0.00     0.226 A 
HETATM    8  N   UNL     1      43.748 -15.073   6.278  1.00  0.00    -0.035 NA
HETATM    9  C   UNL     1      41.627 -12.079   6.243  1.00  0.00     0.037 A 
HETATM   10  C   UNL     1      41.637 -10.727   6.912  1.00  0.00     0.070 C 
HETATM   11  H   UNL     1      43.462 -12.512   7.098  1.00  0.00     0.184 HD
ENDROOT
BRANCH   7  12
HETATM   12  S   UNL     1      44.085 -17.682   5.461  1.00  0.00    -0.083 SA
BRANCH  12  13
HETATM   13  C   UNL     1      43.912 -17.977   3.683  1.00  0.00     0.121 C 
BRANCH  13  14
HETATM   14  C   UNL     1      44.045 -19.447   3.359  1.00  0.00    -0.047 A 
HETATM   15  C   UNL     1      44.589 -20.337   4.298  1.00  0.00     0.031 A 
HETATM   16  C   UNL     1      44.735 -21.688   3.982  1.00  0.00     0.034 A 
HETATM   17 CL   UNL     1      45.397 -22.769   5.145  1.00  0.00    -0.084 Cl
HETATM   18  C   UNL     1      44.350 -22.169   2.732  1.00  0.00     0.024 A 
HETATM   19  C   UNL     1      43.813 -21.291   1.790  1.00  0.00     0.002 A 
HETATM   20  C   UNL     1      43.661 -19.939   2.102  1.00  0.00     0.008 A 
ENDBRANCH  13  14
ENDBRANCH  12  13
ENDBRANCH   7  12
BRANCH   2  21
HETATM   21  C   UNL     1      40.534 -13.961   3.364  1.00  0.00    -0.028 A 
HETATM   22  C   UNL     1      41.480 -13.299   2.559  1.00  0.00     0.011 A 
HETATM   23  C   UNL     1      41.368 -13.324   1.167  1.00  0.00     0.024 A 
HETATM   24  C   UNL     1      40.313 -14.008   0.567  1.00  0.00     0.034 A 
HETATM   25 CL   UNL     1      40.179 -14.039  -1.147  1.00  0.00    -0.084 Cl
HETATM   26  C   UNL     1      39.365 -14.665   1.347  1.00  0.00     0.024 A 
HETATM   27  C   UNL     1      39.474 -14.641   2.739  1.00  0.00     0.011 A 
ENDBRANCH   2  21
BRANCH   1  28
HETATM   28  C   UNL     1      39.388 -11.797   5.143  1.00  0.00     0.293 C 
HETATM   29  O   UNL     1      38.291 -12.095   5.585  1.00  0.00    -0.259 OA
BRANCH  28  30
HETATM   30  O   UNL     1      39.659 -10.835   4.228  1.00  0.00    -0.318 OA
BRANCH  30  31
HETATM   31  C   UNL     1      38.529 -10.343   3.491  1.00  0.00     0.174 C 
HETATM   32  C   UNL     1      38.283 -11.191   2.257  1.00  0.00     0.034 C 
ENDBRANCH  30  31
ENDBRANCH  28  30
ENDBRANCH   1  28
TORSDOF 7
ENDMDL
MODEL 5
REMARK VINA RESULT:      -7.8      4.475      8.271
REMARK  7 active torsions:
REMARK  status: ('A' for Active; 'I' for Inactive)
REMARK    1  A    between atoms: C_2  and  O_3 
REMARK    2  A    between atoms: O_3  and  C_4 
REMARK    3  A    between atoms: C_4  and  C_5 
REMARK    4  A    between atoms: C_6  and  C_7 
REMARK    5  A    between atoms: C_18  and  S_19 
REMARK    6  A    between atoms: S_19  and  C_20 
REMARK    7  A    between atoms: C_20  and  C_21 
ROOT
HETATM    1  C   UNL     1      41.659 -14.556   3.516  1.00  0.00     0.070 A 
HETATM    2  C   UNL     1      42.196 -14.926   2.141  1.00  0.00     0.203 A 
HETATM    3  N   UNL     1      41.234 -14.590   1.085  1.00  0.00    -0.082 N 
HETATM    4  C   UNL     1      39.988 -14.074   1.314  1.00  0.00     0.726 A 
HETATM    5  N   UNL     1      39.598 -13.833   2.580  1.00  0.00    -0.192 N 
HETATM    6  N   UNL     1      41.478 -14.714  -0.232  1.00  0.00    -0.128 NA
HETATM    7  C   UNL     1      40.309 -14.316  -0.744  1.00  0.00     0.226 A 
HETATM    8  N   UNL     1      39.375 -13.895   0.172  1.00  0.00    -0.035 NA
HETATM    9  C   UNL     1      40.421 -14.028   3.686  1.00  0.00     0.037 A 
HETATM   10  C   UNL     1      39.860 -13.571   5.009  1.00  0.00     0.070 C 
HETATM   11  H   UNL     1      38.683 -13.417   2.741  1.00  0.00     0.184 HD
ENDROOT
BRANCH   7  12
HETATM   12  S   UNL     1      40.034 -14.370  -2.460  1.00  0.00    -0.083 SA
BRANCH  12  13
HETATM   13  C   UNL     1      41.712 -14.066  -3.067  1.00  0.00     0.121 C 
BRANCH  13  14
HETATM   14  C   UNL     1      41.988 -12.585  -3.186  1.00  0.00    -0.047 A 
HETATM   15  C   UNL     1      42.784 -11.930  -2.234  1.00  0.00     0.031 A 
HETATM   16  C   UNL     1      43.012 -10.557  -2.334  1.00  0.00     0.034 A 
HETATM   17 CL   UNL     1      43.995  -9.768  -1.163  1.00  0.00    -0.084 Cl
HETATM   18  C   UNL     1      42.450  -9.820  -3.374  1.00  0.00     0.024 A 
HETATM   19  C   UNL     1      41.654 -10.460  -4.323  1.00  0.00     0.002 A 
HETATM   20  C   UNL     1      41.425 -11.834  -4.230  1.00  0.00     0.008 A 
ENDBRANCH  13  14
ENDBRANCH  12  13
ENDBRANCH   7  12
BRANCH   2  21
HETATM   21  C   UNL     1      42.585 -16.401   2.036  1.00  0.00    -0.028 A 
HETATM   22  C   UNL     1      41.629 -17.428   2.151  1.00  0.00     0.011 A 
HETATM   23  C   UNL     1      42.013 -18.767   2.048  1.00  0.00     0.024 A 
HETATM   24  C   UNL     1      43.350 -19.092   1.833  1.00  0.00     0.034 A 
HETATM   25 CL   UNL     1      43.818 -20.743   1.706  1.00  0.00    -0.084 Cl
HETATM   26  C   UNL     1      44.310 -18.091   1.722  1.00  0.00     0.024 A 
HETATM   27  C   UNL     1      43.930 -16.751   1.825  1.00  0.00     0.011 A 
ENDBRANCH   2  21
BRANCH   1  28
HETATM   28  C   UNL     1      42.630 -14.795   4.602  1.00  0.00     0.293 C 
HETATM   29  O   UNL     1      43.614 -14.095   4.775  1.00  0.00    -0.259 OA
BRANCH  28  30
HETATM   30  O   UNL     1      42.314 -15.929   5.272  1.00  0.00    -0.318 OA
BRANCH  30  31
HETATM   31  C   UNL     1      43.415 -16.614   5.887  1.00  0.00     0.174 C 
HETATM   32  C   UNL     1      43.485 -18.054   5.413  1.00  0.00     0.034 C 
ENDBRANCH  30  31
ENDBRANCH  28  30
ENDBRANCH   1  28
TORSDOF 7
ENDMDL
MODEL 6
REMARK VINA RESULT:      -7.8      3.901      7.744
REMARK  7 active torsions:
REMARK  status: ('A' for Active; 'I' for Inactive)
REMARK    1  A    between atoms: C_2  and  O_3 
REMARK    2  A    between atoms: O_3  and  C_4 
REMARK    3  A    between atoms: C_4  and  C_5 
REMARK    4  A    between atoms: C_6  and  C_7 
REMARK    5  A    between atoms: C_18  and  S_19 
REMARK    6  A    between atoms: S_19  and  C_20 
REMARK    7  A    between atoms: C_20  and  C_21 
ROOT
HETATM    1  C   UNL     1      41.286 -14.125   3.381  1.00  0.00     0.070 A 
HETATM    2  C   UNL     1      40.747 -14.228   4.801  1.00  0.00     0.203 A 
HETATM    3  N   UNL     1      40.672 -12.910   5.439  1.00  0.00    -0.082 N 
HETATM    4  C   UNL     1      41.097 -11.746   4.857  1.00  0.00     0.726 A 
HETATM    5  N   UNL     1      41.606 -11.782   3.611  1.00  0.00    -0.192 N 
HETATM    6  N   UNL     1      40.143 -12.684   6.655  1.00  0.00    -0.128 NA
HETATM    7  C   UNL     1      40.339 -11.367   6.775  1.00  0.00     0.226 A 
HETATM    8  N   UNL     1      40.904 -10.751   5.684  1.00  0.00    -0.035 NA
HETATM    9  C   UNL     1      41.676 -12.943   2.845  1.00  0.00     0.037 A 
HETATM   10  C   UNL     1      42.146 -12.762   1.423  1.00  0.00     0.070 C 
HETATM   11  H   UNL     1      41.888 -10.909   3.171  1.00  0.00     0.184 HD
ENDROOT
BRANCH   7  12
HETATM   12  S   UNL     1      39.914 -10.542   8.246  1.00  0.00    -0.083 SA
BRANCH  12  13
HETATM   13  C   UNL     1      41.456  -9.653   8.576  1.00  0.00     0.121 C 
BRANCH  13  14
HETATM   14  C   UNL     1      42.435 -10.521   9.333  1.00  0.00    -0.047 A 
HETATM   15  C   UNL     1      43.492 -11.154   8.662  1.00  0.00     0.031 A 
HETATM   16  C   UNL     1      44.375 -11.976   9.362  1.00  0.00     0.034 A 
HETATM   17 CL   UNL     1      45.670 -12.743   8.528  1.00  0.00    -0.084 Cl
HETATM   18  C   UNL     1      44.217 -12.183  10.731  1.00  0.00     0.024 A 
HETATM   19  C   UNL     1      43.166 -11.562  11.406  1.00  0.00     0.002 A 
HETATM   20  C   UNL     1      42.281 -10.736  10.712  1.00  0.00     0.008 A 
ENDBRANCH  13  14
ENDBRANCH  12  13
ENDBRANCH   7  12
BRANCH   2  21
HETATM   21  C   UNL     1      41.563 -15.181   5.674  1.00  0.00    -0.028 A 
HETATM   22  C   UNL     1      42.882 -14.882   6.063  1.00  0.00     0.011 A 
HETATM   23  C   UNL     1      43.604 -15.770   6.864  1.00  0.00     0.024 A 
HETATM   24  C   UNL     1      43.017 -16.962   7.282  1.00  0.00     0.034 A 
HETATM   25 CL   UNL     1      43.908 -18.052   8.271  1.00  0.00    -0.084 Cl
HETATM   26  C   UNL     1      41.715 -17.277   6.905  1.00  0.00     0.024 A 
HETATM   27  C   UNL     1      40.991 -16.392   6.103  1.00  0.00     0.011 A 
ENDBRANCH   2  21
BRANCH   1  28
HETATM   28  C   UNL     1      41.295 -15.418   2.669  1.00  0.00     0.293 C 
HETATM   29  O   UNL     1      40.286 -15.928   2.210  1.00  0.00    -0.259 OA
BRANCH  28  30
HETATM   30  O   UNL     1      42.535 -15.964   2.703  1.00  0.00    -0.318 OA
BRANCH  30  31
HETATM   31  C   UNL     1      42.582 -17.392   2.838  1.00  0.00     0.174 C 
HETATM   32  C   UNL     1      43.773 -17.814   3.678  1.00  0.00     0.034 C 
ENDBRANCH  30  31
ENDBRANCH  28  30
ENDBRANCH   1  28
TORSDOF 7
ENDMDL
MODEL 7
REMARK VINA RESULT:      -7.7      4.643      8.012
REMARK  7 active torsions:
REMARK  status: ('A' for Active; 'I' for Inactive)
REMARK    1  A    between atoms: C_2  and  O_3 
REMARK    2  A    between atoms: O_3  and  C_4 
REMARK    3  A    between atoms: C_4  and  C_5 
REMARK    4  A    between atoms: C_6  and  C_7 
REMARK    5  A    between atoms: C_18  and  S_19 
REMARK    6  A    between atoms: S_19  and  C_20 
REMARK    7  A    between atoms: C_20  and  C_21 
ROOT
HETATM    1  C   UNL     1      43.506 -18.713   4.210  1.00  0.00     0.070 A 
HETATM    2  C   UNL     1      42.475 -17.666   4.604  1.00  0.00     0.203 A 
HETATM    3  N   UNL     1      41.746 -17.168   3.432  1.00  0.00    -0.082 N 
HETATM    4  C   UNL     1      42.007 -17.546   2.144  1.00  0.00     0.726 A 
HETATM    5  N   UNL     1      42.981 -18.446   1.908  1.00  0.00    -0.192 N 
HETATM    6  N   UNL     1      40.711 -16.310   3.491  1.00  0.00    -0.128 NA
HETATM    7  C   UNL     1      40.434 -16.161   2.191  1.00  0.00     0.226 A 
HETATM    8  N   UNL     1      41.194 -16.919   1.333  1.00  0.00    -0.035 NA
HETATM    9  C   UNL     1      43.713 -19.066   2.917  1.00  0.00     0.037 A 
HETATM   10  C   UNL     1      44.663 -20.148   2.467  1.00  0.00     0.070 C 
HETATM   11  H   UNL     1      43.148 -18.748   0.950  1.00  0.00     0.184 HD
ENDROOT
BRANCH   7  12
HETATM   12  S   UNL     1      39.201 -15.049   1.674  1.00  0.00    -0.083 SA
BRANCH  12  13
HETATM   13  C   UNL     1      40.169 -13.975   0.585  1.00  0.00     0.121 C 
BRANCH  13  14
HETATM   14  C   UNL     1      39.973 -14.350  -0.865  1.00  0.00    -0.047 A 
HETATM   15  C   UNL     1      38.802 -13.982  -1.545  1.00  0.00     0.031 A 
HETATM   16  C   UNL     1      38.616 -14.356  -2.876  1.00  0.00     0.034 A 
HETATM   17 CL   UNL     1      37.177 -13.893  -3.699  1.00  0.00    -0.084 Cl
HETATM   18  C   UNL     1      39.584 -15.102  -3.545  1.00  0.00     0.024 A 
HETATM   19  C   UNL     1      40.749 -15.478  -2.876  1.00  0.00     0.002 A 
HETATM   20  C   UNL     1      40.943 -15.103  -1.546  1.00  0.00     0.008 A 
ENDBRANCH  13  14
ENDBRANCH  12  13
ENDBRANCH   7  12
BRANCH   2  21
HETATM   21  C   UNL     1      43.087 -16.493   5.370  1.00  0.00    -0.028 A 
HETATM   22  C   UNL     1      43.525 -15.328   4.712  1.00  0.00     0.011 A 
HETATM   23  C   UNL     1      44.079 -14.270   5.438  1.00  0.00     0.024 A 
HETATM   24  C   UNL     1      44.202 -14.367   6.822  1.00  0.00     0.034 A 
HETATM   25 CL   UNL     1      44.883 -13.062   7.712  1.00  0.00    -0.084 Cl
HETATM   26  C   UNL     1      43.779 -15.513   7.489  1.00  0.00     0.024 A 
HETATM   27  C   UNL     1      43.226 -16.572   6.766  1.00  0.00     0.011 A 
ENDBRANCH   2  21
BRANCH   1  28
HETATM   28  C   UNL     1      44.202 -19.307   5.367  1.00  0.00     0.293 C 
HETATM   29  O   UNL     1      45.337 -18.992   5.689  1.00  0.00    -0.259 OA
BRANCH  28  30
HETATM   30  O   UNL     1      43.447 -20.288   5.918  1.00  0.00    -0.318 OA
BRANCH  30  31
HETATM   31  C   UNL     1      44.172 -21.403   6.458  1.00  0.00     0.174 C 
HETATM   32  C   UNL     1      44.692 -22.295   5.346  1.00  0.00     0.034 C 
ENDBRANCH  30  31
ENDBRANCH  28  30
ENDBRANCH   1  28
TORSDOF 7
ENDMDL
MODEL 8
REMARK VINA RESULT:      -7.6      4.587      8.902
REMARK  7 active torsions:
REMARK  status: ('A' for Active; 'I' for Inactive)
REMARK    1  A    between atoms: C_2  and  O_3 
REMARK    2  A    between atoms: O_3  and  C_4 
REMARK    3  A    between atoms: C_4  and  C_5 
REMARK    4  A    between atoms: C_6  and  C_7 
REMARK    5  A    between atoms: C_18  and  S_19 
REMARK    6  A    between atoms: S_19  and  C_20 
REMARK    7  A    between atoms: C_20  and  C_21 
ROOT
HETATM    1  C   UNL     1      42.389 -16.816   4.901  1.00  0.00     0.070 A 
HETATM    2  C   UNL     1      43.041 -16.857   3.527  1.00  0.00     0.203 A 
HETATM    3  N   UNL     1      42.167 -16.272   2.505  1.00  0.00    -0.082 N 
HETATM    4  C   UNL     1      40.901 -15.811   2.745  1.00  0.00     0.726 A 
HETATM    5  N   UNL     1      40.406 -15.872   3.995  1.00  0.00    -0.192 N 
HETATM    6  N   UNL     1      42.521 -16.084   1.220  1.00  0.00    -0.128 NA
HETATM    7  C   UNL     1      41.395 -15.563   0.721  1.00  0.00     0.226 A 
HETATM    8  N   UNL     1      40.384 -15.361   1.631  1.00  0.00    -0.035 NA
HETATM    9  C   UNL     1      41.136 -16.331   5.088  1.00  0.00     0.037 A 
HETATM   10  C   UNL     1      40.463 -16.193   6.431  1.00  0.00     0.070 C 
HETATM   11  H   UNL     1      39.477 -15.496   4.174  1.00  0.00     0.184 HD
ENDROOT
BRANCH   7  12
HETATM   12  S   UNL     1      41.264 -15.209  -0.975  1.00  0.00    -0.083 SA
BRANCH  12  13
HETATM   13  C   UNL     1      40.419 -13.609  -0.907  1.00  0.00     0.121 C 
BRANCH  13  14
HETATM   14  C   UNL     1      41.339 -12.488  -1.331  1.00  0.00    -0.047 A 
HETATM   15  C   UNL     1      41.497 -12.170  -2.690  1.00  0.00     0.031 A 
HETATM   16  C   UNL     1      42.369 -11.153  -3.076  1.00  0.00     0.034 A 
HETATM   17 CL   UNL     1      42.549 -10.770  -4.743  1.00  0.00    -0.084 Cl
HETATM   18  C   UNL     1      43.098 -10.444  -2.122  1.00  0.00     0.024 A 
HETATM   19  C   UNL     1      42.953 -10.756  -0.771  1.00  0.00     0.002 A 
HETATM   20  C   UNL     1      42.079 -11.770  -0.378  1.00  0.00     0.008 A 
ENDBRANCH  13  14
ENDBRANCH  12  13
ENDBRANCH   7  12
BRANCH   2  21
HETATM   21  C   UNL     1      43.452 -18.270   3.110  1.00  0.00    -0.028 A 
HETATM   22  C   UNL     1      44.628 -18.871   3.593  1.00  0.00     0.011 A 
HETATM   23  C   UNL     1      44.977 -20.165   3.197  1.00  0.00     0.024 A 
HETATM   24  C   UNL     1      44.158 -20.866   2.316  1.00  0.00     0.034 A 
HETATM   25 CL   UNL     1      44.589 -22.460   1.832  1.00  0.00    -0.084 Cl
HETATM   26  C   UNL     1      42.992 -20.286   1.825  1.00  0.00     0.024 A 
HETATM   27  C   UNL     1      42.641 -18.993   2.217  1.00  0.00     0.011 A 
ENDBRANCH   2  21
BRANCH   1  28
HETATM   28  C   UNL     1      43.268 -17.315   5.977  1.00  0.00     0.293 C 
HETATM   29  O   UNL     1      44.262 -16.714   6.350  1.00  0.00    -0.259 OA
BRANCH  28  30
HETATM   30  O   UNL     1      42.864 -18.543   6.383  1.00  0.00    -0.318 OA
BRANCH  30  31
HETATM   31  C   UNL     1      43.830 -19.301   7.126  1.00  0.00     0.174 C 
HETATM   32  C   UNL     1      43.777 -20.767   6.738  1.00  0.00     0.034 C 
ENDBRANCH  30  31
ENDBRANCH  28  30
ENDBRANCH   1  28
TORSDOF 7
ENDMDL
MODEL 9
REMARK VINA RESULT:      -7.6      2.736      4.140
REMARK  7 active torsions:
REMARK  status: ('A' for Active; 'I' for Inactive)
REMARK    1  A    between atoms: C_2  and  O_3 
REMARK    2  A    between atoms: O_3  and  C_4 
REMARK    3  A    between atoms: C_4  and  C_5 
REMARK    4  A    between atoms: C_6  and  C_7 
REMARK    5  A    between atoms: C_18  and  S_19 
REMARK    6  A    between atoms: S_19  and  C_20 
REMARK    7  A    between atoms: C_20  and  C_21 
ROOT
HETATM    1  C   UNL     1      40.196 -12.021   3.055  1.00  0.00     0.070 A 
HETATM    2  C   UNL     1      40.042 -13.465   2.599  1.00  0.00     0.203 A 
HETATM    3  N   UNL     1      40.812 -14.378   3.451  1.00  0.00    -0.082 N 
HETATM    4  C   UNL     1      41.618 -13.976   4.480  1.00  0.00     0.726 A 
HETATM    5  N   UNL     1      41.718 -12.663   4.764  1.00  0.00    -0.192 N 
HETATM    6  N   UNL     1      40.786 -15.719   3.344  1.00  0.00    -0.128 NA
HETATM    7  C   UNL     1      41.653 -16.065   4.302  1.00  0.00     0.226 A 
HETATM    8  N   UNL     1      42.170 -15.024   5.035  1.00  0.00    -0.035 NA
HETATM    9  C   UNL     1      40.994 -11.678   4.096  1.00  0.00     0.037 A 
HETATM   10  C   UNL     1      41.131 -10.279   4.645  1.00  0.00     0.070 C 
HETATM   11  H   UNL     1      42.292 -12.373   5.552  1.00  0.00     0.184 HD
ENDROOT
BRANCH   7  12
HETATM   12  S   UNL     1      42.082 -17.732   4.543  1.00  0.00    -0.083 SA
BRANCH  12  13
HETATM   13  C   UNL     1      43.318 -17.941   3.236  1.00  0.00     0.121 C 
BRANCH  13  14
HETATM   14  C   UNL     1      43.688 -19.396   3.063  1.00  0.00    -0.047 A 
HETATM   15  C   UNL     1      44.266 -20.115   4.121  1.00  0.00     0.031 A 
HETATM   16  C   UNL     1      44.630 -21.450   3.945  1.00  0.00     0.034 A 
HETATM   17 CL   UNL     1      45.334 -22.321   5.251  1.00  0.00    -0.084 Cl
HETATM   18  C   UNL     1      44.431 -22.084   2.720  1.00  0.00     0.024 A 
HETATM   19  C   UNL     1      43.862 -21.377   1.661  1.00  0.00     0.002 A 
HETATM   20  C   UNL     1      43.492 -20.042   1.832  1.00  0.00     0.008 A 
ENDBRANCH  13  14
ENDBRANCH  12  13
ENDBRANCH   7  12
BRANCH   2  21
HETATM   21  C   UNL     1      40.437 -13.667   1.135  1.00  0.00    -0.028 A 
HETATM   22  C   UNL     1      41.715 -13.320   0.659  1.00  0.00     0.011 A 
HETATM   23  C   UNL     1      42.049 -13.518  -0.683  1.00  0.00     0.024 A 
HETATM   24  C   UNL     1      41.111 -14.060  -1.559  1.00  0.00     0.034 A 
HETATM   25 CL   UNL     1      41.527 -14.304  -3.210  1.00  0.00    -0.084 Cl
HETATM   26  C   UNL     1      39.841 -14.404  -1.107  1.00  0.00     0.024 A 
HETATM   27  C   UNL     1      39.503 -14.207   0.234  1.00  0.00     0.011 A 
ENDBRANCH   2  21
BRANCH   1  28
HETATM   28  C   UNL     1      39.368 -11.076   2.281  1.00  0.00     0.293 C 
HETATM   29  O   UNL     1      39.839 -10.294   1.471  1.00  0.00    -0.259 OA
BRANCH  28  30
HETATM   30  O   UNL     1      38.075 -11.148   2.680  1.00  0.00    -0.318 OA
BRANCH  30  31
HETATM   31  C   UNL     1      37.102 -10.721   1.715  1.00  0.00     0.174 C 
HETATM   32  C   UNL     1      36.772 -11.845   0.751  1.00  0.00     0.034 C 
ENDBRANCH  30  31
ENDBRANCH  28  30
ENDBRANCH   1  28
TORSDOF 7
ENDMDL
MODEL 10
REMARK VINA RESULT:      -7.5      4.533      7.628
REMARK  7 active torsions:
REMARK  status: ('A' for Active; 'I' for Inactive)
REMARK    1  A    between atoms: C_2  and  O_3 
REMARK    2  A    between atoms: O_3  and  C_4 
REMARK    3  A    between atoms: C_4  and  C_5 
REMARK    4  A    between atoms: C_6  and  C_7 
REMARK    5  A    between atoms: C_18  and  S_19 
REMARK    6  A    between atoms: S_19  and  C_20 
REMARK    7  A    between atoms: C_20  and  C_21 
ROOT
HETATM    1  C   UNL     1      42.152 -17.020   3.040  1.00  0.00     0.070 A 
HETATM    2  C   UNL     1      41.028 -16.006   2.885  1.00  0.00     0.203 A 
HETATM    3  N   UNL     1      40.937 -15.518   1.504  1.00  0.00    -0.082 N 
HETATM    4  C   UNL     1      41.796 -15.877   0.502  1.00  0.00     0.726 A 
HETATM    5  N   UNL     1      42.789 -16.747   0.767  1.00  0.00    -0.192 N 
HETATM    6  N   UNL     1      39.976 -14.691   1.053  1.00  0.00    -0.128 NA
HETATM    7  C   UNL     1      40.353 -14.538  -0.221  1.00  0.00     0.226 A 
HETATM    8  N   UNL     1      41.454 -15.266  -0.603  1.00  0.00    -0.035 NA
HETATM    9  C   UNL     1      42.965 -17.355   2.007  1.00  0.00     0.037 A 
HETATM   10  C   UNL     1      44.046 -18.405   2.075  1.00  0.00     0.070 C 
HETATM   11  H   UNL     1      43.404 -17.036   0.009  1.00  0.00     0.184 HD
ENDROOT
BRANCH   7  12
HETATM   12  S   UNL     1      39.487 -13.457  -1.272  1.00  0.00    -0.083 SA
BRANCH  12  13
HETATM   13  C   UNL     1      40.487 -13.597  -2.775  1.00  0.00     0.121 C 
BRANCH  13  14
HETATM   14  C   UNL     1      41.237 -12.315  -3.052  1.00  0.00    -0.047 A 
HETATM   15  C   UNL     1      42.139 -11.799  -2.108  1.00  0.00     0.031 A 
HETATM   16  C   UNL     1      42.807 -10.600  -2.359  1.00  0.00     0.034 A 
HETATM   17 CL   UNL     1      43.913  -9.981  -1.196  1.00  0.00    -0.084 Cl
HETATM   18  C   UNL     1      42.585  -9.899  -3.542  1.00  0.00     0.024 A 
HETATM   19  C   UNL     1      41.687 -10.401  -4.484  1.00  0.00     0.002 A 
HETATM   20  C   UNL     1      41.018 -11.601  -4.241  1.00  0.00     0.008 A 
ENDBRANCH  13  14
ENDBRANCH  12  13
ENDBRANCH   7  12
BRANCH   2  21
HETATM   21  C   UNL     1      41.163 -14.822   3.844  1.00  0.00    -0.028 A 
HETATM   22  C   UNL     1      40.259 -14.622   4.903  1.00  0.00     0.011 A 
HETATM   23  C   UNL     1      40.409 -13.533   5.766  1.00  0.00     0.024 A 
HETATM   24  C   UNL     1      41.459 -12.637   5.578  1.00  0.00     0.034 A 
HETATM   25 CL   UNL     1      41.641 -11.299   6.643  1.00  0.00    -0.084 Cl
HETATM   26  C   UNL     1      42.360 -12.817   4.533  1.00  0.00     0.024 A 
HETATM   27  C   UNL     1      42.213 -13.904   3.668  1.00  0.00     0.011 A 
ENDBRANCH   2  21
BRANCH   1  28
HETATM   28  C   UNL     1      42.225 -17.604   4.393  1.00  0.00     0.293 C 
HETATM   29  O   UNL     1      41.341 -18.304   4.860  1.00  0.00    -0.259 OA
BRANCH  28  30
HETATM   30  O   UNL     1      43.334 -17.164   5.036  1.00  0.00    -0.318 OA
BRANCH  30  31
HETATM   31  C   UNL     1      43.137 -16.729   6.389  1.00  0.00     0.174 C 
HETATM   32  C   UNL     1      43.925 -15.462   6.667  1.00  0.00     0.034 C 
ENDBRANCH  30  31
ENDBRANCH  28  30
ENDBRANCH   1  28
TORSDOF 7
ENDMDL
