MODEL 1
REMARK VINA RESULT:      -8.0      0.000      0.000
REMARK  3 active torsions:
REMARK  status: ('A' for Active; 'I' for Inactive)
REMARK    1  A    between atoms: C_4  and  N_5 
REMARK       I    between atoms: N_5  and  C_6 
REMARK    2  A    between atoms: C_6  and  C_7 
REMARK    3  A    between atoms: C_7  and  C_8 
ROOT
HETATM    1  C   UNL     1      42.003 -17.696   5.259  1.00  0.00     0.286 C 
HETATM    2  N   UNL     1      42.853 -16.864   4.304  1.00  0.00    -0.056 N 
HETATM    3  H   UNL     1      43.420 -16.241   4.919  1.00  0.00     0.278 HD
HETATM    4  H   UNL     1      43.529 -17.449   3.800  1.00  0.00     0.278 HD
HETATM    5  C   UNL     1      42.077 -15.984   3.363  1.00  0.00     0.209 C 
HETATM    6  C   UNL     1      41.074 -15.121   4.168  1.00  0.00     0.115 C 
HETATM    7  N   UNL     1      40.289 -15.900   5.125  1.00  0.00    -0.353 N 
HETATM    8  C   UNL     1      40.832 -16.910   5.883  1.00  0.00     0.249 C 
HETATM    9  O   UNL     1      40.312 -17.223   6.948  1.00  0.00    -0.271 OA
HETATM   10  C   UNL     1      41.415 -16.838   2.279  1.00  0.00     0.035 C 
HETATM   11  C   UNL     1      40.544 -15.981   1.364  1.00  0.00     0.002 C 
HETATM   12  C   UNL     1      39.505 -15.198   2.162  1.00  0.00     0.002 C 
HETATM   13  C   UNL     1      40.158 -14.324   3.232  1.00  0.00     0.027 C 
HETATM   14  H   UNL     1      39.542 -15.416   5.621  1.00  0.00     0.163 HD
ENDROOT
BRANCH   1  15
HETATM   15  C   UNL     1      42.860 -18.376   6.338  1.00  0.00     0.146 C 
BRANCH  15  16
HETATM   16  C   UNL     1      44.329 -18.142   6.109  1.00  0.00     0.224 C 
HETATM   17  N   UNL     1      45.093 -18.947   5.329  1.00  0.00    -0.327 N 
HETATM   18  H   UNL     1      46.056 -18.622   5.300  1.00  0.00     0.169 HD
HETATM   19  O   UNL     1      44.846 -17.122   6.591  1.00  0.00    -0.273 OA
BRANCH  17  20
HETATM   20  C   UNL     1      44.849 -20.105   4.561  1.00  0.00     0.034 A 
HETATM   21  C   UNL     1      44.942 -21.424   5.006  1.00  0.00     0.029 A 
HETATM   22  C   UNL     1      44.678 -22.491   4.137  1.00  0.00     0.002 A 
HETATM   23  C   UNL     1      44.306 -22.254   2.818  1.00  0.00     0.000 A 
HETATM   24  C   UNL     1      44.195 -20.947   2.363  1.00  0.00     0.002 A 
HETATM   25  C   UNL     1      44.467 -19.883   3.228  1.00  0.00     0.029 A 
ENDBRANCH  17  20
ENDBRANCH  15  16
ENDBRANCH   1  15
TORSDOF 3
ENDMDL
MODEL 2
REMARK VINA RESULT:      -7.8      1.649      2.088
REMARK  3 active torsions:
REMARK  status: ('A' for Active; 'I' for Inactive)
REMARK    1  A    between atoms: C_4  and  N_5 
REMARK       I    between atoms: N_5  and  C_6 
REMARK    2  A    between atoms: C_6  and  C_7 
REMARK    3  A    between atoms: C_7  and  C_8 
ROOT
HETATM    1  C   UNL     1      42.456 -16.984   5.383  1.00  0.00     0.286 C 
HETATM    2  N   UNL     1      43.683 -16.088   5.252  1.00  0.00    -0.056 N 
HETATM    3  H   UNL     1      44.100 -16.057   6.208  1.00  0.00     0.278 HD
HETATM    4  H   UNL     1      44.396 -16.515   4.650  1.00  0.00     0.278 HD
HETATM    5  C   UNL     1      43.395 -14.670   4.840  1.00  0.00     0.209 C 
HETATM    6  C   UNL     1      42.318 -14.067   5.776  1.00  0.00     0.115 C 
HETATM    7  N   UNL     1      41.159 -14.941   5.952  1.00  0.00    -0.353 N 
HETATM    8  C   UNL     1      41.271 -16.304   6.097  1.00  0.00     0.249 C 
HETATM    9  O   UNL     1      40.391 -16.932   6.674  1.00  0.00    -0.271 OA
HETATM   10  C   UNL     1      43.010 -14.625   3.360  1.00  0.00     0.035 C 
HETATM   11  C   UNL     1      42.620 -13.211   2.938  1.00  0.00     0.002 C 
HETATM   12  C   UNL     1      41.501 -12.660   3.816  1.00  0.00     0.002 C 
HETATM   13  C   UNL     1      41.885 -12.677   5.295  1.00  0.00     0.027 C 
HETATM   14  H   UNL     1      40.368 -14.570   6.477  1.00  0.00     0.163 HD
ENDROOT
BRANCH   1  15
HETATM   15  C   UNL     1      42.805 -18.332   6.033  1.00  0.00     0.146 C 
BRANCH  15  16
HETATM   16  C   UNL     1      44.291 -18.561   6.075  1.00  0.00     0.224 C 
HETATM   17  N   UNL     1      44.947 -19.327   5.166  1.00  0.00    -0.327 N 
HETATM   18  H   UNL     1      45.944 -19.357   5.364  1.00  0.00     0.169 HD
HETATM   19  O   UNL     1      44.957 -17.958   6.931  1.00  0.00    -0.273 OA
BRANCH  17  20
HETATM   20  C   UNL     1      44.559 -20.067   4.030  1.00  0.00     0.034 A 
HETATM   21  C   UNL     1      43.986 -19.553   2.868  1.00  0.00     0.029 A 
HETATM   22  C   UNL     1      43.639 -20.401   1.807  1.00  0.00     0.002 A 
HETATM   23  C   UNL     1      43.874 -21.770   1.889  1.00  0.00     0.000 A 
HETATM   24  C   UNL     1      44.457 -22.295   3.035  1.00  0.00     0.002 A 
HETATM   25  C   UNL     1      44.794 -21.451   4.096  1.00  0.00     0.029 A 
ENDBRANCH  17  20
ENDBRANCH  15  16
ENDBRANCH   1  15
TORSDOF 3
ENDMDL
MODEL 3
REMARK VINA RESULT:      -7.8      1.965      2.874
REMARK  3 active torsions:
REMARK  status: ('A' for Active; 'I' for Inactive)
REMARK    1  A    between atoms: C_4  and  N_5 
REMARK       I    between atoms: N_5  and  C_6 
REMARK    2  A    between atoms: C_6  and  C_7 
REMARK    3  A    between atoms: C_7  and  C_8 
ROOT
HETATM    1  C   UNL     1      41.438 -16.580   3.190  1.00  0.00     0.286 C 
HETATM    2  N   UNL     1      40.500 -15.724   4.034  1.00  0.00    -0.056 N 
HETATM    3  H   UNL     1      39.774 -16.385   4.387  1.00  0.00     0.278 HD
HETATM    4  H   UNL     1      40.975 -15.359   4.867  1.00  0.00     0.278 HD
HETATM    5  C   UNL     1      39.787 -14.631   3.285  1.00  0.00     0.209 C 
HETATM    6  C   UNL     1      39.085 -15.229   2.040  1.00  0.00     0.115 C 
HETATM    7  N   UNL     1      39.960 -16.094   1.250  1.00  0.00    -0.353 N 
HETATM    8  C   UNL     1      40.845 -16.977   1.823  1.00  0.00     0.249 C 
HETATM    9  O   UNL     1      41.213 -17.966   1.199  1.00  0.00    -0.271 OA
HETATM   10  C   UNL     1      40.768 -13.505   2.950  1.00  0.00     0.035 C 
HETATM   11  C   UNL     1      40.094 -12.425   2.108  1.00  0.00     0.002 C 
HETATM   12  C   UNL     1      39.477 -13.015   0.842  1.00  0.00     0.002 C 
HETATM   13  C   UNL     1      38.478 -14.125   1.167  1.00  0.00     0.027 C 
HETATM   14  H   UNL     1      39.596 -16.446   0.366  1.00  0.00     0.163 HD
ENDROOT
BRANCH   1  15
HETATM   15  C   UNL     1      41.936 -17.811   3.964  1.00  0.00     0.146 C 
BRANCH  15  16
HETATM   16  C   UNL     1      43.292 -17.573   4.572  1.00  0.00     0.224 C 
HETATM   17  N   UNL     1      44.269 -18.514   4.588  1.00  0.00    -0.327 N 
HETATM   18  H   UNL     1      45.109 -18.162   5.041  1.00  0.00     0.169 HD
HETATM   19  O   UNL     1      43.554 -16.440   5.005  1.00  0.00    -0.273 OA
BRANCH  17  20
HETATM   20  C   UNL     1      44.376 -19.840   4.120  1.00  0.00     0.034 A 
HETATM   21  C   UNL     1      44.239 -20.262   2.799  1.00  0.00     0.029 A 
HETATM   22  C   UNL     1      44.363 -21.618   2.464  1.00  0.00     0.002 A 
HETATM   23  C   UNL     1      44.639 -22.566   3.444  1.00  0.00     0.000 A 
HETATM   24  C   UNL     1      44.793 -22.160   4.763  1.00  0.00     0.002 A 
HETATM   25  C   UNL     1      44.660 -20.809   5.098  1.00  0.00     0.029 A 
ENDBRANCH  17  20
ENDBRANCH  15  16
ENDBRANCH   1  15
TORSDOF 3
ENDMDL
MODEL 4
REMARK VINA RESULT:      -7.6      1.648      2.190
REMARK  3 active torsions:
REMARK  status: ('A' for Active; 'I' for Inactive)
REMARK    1  A    between atoms: C_4  and  N_5 
REMARK       I    between atoms: N_5  and  C_6 
REMARK    2  A    between atoms: C_6  and  C_7 
REMARK    3  A    between atoms: C_7  and  C_8 
ROOT
HETATM    1  C   UNL     1      41.610 -17.113   3.346  1.00  0.00     0.286 C 
HETATM    2  N   UNL     1      42.735 -17.017   2.321  1.00  0.00    -0.056 N 
HETATM    3  H   UNL     1      43.567 -16.693   2.860  1.00  0.00     0.278 HD
HETATM    4  H   UNL     1      42.984 -17.942   1.952  1.00  0.00     0.278 HD
HETATM    5  C   UNL     1      42.504 -16.027   1.212  1.00  0.00     0.209 C 
HETATM    6  C   UNL     1      42.133 -14.650   1.816  1.00  0.00     0.115 C 
HETATM    7  N   UNL     1      41.092 -14.735   2.838  1.00  0.00    -0.353 N 
HETATM    8  C   UNL     1      41.050 -15.742   3.774  1.00  0.00     0.249 C 
HETATM    9  O   UNL     1      40.483 -15.559   4.845  1.00  0.00    -0.271 OA
HETATM   10  C   UNL     1      41.453 -16.570   0.240  1.00  0.00     0.035 C 
HETATM   11  C   UNL     1      41.130 -15.545  -0.844  1.00  0.00     0.002 C 
HETATM   12  C   UNL     1      40.687 -14.217  -0.236  1.00  0.00     0.002 C 
HETATM   13  C   UNL     1      41.740 -13.654   0.718  1.00  0.00     0.027 C 
HETATM   14  H   UNL     1      40.729 -13.859   3.211  1.00  0.00     0.163 HD
ENDROOT
BRANCH   1  15
HETATM   15  C   UNL     1      42.021 -17.957   4.563  1.00  0.00     0.146 C 
BRANCH  15  16
HETATM   16  C   UNL     1      43.455 -17.714   4.948  1.00  0.00     0.224 C 
HETATM   17  N   UNL     1      44.435 -18.634   4.763  1.00  0.00    -0.327 N 
HETATM   18  H   UNL     1      45.333 -18.281   5.086  1.00  0.00     0.169 HD
HETATM   19  O   UNL     1      43.768 -16.594   5.381  1.00  0.00    -0.273 OA
BRANCH  17  20
HETATM   20  C   UNL     1      44.483 -19.937   4.228  1.00  0.00     0.034 A 
HETATM   21  C   UNL     1      44.339 -20.283   2.885  1.00  0.00     0.029 A 
HETATM   22  C   UNL     1      44.401 -21.624   2.481  1.00  0.00     0.002 A 
HETATM   23  C   UNL     1      44.622 -22.633   3.412  1.00  0.00     0.000 A 
HETATM   24  C   UNL     1      44.781 -22.305   4.751  1.00  0.00     0.002 A 
HETATM   25  C   UNL     1      44.710 -20.969   5.155  1.00  0.00     0.029 A 
ENDBRANCH  17  20
ENDBRANCH  15  16
ENDBRANCH   1  15
TORSDOF 3
ENDMDL
MODEL 5
REMARK VINA RESULT:      -7.5      2.301      3.209
REMARK  3 active torsions:
REMARK  status: ('A' for Active; 'I' for Inactive)
REMARK    1  A    between atoms: C_4  and  N_5 
REMARK       I    between atoms: N_5  and  C_6 
REMARK    2  A    between atoms: C_6  and  C_7 
REMARK    3  A    between atoms: C_7  and  C_8 
ROOT
HETATM    1  C   UNL     1      42.038 -16.863   3.116  1.00  0.00     0.286 C 
HETATM    2  N   UNL     1      43.137 -15.881   2.726  1.00  0.00    -0.056 N 
HETATM    3  H   UNL     1      44.025 -16.423   2.804  1.00  0.00     0.278 HD
HETATM    4  H   UNL     1      43.062 -15.610   1.738  1.00  0.00     0.278 HD
HETATM    5  C   UNL     1      43.263 -14.678   3.619  1.00  0.00     0.209 C 
HETATM    6  C   UNL     1      43.375 -15.136   5.094  1.00  0.00     0.115 C 
HETATM    7  N   UNL     1      42.358 -16.118   5.467  1.00  0.00    -0.353 N 
HETATM    8  C   UNL     1      41.970 -17.140   4.632  1.00  0.00     0.249 C 
HETATM    9  O   UNL     1      41.490 -18.165   5.101  1.00  0.00    -0.271 OA
HETATM   10  C   UNL     1      42.099 -13.717   3.366  1.00  0.00     0.035 C 
HETATM   11  C   UNL     1      42.149 -12.531   4.325  1.00  0.00     0.002 C 
HETATM   12  C   UNL     1      42.176 -12.995   5.779  1.00  0.00     0.002 C 
HETATM   13  C   UNL     1      43.350 -13.937   6.048  1.00  0.00     0.027 C 
HETATM   14  H   UNL     1      42.310 -16.394   6.446  1.00  0.00     0.163 HD
ENDROOT
BRANCH   1  15
HETATM   15  C   UNL     1      42.129 -18.169   2.311  1.00  0.00     0.146 C 
BRANCH  15  16
HETATM   16  C   UNL     1      43.457 -18.300   1.614  1.00  0.00     0.224 C 
HETATM   17  N   UNL     1      44.406 -19.190   1.996  1.00  0.00    -0.327 N 
HETATM   18  H   UNL     1      45.229 -19.126   1.401  1.00  0.00     0.169 HD
HETATM   19  O   UNL     1      43.658 -17.619   0.597  1.00  0.00    -0.273 OA
BRANCH  17  20
HETATM   20  C   UNL     1      44.499 -20.168   3.008  1.00  0.00     0.034 A 
HETATM   21  C   UNL     1      44.588 -19.930   4.379  1.00  0.00     0.029 A 
HETATM   22  C   UNL     1      44.682 -20.995   5.285  1.00  0.00     0.002 A 
HETATM   23  C   UNL     1      44.674 -22.311   4.833  1.00  0.00     0.000 A 
HETATM   24  C   UNL     1      44.572 -22.566   3.472  1.00  0.00     0.002 A 
HETATM   25  C   UNL     1      44.487 -21.503   2.568  1.00  0.00     0.029 A 
ENDBRANCH  17  20
ENDBRANCH  15  16
ENDBRANCH   1  15
TORSDOF 3
ENDMDL
MODEL 6
REMARK VINA RESULT:      -7.3      2.363      3.235
REMARK  3 active torsions:
REMARK  status: ('A' for Active; 'I' for Inactive)
REMARK    1  A    between atoms: C_4  and  N_5 
REMARK       I    between atoms: N_5  and  C_6 
REMARK    2  A    between atoms: C_6  and  C_7 
REMARK    3  A    between atoms: C_7  and  C_8 
ROOT
HETATM    1  C   UNL     1      41.834 -16.357   3.553  1.00  0.00     0.286 C 
HETATM    2  N   UNL     1      41.998 -16.272   5.067  1.00  0.00    -0.056 N 
HETATM    3  H   UNL     1      41.412 -17.047   5.447  1.00  0.00     0.278 HD
HETATM    4  H   UNL     1      42.961 -16.484   5.352  1.00  0.00     0.278 HD
HETATM    5  C   UNL     1      41.510 -14.992   5.690  1.00  0.00     0.209 C 
HETATM    6  C   UNL     1      40.056 -14.716   5.235  1.00  0.00     0.115 C 
HETATM    7  N   UNL     1      39.874 -14.846   3.790  1.00  0.00    -0.353 N 
HETATM    8  C   UNL     1      40.470 -15.842   3.053  1.00  0.00     0.249 C 
HETATM    9  O   UNL     1      39.972 -16.199   1.991  1.00  0.00    -0.271 OA
HETATM   10  C   UNL     1      42.478 -13.853   5.365  1.00  0.00     0.035 C 
HETATM   11  C   UNL     1      41.959 -12.523   5.904  1.00  0.00     0.002 C 
HETATM   12  C   UNL     1      40.557 -12.223   5.382  1.00  0.00     0.002 C 
HETATM   13  C   UNL     1      39.576 -13.344   5.723  1.00  0.00     0.027 C 
HETATM   14  H   UNL     1      38.967 -14.585   3.406  1.00  0.00     0.163 HD
ENDROOT
BRANCH   1  15
HETATM   15  C   UNL     1      42.128 -17.771   3.029  1.00  0.00     0.146 C 
BRANCH  15  16
HETATM   16  C   UNL     1      43.342 -17.793   2.139  1.00  0.00     0.224 C 
HETATM   17  N   UNL     1      44.272 -18.779   2.183  1.00  0.00    -0.327 N 
HETATM   18  H   UNL     1      45.012 -18.614   1.506  1.00  0.00     0.169 HD
HETATM   19  O   UNL     1      43.453 -16.912   1.273  1.00  0.00    -0.273 OA
BRANCH  17  20
HETATM   20  C   UNL     1      44.431 -19.959   2.940  1.00  0.00     0.034 A 
HETATM   21  C   UNL     1      44.719 -20.032   4.302  1.00  0.00     0.029 A 
HETATM   22  C   UNL     1      44.860 -21.274   4.937  1.00  0.00     0.002 A 
HETATM   23  C   UNL     1      44.701 -22.456   4.221  1.00  0.00     0.000 A 
HETATM   24  C   UNL     1      44.400 -22.400   2.867  1.00  0.00     0.002 A 
HETATM   25  C   UNL     1      44.269 -21.162   2.232  1.00  0.00     0.029 A 
ENDBRANCH  17  20
ENDBRANCH  15  16
ENDBRANCH   1  15
TORSDOF 3
ENDMDL
MODEL 7
REMARK VINA RESULT:      -7.3      3.690      5.092
REMARK  3 active torsions:
REMARK  status: ('A' for Active; 'I' for Inactive)
REMARK    1  A    between atoms: C_4  and  N_5 
REMARK       I    between atoms: N_5  and  C_6 
REMARK    2  A    between atoms: C_6  and  C_7 
REMARK    3  A    between atoms: C_7  and  C_8 
ROOT
HETATM    1  C   UNL     1      40.583 -15.021   0.984  1.00  0.00     0.286 C 
HETATM    2  N   UNL     1      41.527 -14.379  -0.027  1.00  0.00    -0.056 N 
HETATM    3  H   UNL     1      41.677 -13.407   0.321  1.00  0.00     0.278 HD
HETATM    4  H   UNL     1      42.451 -14.827  -0.012  1.00  0.00     0.278 HD
HETATM    5  C   UNL     1      40.988 -14.278  -1.428  1.00  0.00     0.209 C 
HETATM    6  C   UNL     1      39.598 -13.596  -1.400  1.00  0.00     0.115 C 
HETATM    7  N   UNL     1      38.700 -14.168  -0.398  1.00  0.00    -0.353 N 
HETATM    8  C   UNL     1      39.125 -14.535   0.857  1.00  0.00     0.249 C 
HETATM    9  O   UNL     1      38.327 -14.574   1.787  1.00  0.00    -0.271 OA
HETATM   10  C   UNL     1      40.976 -15.661  -2.082  1.00  0.00     0.035 C 
HETATM   11  C   UNL     1      40.345 -15.604  -3.471  1.00  0.00     0.002 C 
HETATM   12  C   UNL     1      38.943 -15.005  -3.418  1.00  0.00     0.002 C 
HETATM   13  C   UNL     1      38.947 -13.613  -2.788  1.00  0.00     0.027 C 
HETATM   14  H   UNL     1      37.737 -13.835  -0.387  1.00  0.00     0.163 HD
ENDROOT
BRANCH   1  15
HETATM   15  C   UNL     1      41.102 -14.870   2.422  1.00  0.00     0.146 C 
BRANCH  15  16
HETATM   16  C   UNL     1      42.556 -14.482   2.450  1.00  0.00     0.224 C 
HETATM   17  N   UNL     1      43.562 -15.390   2.522  1.00  0.00    -0.327 N 
HETATM   18  H   UNL     1      44.469 -14.931   2.528  1.00  0.00     0.169 HD
HETATM   19  O   UNL     1      42.849 -13.283   2.321  1.00  0.00    -0.273 OA
BRANCH  17  20
HETATM   20  C   UNL     1      43.624 -16.798   2.581  1.00  0.00     0.034 A 
HETATM   21  C   UNL     1      43.708 -17.665   1.493  1.00  0.00     0.029 A 
HETATM   22  C   UNL     1      43.757 -19.053   1.687  1.00  0.00     0.002 A 
HETATM   23  C   UNL     1      43.737 -19.588   2.971  1.00  0.00     0.000 A 
HETATM   24  C   UNL     1      43.668 -18.737   4.066  1.00  0.00     0.002 A 
HETATM   25  C   UNL     1      43.609 -17.354   3.871  1.00  0.00     0.029 A 
ENDBRANCH  17  20
ENDBRANCH  15  16
ENDBRANCH   1  15
TORSDOF 3
ENDMDL
MODEL 8
REMARK VINA RESULT:      -7.2      2.161      5.667
REMARK  3 active torsions:
REMARK  status: ('A' for Active; 'I' for Inactive)
REMARK    1  A    between atoms: C_4  and  N_5 
REMARK       I    between atoms: N_5  and  C_6 
REMARK    2  A    between atoms: C_6  and  C_7 
REMARK    3  A    between atoms: C_7  and  C_8 
ROOT
HETATM    1  C   UNL     1      42.514 -18.066   5.898  1.00  0.00     0.286 C 
HETATM    2  N   UNL     1      44.035 -18.162   5.842  1.00  0.00    -0.056 N 
HETATM    3  H   UNL     1      44.364 -17.181   5.710  1.00  0.00     0.278 HD
HETATM    4  H   UNL     1      44.423 -18.468   6.742  1.00  0.00     0.278 HD
HETATM    5  C   UNL     1      44.581 -18.978   4.703  1.00  0.00     0.209 C 
HETATM    6  C   UNL     1      43.969 -18.481   3.369  1.00  0.00     0.115 C 
HETATM    7  N   UNL     1      42.516 -18.334   3.426  1.00  0.00    -0.353 N 
HETATM    8  C   UNL     1      41.863 -17.821   4.522  1.00  0.00     0.249 C 
HETATM    9  O   UNL     1      40.761 -17.300   4.389  1.00  0.00    -0.271 OA
HETATM   10  C   UNL     1      44.340 -20.467   4.966  1.00  0.00     0.035 C 
HETATM   11  C   UNL     1      44.799 -21.313   3.782  1.00  0.00     0.002 C 
HETATM   12  C   UNL     1      44.127 -20.865   2.487  1.00  0.00     0.002 C 
HETATM   13  C   UNL     1      44.381 -19.386   2.203  1.00  0.00     0.027 C 
HETATM   14  H   UNL     1      42.034 -18.103   2.559  1.00  0.00     0.163 HD
ENDROOT
BRANCH   1  15
HETATM   15  C   UNL     1      42.047 -17.030   6.933  1.00  0.00     0.146 C 
BRANCH  15  16
HETATM   16  C   UNL     1      43.191 -16.191   7.433  1.00  0.00     0.224 C 
HETATM   17  N   UNL     1      43.563 -15.024   6.849  1.00  0.00    -0.327 N 
HETATM   18  H   UNL     1      44.353 -14.607   7.333  1.00  0.00     0.169 HD
HETATM   19  O   UNL     1      43.768 -16.541   8.474  1.00  0.00    -0.273 OA
BRANCH  17  20
HETATM   20  C   UNL     1      43.099 -14.276   5.746  1.00  0.00     0.034 A 
HETATM   21  C   UNL     1      42.164 -13.243   5.785  1.00  0.00     0.029 A 
HETATM   22  C   UNL     1      41.782 -12.580   4.611  1.00  0.00     0.002 A 
HETATM   23  C   UNL     1      42.339 -12.932   3.386  1.00  0.00     0.000 A 
HETATM   24  C   UNL     1      43.283 -13.950   3.332  1.00  0.00     0.002 A 
HETATM   25  C   UNL     1      43.657 -14.617   4.502  1.00  0.00     0.029 A 
ENDBRANCH  17  20
ENDBRANCH  15  16
ENDBRANCH   1  15
TORSDOF 3
ENDMDL
MODEL 9
REMARK VINA RESULT:      -7.1      3.822      7.372
REMARK  3 active torsions:
REMARK  status: ('A' for Active; 'I' for Inactive)
REMARK    1  A    between atoms: C_4  and  N_5 
REMARK       I    between atoms: N_5  and  C_6 
REMARK    2  A    between atoms: C_6  and  C_7 
REMARK    3  A    between atoms: C_7  and  C_8 
ROOT
HETATM    1  C   UNL     1      40.119 -15.236   1.657  1.00  0.00     0.286 C 
HETATM    2  N   UNL     1      40.203 -16.640   1.068  1.00  0.00    -0.056 N 
HETATM    3  H   UNL     1      39.335 -17.122   1.391  1.00  0.00     0.278 HD
HETATM    4  H   UNL     1      40.146 -16.620   0.043  1.00  0.00     0.278 HD
HETATM    5  C   UNL     1      41.374 -17.459   1.538  1.00  0.00     0.209 C 
HETATM    6  C   UNL     1      41.417 -17.462   3.086  1.00  0.00     0.115 C 
HETATM    7  N   UNL     1      41.284 -16.126   3.665  1.00  0.00    -0.353 N 
HETATM    8  C   UNL     1      40.412 -15.185   3.169  1.00  0.00     0.249 C 
HETATM    9  O   UNL     1      39.997 -14.292   3.899  1.00  0.00    -0.271 OA
HETATM   10  C   UNL     1      42.662 -16.943   0.893  1.00  0.00     0.035 C 
HETATM   11  C   UNL     1      43.880 -17.694   1.425  1.00  0.00     0.002 C 
HETATM   12  C   UNL     1      43.955 -17.620   2.947  1.00  0.00     0.002 C 
HETATM   13  C   UNL     1      42.682 -18.156   3.601  1.00  0.00     0.027 C 
HETATM   14  H   UNL     1      41.399 -16.039   4.673  1.00  0.00     0.163 HD
ENDROOT
BRANCH   1  15
HETATM   15  C   UNL     1      38.781 -14.558   1.321  1.00  0.00     0.146 C 
BRANCH  15  16
HETATM   16  C   UNL     1      38.985 -13.259   0.590  1.00  0.00     0.224 C 
HETATM   17  N   UNL     1      39.196 -13.190  -0.749  1.00  0.00    -0.327 N 
HETATM   18  H   UNL     1      39.309 -12.226  -1.052  1.00  0.00     0.169 HD
HETATM   19  O   UNL     1      38.875 -12.200   1.227  1.00  0.00    -0.273 OA
BRANCH  17  20
HETATM   20  C   UNL     1      39.284 -14.138  -1.789  1.00  0.00     0.034 A 
HETATM   21  C   UNL     1      40.400 -14.910  -2.108  1.00  0.00     0.029 A 
HETATM   22  C   UNL     1      40.360 -15.817  -3.176  1.00  0.00     0.002 A 
HETATM   23  C   UNL     1      39.201 -15.973  -3.929  1.00  0.00     0.000 A 
HETATM   24  C   UNL     1      38.076 -15.222  -3.615  1.00  0.00     0.002 A 
HETATM   25  C   UNL     1      38.120 -14.311  -2.556  1.00  0.00     0.029 A 
ENDBRANCH  17  20
ENDBRANCH  15  16
ENDBRANCH   1  15
TORSDOF 3
ENDMDL
MODEL 10
REMARK VINA RESULT:      -7.0      3.072      6.763
REMARK  3 active torsions:
REMARK  status: ('A' for Active; 'I' for Inactive)
REMARK    1  A    between atoms: C_4  and  N_5 
REMARK       I    between atoms: N_5  and  C_6 
REMARK    2  A    between atoms: C_6  and  C_7 
REMARK    3  A    between atoms: C_7  and  C_8 
ROOT
HETATM    1  C   UNL     1      43.156 -17.239   2.368  1.00  0.00     0.286 C 
HETATM    2  N   UNL     1      42.530 -18.354   3.199  1.00  0.00    -0.056 N 
HETATM    3  H   UNL     1      41.502 -18.187   3.146  1.00  0.00     0.278 HD
HETATM    4  H   UNL     1      42.687 -19.273   2.769  1.00  0.00     0.278 HD
HETATM    5  C   UNL     1      42.911 -18.356   4.654  1.00  0.00     0.209 C 
HETATM    6  C   UNL     1      42.656 -16.952   5.258  1.00  0.00     0.115 C 
HETATM    7  N   UNL     1      43.206 -15.870   4.444  1.00  0.00    -0.353 N 
HETATM    8  C   UNL     1      43.139 -15.866   3.070  1.00  0.00     0.249 C 
HETATM    9  O   UNL     1      43.182 -14.805   2.458  1.00  0.00    -0.271 OA
HETATM   10  C   UNL     1      44.356 -18.835   4.813  1.00  0.00     0.035 C 
HETATM   11  C   UNL     1      44.801 -18.757   6.271  1.00  0.00     0.002 C 
HETATM   12  C   UNL     1      44.621 -17.348   6.831  1.00  0.00     0.002 C 
HETATM   13  C   UNL     1      43.176 -16.869   6.698  1.00  0.00     0.027 C 
HETATM   14  H   UNL     1      43.161 -14.927   4.825  1.00  0.00     0.163 HD
ENDROOT
BRANCH   1  15
HETATM   15  C   UNL     1      42.536 -17.160   0.964  1.00  0.00     0.146 C 
BRANCH  15  16
HETATM   16  C   UNL     1      41.089 -16.751   1.018  1.00  0.00     0.224 C 
HETATM   17  N   UNL     1      40.561 -15.795   0.213  1.00  0.00    -0.327 N 
HETATM   18  H   UNL     1      39.570 -15.665   0.401  1.00  0.00     0.169 HD
HETATM   19  O   UNL     1      40.329 -17.373   1.776  1.00  0.00    -0.273 OA
BRANCH  17  20
HETATM   20  C   UNL     1      41.071 -14.966  -0.808  1.00  0.00     0.034 A 
HETATM   21  C   UNL     1      41.714 -13.742  -0.631  1.00  0.00     0.029 A 
HETATM   22  C   UNL     1      42.171 -13.008  -1.735  1.00  0.00     0.002 A 
HETATM   23  C   UNL     1      42.003 -13.496  -3.027  1.00  0.00     0.000 A 
HETATM   24  C   UNL     1      41.377 -14.721  -3.219  1.00  0.00     0.002 A 
HETATM   25  C   UNL     1      40.914 -15.447  -2.118  1.00  0.00     0.029 A 
ENDBRANCH  17  20
ENDBRANCH  15  16
ENDBRANCH   1  15
TORSDOF 3
ENDMDL
