MODEL 1
REMARK VINA RESULT:      -8.9      0.000      0.000
REMARK  3 active torsions:
REMARK  status: ('A' for Active; 'I' for Inactive)
REMARK    1  A    between atoms: C_3  and  C_4 
REMARK       I    between atoms: C_4  and  N_5 
REMARK    2  A    between atoms: N_5  and  C_6 
REMARK    3  A    between atoms: C_13  and  C_14 
REMARK       I    between atoms: C_14  and  N_15 
ROOT
HETATM    1  C   UNL     1      42.047 -15.185   1.310  1.00  0.00     0.035 A 
HETATM    2  C   UNL     1      41.675 -15.152  -0.043  1.00  0.00     0.046 A 
HETATM    3  C   UNL     1      41.508 -13.911  -0.694  1.00  0.00     0.030 A 
HETATM    4  C   UNL     1      41.712 -12.745   0.030  1.00  0.00     0.063 A 
HETATM    5  N   UNL     1      41.477 -11.726  -0.850  1.00  0.00    -0.277 N 
HETATM    6  H   UNL     1      41.529 -10.730  -0.665  1.00  0.00     0.189 HD
HETATM    7  N   UNL     1      41.146 -12.127  -2.090  1.00  0.00    -0.168 NA
HETATM    8  C   UNL     1      41.161 -13.477  -2.007  1.00  0.00     0.156 A 
HETATM    9  C   UNL     1      42.079 -12.741   1.377  1.00  0.00     0.034 A 
HETATM   10  C   UNL     1      42.245 -13.986   2.000  1.00  0.00     0.032 A 
ENDROOT
BRANCH   1  11
HETATM   11  N   UNL     1      42.197 -16.457   1.893  1.00  0.00    -0.325 N 
HETATM   12  C   UNL     1      43.307 -17.285   1.877  1.00  0.00     0.252 C 
HETATM   13  O   UNL     1      44.374 -17.064   1.311  1.00  0.00    -0.270 OA
HETATM   14  H   UNL     1      41.408 -16.811   2.430  1.00  0.00     0.169 HD
BRANCH  12  15
HETATM   15  C   UNL     1      43.064 -18.619   2.592  1.00  0.00     0.229 C 
HETATM   16  C   UNL     1      43.843 -18.658   3.921  1.00  0.00     0.056 C 
HETATM   17  C   UNL     1      43.008 -18.199   5.107  1.00  0.00     0.018 C 
HETATM   18  C   UNL     1      44.209 -20.100   3.932  1.00  0.00    -0.018 A 
HETATM   19  C   UNL     1      44.009 -20.629   2.665  1.00  0.00     0.076 A 
HETATM   20  C   UNL     1      44.738 -20.881   4.945  1.00  0.00     0.010 A 
HETATM   21  O   UNL     1      43.501 -19.730   1.765  1.00  0.00    -0.335 OA
HETATM   22  C   UNL     1      44.321 -21.937   2.357  1.00  0.00     0.037 A 
HETATM   23  C   UNL     1      44.843 -22.738   3.373  1.00  0.00     0.003 A 
HETATM   24  C   UNL     1      45.049 -22.214   4.660  1.00  0.00     0.001 A 
ENDBRANCH  12  15
ENDBRANCH   1  11
BRANCH   8  25
HETATM   25  C   UNL     1      40.853 -14.320  -3.170  1.00  0.00     0.270 C 
HETATM   26  N   UNL     1      39.705 -13.970  -3.827  1.00  0.00    -0.365 N 
HETATM   27  H   UNL     1      39.169 -13.183  -3.480  1.00  0.00     0.159 HD
HETATM   28  H   UNL     1      39.415 -14.486  -4.641  1.00  0.00     0.159 HD
HETATM   29  O   UNL     1      41.544 -15.260  -3.548  1.00  0.00    -0.266 OA
ENDBRANCH   8  25
TORSDOF 3
ENDMDL
MODEL 2
REMARK VINA RESULT:      -8.7      6.318      8.513
REMARK  3 active torsions:
REMARK  status: ('A' for Active; 'I' for Inactive)
REMARK    1  A    between atoms: C_3  and  C_4 
REMARK       I    between atoms: C_4  and  N_5 
REMARK    2  A    between atoms: N_5  and  C_6 
REMARK    3  A    between atoms: C_13  and  C_14 
REMARK       I    between atoms: C_14  and  N_15 
ROOT
HETATM    1  C   UNL     1      45.035 -13.938   7.304  1.00  0.00     0.035 A 
HETATM    2  C   UNL     1      44.414 -13.519   8.491  1.00  0.00     0.046 A 
HETATM    3  C   UNL     1      44.949 -12.434   9.217  1.00  0.00     0.030 A 
HETATM    4  C   UNL     1      46.091 -11.808   8.737  1.00  0.00     0.063 A 
HETATM    5  N   UNL     1      46.368 -10.818   9.637  1.00  0.00    -0.277 N 
HETATM    6  H   UNL     1      47.138 -10.159   9.607  1.00  0.00     0.189 HD
HETATM    7  N   UNL     1      45.499 -10.738  10.660  1.00  0.00    -0.168 NA
HETATM    8  C   UNL     1      44.617 -11.732  10.412  1.00  0.00     0.156 A 
HETATM    9  C   UNL     1      46.735 -12.201   7.562  1.00  0.00     0.034 A 
HETATM   10  C   UNL     1      46.180 -13.277   6.855  1.00  0.00     0.032 A 
ENDROOT
BRANCH   1  11
HETATM   11  N   UNL     1      44.444 -15.025   6.631  1.00  0.00    -0.325 N 
HETATM   12  C   UNL     1      43.382 -15.012   5.743  1.00  0.00     0.252 C 
HETATM   13  O   UNL     1      42.730 -14.029   5.399  1.00  0.00    -0.270 OA
HETATM   14  H   UNL     1      44.865 -15.939   6.781  1.00  0.00     0.169 HD
BRANCH  12  15
HETATM   15  C   UNL     1      43.001 -16.413   5.253  1.00  0.00     0.229 C 
HETATM   16  C   UNL     1      43.830 -17.479   5.995  1.00  0.00     0.056 C 
HETATM   17  C   UNL     1      43.119 -18.028   7.222  1.00  0.00     0.018 C 
HETATM   18  C   UNL     1      44.005 -18.451   4.883  1.00  0.00    -0.018 A 
HETATM   19  C   UNL     1      43.678 -17.835   3.684  1.00  0.00     0.076 A 
HETATM   20  C   UNL     1      44.474 -19.754   4.899  1.00  0.00     0.010 A 
HETATM   21  O   UNL     1      43.250 -16.542   3.827  1.00  0.00    -0.335 OA
HETATM   22  C   UNL     1      43.801 -18.477   2.470  1.00  0.00     0.037 A 
HETATM   23  C   UNL     1      44.261 -19.795   2.473  1.00  0.00     0.003 A 
HETATM   24  C   UNL     1      44.594 -20.430   3.681  1.00  0.00     0.001 A 
ENDBRANCH  12  15
ENDBRANCH   1  11
BRANCH   8  25
HETATM   25  C   UNL     1      43.481 -11.990  11.308  1.00  0.00     0.270 C 
HETATM   26  N   UNL     1      43.685 -13.015  12.192  1.00  0.00    -0.365 N 
HETATM   27  H   UNL     1      44.573 -13.504  12.168  1.00  0.00     0.159 HD
HETATM   28  H   UNL     1      42.966 -13.260  12.851  1.00  0.00     0.159 HD
HETATM   29  O   UNL     1      42.429 -11.359  11.295  1.00  0.00    -0.266 OA
ENDBRANCH   8  25
TORSDOF 3
ENDMDL
MODEL 3
REMARK VINA RESULT:      -8.7      4.594      6.064
REMARK  3 active torsions:
REMARK  status: ('A' for Active; 'I' for Inactive)
REMARK    1  A    between atoms: C_3  and  C_4 
REMARK       I    between atoms: C_4  and  N_5 
REMARK    2  A    between atoms: N_5  and  C_6 
REMARK    3  A    between atoms: C_13  and  C_14 
REMARK       I    between atoms: C_14  and  N_15 
ROOT
HETATM    1  C   UNL     1      40.173 -14.207   4.481  1.00  0.00     0.035 A 
HETATM    2  C   UNL     1      40.085 -13.587   5.738  1.00  0.00     0.046 A 
HETATM    3  C   UNL     1      39.609 -12.262   5.834  1.00  0.00     0.030 A 
HETATM    4  C   UNL     1      39.244 -11.598   4.671  1.00  0.00     0.063 A 
HETATM    5  N   UNL     1      38.836 -10.358   5.075  1.00  0.00    -0.277 N 
HETATM    6  H   UNL     1      38.502  -9.600   4.489  1.00  0.00     0.189 HD
HETATM    7  N   UNL     1      38.896 -10.158   6.404  1.00  0.00    -0.168 NA
HETATM    8  C   UNL     1      39.373 -11.328   6.885  1.00  0.00     0.156 A 
HETATM    9  C   UNL     1      39.321 -12.183   3.406  1.00  0.00     0.034 A 
HETATM   10  C   UNL     1      39.790 -13.503   3.337  1.00  0.00     0.032 A 
ENDROOT
BRANCH   1  11
HETATM   11  N   UNL     1      40.654 -15.530   4.461  1.00  0.00    -0.325 N 
HETATM   12  C   UNL     1      41.967 -15.967   4.475  1.00  0.00     0.252 C 
HETATM   13  O   UNL     1      42.972 -15.261   4.475  1.00  0.00    -0.270 OA
HETATM   14  H   UNL     1      39.956 -16.271   4.475  1.00  0.00     0.169 HD
BRANCH  12  15
HETATM   15  C   UNL     1      42.086 -17.494   4.400  1.00  0.00     0.229 C 
HETATM   16  C   UNL     1      43.396 -17.958   5.065  1.00  0.00     0.056 C 
HETATM   17  C   UNL     1      43.212 -18.331   6.528  1.00  0.00     0.018 C 
HETATM   18  C   UNL     1      43.724 -19.094   4.164  1.00  0.00    -0.018 A 
HETATM   19  C   UNL     1      42.954 -18.998   3.013  1.00  0.00     0.076 A 
HETATM   20  C   UNL     1      44.664 -20.101   4.299  1.00  0.00     0.010 A 
HETATM   21  O   UNL     1      42.085 -17.940   3.017  1.00  0.00    -0.335 OA
HETATM   22  C   UNL     1      43.086 -19.885   1.965  1.00  0.00     0.037 A 
HETATM   23  C   UNL     1      44.021 -20.913   2.095  1.00  0.00     0.003 A 
HETATM   24  C   UNL     1      44.805 -21.020   3.255  1.00  0.00     0.001 A 
ENDBRANCH  12  15
ENDBRANCH   1  11
BRANCH   8  25
HETATM   25  C   UNL     1      39.588 -11.534   8.323  1.00  0.00     0.270 C 
HETATM   26  N   UNL     1      38.841 -12.546   8.863  1.00  0.00    -0.365 N 
HETATM   27  H   UNL     1      38.217 -13.064   8.254  1.00  0.00     0.159 HD
HETATM   28  H   UNL     1      38.926 -12.767   9.841  1.00  0.00     0.159 HD
HETATM   29  O   UNL     1      40.364 -10.878   9.010  1.00  0.00    -0.266 OA
ENDBRANCH   8  25
TORSDOF 3
ENDMDL
MODEL 4
REMARK VINA RESULT:      -8.6      3.926      5.394
REMARK  3 active torsions:
REMARK  status: ('A' for Active; 'I' for Inactive)
REMARK    1  A    between atoms: C_3  and  C_4 
REMARK       I    between atoms: C_4  and  N_5 
REMARK    2  A    between atoms: N_5  and  C_6 
REMARK    3  A    between atoms: C_13  and  C_14 
REMARK       I    between atoms: C_14  and  N_15 
ROOT
HETATM    1  C   UNL     1      40.906 -14.336   3.169  1.00  0.00     0.035 A 
HETATM    2  C   UNL     1      40.726 -13.689   4.402  1.00  0.00     0.046 A 
HETATM    3  C   UNL     1      39.786 -12.643   4.515  1.00  0.00     0.030 A 
HETATM    4  C   UNL     1      39.063 -12.272   3.390  1.00  0.00     0.063 A 
HETATM    5  N   UNL     1      38.253 -11.251   3.801  1.00  0.00    -0.277 N 
HETATM    6  H   UNL     1      37.586 -10.732   3.239  1.00  0.00     0.189 HD
HETATM    7  N   UNL     1      38.379 -10.929   5.101  1.00  0.00    -0.168 NA
HETATM    8  C   UNL     1      39.325 -11.783   5.553  1.00  0.00     0.156 A 
HETATM    9  C   UNL     1      39.219 -12.891   2.148  1.00  0.00     0.034 A 
HETATM   10  C   UNL     1      40.154 -13.932   2.063  1.00  0.00     0.032 A 
ENDROOT
BRANCH   1  11
HETATM   11  N   UNL     1      41.859 -15.371   3.131  1.00  0.00    -0.325 N 
HETATM   12  C   UNL     1      41.822 -16.597   3.774  1.00  0.00     0.252 C 
HETATM   13  O   UNL     1      40.945 -16.996   4.536  1.00  0.00    -0.270 OA
HETATM   14  H   UNL     1      42.667 -15.229   2.528  1.00  0.00     0.169 HD
BRANCH  12  15
HETATM   15  C   UNL     1      43.076 -17.440   3.517  1.00  0.00     0.229 C 
HETATM   16  C   UNL     1      42.857 -18.359   2.299  1.00  0.00     0.056 C 
HETATM   17  C   UNL     1      43.355 -17.743   1.001  1.00  0.00     0.018 C 
HETATM   18  C   UNL     1      43.622 -19.546   2.765  1.00  0.00    -0.018 A 
HETATM   19  C   UNL     1      43.860 -19.429   4.126  1.00  0.00     0.076 A 
HETATM   20  C   UNL     1      44.027 -20.676   2.075  1.00  0.00     0.010 A 
HETATM   21  O   UNL     1      43.383 -18.267   4.672  1.00  0.00    -0.335 OA
HETATM   22  C   UNL     1      44.500 -20.415   4.848  1.00  0.00     0.037 A 
HETATM   23  C   UNL     1      44.924 -21.553   4.162  1.00  0.00     0.003 A 
HETATM   24  C   UNL     1      44.690 -21.682   2.783  1.00  0.00     0.001 A 
ENDBRANCH  12  15
ENDBRANCH   1  11
BRANCH   8  25
HETATM   25  C   UNL     1      39.764 -11.766   6.955  1.00  0.00     0.270 C 
HETATM   26  N   UNL     1      39.219 -12.756   7.726  1.00  0.00    -0.365 N 
HETATM   27  H   UNL     1      38.576 -13.409   7.291  1.00  0.00     0.159 HD
HETATM   28  H   UNL     1      39.466 -12.830   8.698  1.00  0.00     0.159 HD
HETATM   29  O   UNL     1      40.551 -10.952   7.426  1.00  0.00    -0.266 OA
ENDBRANCH   8  25
TORSDOF 3
ENDMDL
MODEL 5
REMARK VINA RESULT:      -8.5      1.839      2.111
REMARK  3 active torsions:
REMARK  status: ('A' for Active; 'I' for Inactive)
REMARK    1  A    between atoms: C_3  and  C_4 
REMARK       I    between atoms: C_4  and  N_5 
REMARK    2  A    between atoms: N_5  and  C_6 
REMARK    3  A    between atoms: C_13  and  C_14 
REMARK       I    between atoms: C_14  and  N_15 
ROOT
HETATM    1  C   UNL     1      39.835 -15.086   0.883  1.00  0.00     0.035 A 
HETATM    2  C   UNL     1      40.371 -14.849  -0.393  1.00  0.00     0.046 A 
HETATM    3  C   UNL     1      39.903 -13.760  -1.159  1.00  0.00     0.030 A 
HETATM    4  C   UNL     1      38.909 -12.950  -0.628  1.00  0.00     0.063 A 
HETATM    5  N   UNL     1      38.664 -12.004  -1.583  1.00  0.00    -0.277 N 
HETATM    6  H   UNL     1      37.992 -11.245  -1.539  1.00  0.00     0.189 HD
HETATM    7  N   UNL     1      39.420 -12.122  -2.690  1.00  0.00    -0.168 NA
HETATM    8  C   UNL     1      40.190 -13.204  -2.440  1.00  0.00     0.156 A 
HETATM    9  C   UNL     1      38.351 -13.159   0.635  1.00  0.00     0.034 A 
HETATM   10  C   UNL     1      38.838 -14.243   1.379  1.00  0.00     0.032 A 
ENDROOT
BRANCH   1  11
HETATM   11  N   UNL     1      40.351 -16.188   1.590  1.00  0.00    -0.325 N 
HETATM   12  C   UNL     1      41.404 -16.215   2.490  1.00  0.00     0.252 C 
HETATM   13  O   UNL     1      42.111 -15.265   2.815  1.00  0.00    -0.270 OA
HETATM   14  H   UNL     1      39.877 -17.079   1.461  1.00  0.00     0.169 HD
BRANCH  12  15
HETATM   15  C   UNL     1      41.694 -17.623   3.021  1.00  0.00     0.229 C 
HETATM   16  C   UNL     1      42.799 -17.568   4.094  1.00  0.00     0.056 C 
HETATM   17  C   UNL     1      42.244 -17.461   5.506  1.00  0.00     0.018 C 
HETATM   18  C   UNL     1      43.486 -18.850   3.785  1.00  0.00    -0.018 A 
HETATM   19  C   UNL     1      43.072 -19.299   2.539  1.00  0.00     0.076 A 
HETATM   20  C   UNL     1      44.446 -19.546   4.499  1.00  0.00     0.010 A 
HETATM   21  O   UNL     1      42.135 -18.496   1.946  1.00  0.00    -0.335 OA
HETATM   22  C   UNL     1      43.588 -20.440   1.960  1.00  0.00     0.037 A 
HETATM   23  C   UNL     1      44.548 -21.157   2.676  1.00  0.00     0.003 A 
HETATM   24  C   UNL     1      44.973 -20.713   3.939  1.00  0.00     0.001 A 
ENDBRANCH  12  15
ENDBRANCH   1  11
BRANCH   8  25
HETATM   25  C   UNL     1      41.180 -13.683  -3.415  1.00  0.00     0.270 C 
HETATM   26  N   UNL     1      42.140 -12.763  -3.736  1.00  0.00    -0.365 N 
HETATM   27  H   UNL     1      42.105 -11.851  -3.294  1.00  0.00     0.159 HD
HETATM   28  H   UNL     1      42.866 -13.002  -4.391  1.00  0.00     0.159 HD
HETATM   29  O   UNL     1      41.176 -14.803  -3.914  1.00  0.00    -0.266 OA
ENDBRANCH   8  25
TORSDOF 3
ENDMDL
MODEL 6
REMARK VINA RESULT:      -8.4      2.969      8.687
REMARK  3 active torsions:
REMARK  status: ('A' for Active; 'I' for Inactive)
REMARK    1  A    between atoms: C_3  and  C_4 
REMARK       I    between atoms: C_4  and  N_5 
REMARK    2  A    between atoms: N_5  and  C_6 
REMARK    3  A    between atoms: C_13  and  C_14 
REMARK       I    between atoms: C_14  and  N_15 
ROOT
HETATM    1  C   UNL     1      43.314 -17.800   2.660  1.00  0.00     0.035 A 
HETATM    2  C   UNL     1      43.060 -17.581   4.024  1.00  0.00     0.046 A 
HETATM    3  C   UNL     1      43.494 -18.525   4.978  1.00  0.00     0.030 A 
HETATM    4  C   UNL     1      44.160 -19.660   4.538  1.00  0.00     0.063 A 
HETATM    5  N   UNL     1      44.444 -20.374   5.668  1.00  0.00    -0.277 N 
HETATM    6  H   UNL     1      44.925 -21.265   5.727  1.00  0.00     0.189 HD
HETATM    7  N   UNL     1      44.028 -19.797   6.810  1.00  0.00    -0.168 NA
HETATM    8  C   UNL     1      43.438 -18.653   6.397  1.00  0.00     0.156 A 
HETATM    9  C   UNL     1      44.426 -19.911   3.191  1.00  0.00     0.034 A 
HETATM   10  C   UNL     1      43.991 -18.955   2.262  1.00  0.00     0.032 A 
ENDROOT
BRANCH   1  11
HETATM   11  N   UNL     1      42.855 -16.815   1.765  1.00  0.00    -0.325 N 
HETATM   12  C   UNL     1      41.596 -16.684   1.203  1.00  0.00     0.252 C 
HETATM   13  O   UNL     1      40.642 -17.439   1.365  1.00  0.00    -0.270 OA
HETATM   14  H   UNL     1      43.512 -16.078   1.519  1.00  0.00     0.169 HD
BRANCH  12  15
HETATM   15  C   UNL     1      41.498 -15.498   0.237  1.00  0.00     0.229 C 
HETATM   16  C   UNL     1      40.246 -14.657   0.553  1.00  0.00     0.056 C 
HETATM   17  C   UNL     1      40.538 -13.498   1.492  1.00  0.00     0.018 C 
HETATM   18  C   UNL     1      39.874 -14.265  -0.833  1.00  0.00    -0.018 A 
HETATM   19  C   UNL     1      40.560 -15.069  -1.732  1.00  0.00     0.076 A 
HETATM   20  C   UNL     1      38.963 -13.325  -1.283  1.00  0.00     0.010 A 
HETATM   21  O   UNL     1      41.409 -15.963  -1.137  1.00  0.00    -0.335 OA
HETATM   22  C   UNL     1      40.370 -14.974  -3.095  1.00  0.00     0.037 A 
HETATM   23  C   UNL     1      39.463 -14.022  -3.562  1.00  0.00     0.003 A 
HETATM   24  C   UNL     1      38.765 -13.202  -2.661  1.00  0.00     0.001 A 
ENDBRANCH  12  15
ENDBRANCH   1  11
BRANCH   8  25
HETATM   25  C   UNL     1      42.843 -17.709   7.352  1.00  0.00     0.270 C 
HETATM   26  N   UNL     1      43.466 -17.675   8.569  1.00  0.00    -0.365 N 
HETATM   27  H   UNL     1      44.267 -18.279   8.720  1.00  0.00     0.159 HD
HETATM   28  H   UNL     1      43.134 -17.053   9.287  1.00  0.00     0.159 HD
HETATM   29  O   UNL     1      41.873 -16.998   7.112  1.00  0.00    -0.266 OA
ENDBRANCH   8  25
TORSDOF 3
ENDMDL
MODEL 7
REMARK VINA RESULT:      -8.4      3.279      8.602
REMARK  3 active torsions:
REMARK  status: ('A' for Active; 'I' for Inactive)
REMARK    1  A    between atoms: C_3  and  C_4 
REMARK       I    between atoms: C_4  and  N_5 
REMARK    2  A    between atoms: N_5  and  C_6 
REMARK    3  A    between atoms: C_13  and  C_14 
REMARK       I    between atoms: C_14  and  N_15 
ROOT
HETATM    1  C   UNL     1      42.896 -17.978   2.642  1.00  0.00     0.035 A 
HETATM    2  C   UNL     1      43.105 -18.189   4.014  1.00  0.00     0.046 A 
HETATM    3  C   UNL     1      43.777 -19.352   4.450  1.00  0.00     0.030 A 
HETATM    4  C   UNL     1      44.210 -20.267   3.502  1.00  0.00     0.063 A 
HETATM    5  N   UNL     1      44.808 -21.269   4.212  1.00  0.00    -0.277 N 
HETATM    6  H   UNL     1      45.238 -22.111   3.844  1.00  0.00     0.189 HD
HETATM    7  N   UNL     1      44.811 -21.082   5.544  1.00  0.00    -0.168 NA
HETATM    8  C   UNL     1      44.175 -19.899   5.704  1.00  0.00     0.156 A 
HETATM    9  C   UNL     1      44.015 -20.090   2.130  1.00  0.00     0.034 A 
HETATM   10  C   UNL     1      43.352 -18.925   1.721  1.00  0.00     0.032 A 
ENDROOT
BRANCH   1  11
HETATM   11  N   UNL     1      42.221 -16.797   2.280  1.00  0.00    -0.325 N 
HETATM   12  C   UNL     1      42.657 -15.488   2.398  1.00  0.00     0.252 C 
HETATM   13  O   UNL     1      43.723 -15.113   2.880  1.00  0.00    -0.270 OA
HETATM   14  H   UNL     1      41.310 -16.906   1.841  1.00  0.00     0.169 HD
BRANCH  12  15
HETATM   15  C   UNL     1      41.611 -14.469   1.931  1.00  0.00     0.229 C 
HETATM   16  C   UNL     1      40.224 -14.837   2.493  1.00  0.00     0.056 C 
HETATM   17  C   UNL     1      39.913 -14.126   3.801  1.00  0.00     0.018 C 
HETATM   18  C   UNL     1      39.387 -14.419   1.337  1.00  0.00    -0.018 A 
HETATM   19  C   UNL     1      40.201 -14.241   0.228  1.00  0.00     0.076 A 
HETATM   20  C   UNL     1      38.015 -14.266   1.234  1.00  0.00     0.010 A 
HETATM   21  O   UNL     1      41.531 -14.446   0.480  1.00  0.00    -0.335 OA
HETATM   22  C   UNL     1      39.693 -13.909  -1.011  1.00  0.00     0.037 A 
HETATM   23  C   UNL     1      38.312 -13.740  -1.124  1.00  0.00     0.003 A 
HETATM   24  C   UNL     1      37.479 -13.916  -0.008  1.00  0.00     0.001 A 
ENDBRANCH  12  15
ENDBRANCH   1  11
BRANCH   8  25
HETATM   25  C   UNL     1      43.966 -19.316   7.036  1.00  0.00     0.270 C 
HETATM   26  N   UNL     1      43.591 -20.221   7.992  1.00  0.00    -0.365 N 
HETATM   27  H   UNL     1      43.491 -21.194   7.724  1.00  0.00     0.159 HD
HETATM   28  H   UNL     1      43.432 -19.917   8.938  1.00  0.00     0.159 HD
HETATM   29  O   UNL     1      44.108 -18.128   7.304  1.00  0.00    -0.266 OA
ENDBRANCH   8  25
TORSDOF 3
ENDMDL
MODEL 8
REMARK VINA RESULT:      -8.3      2.954      8.668
REMARK  3 active torsions:
REMARK  status: ('A' for Active; 'I' for Inactive)
REMARK    1  A    between atoms: C_3  and  C_4 
REMARK       I    between atoms: C_4  and  N_5 
REMARK    2  A    between atoms: N_5  and  C_6 
REMARK    3  A    between atoms: C_13  and  C_14 
REMARK       I    between atoms: C_14  and  N_15 
ROOT
HETATM    1  C   UNL     1      42.946 -17.387   2.383  1.00  0.00     0.035 A 
HETATM    2  C   UNL     1      42.826 -17.350   3.781  1.00  0.00     0.046 A 
HETATM    3  C   UNL     1      43.385 -18.385   4.560  1.00  0.00     0.030 A 
HETATM    4  C   UNL     1      44.039 -19.426   3.917  1.00  0.00     0.063 A 
HETATM    5  N   UNL     1      44.461 -20.260   4.914  1.00  0.00    -0.277 N 
HETATM    6  H   UNL     1      44.974 -21.129   4.811  1.00  0.00     0.189 HD
HETATM    7  N   UNL     1      44.146 -19.848   6.155  1.00  0.00    -0.168 NA
HETATM    8  C   UNL     1      43.480 -18.689   5.950  1.00  0.00     0.156 A 
HETATM    9  C   UNL     1      44.174 -19.496   2.529  1.00  0.00     0.034 A 
HETATM   10  C   UNL     1      43.616 -18.452   1.777  1.00  0.00     0.032 A 
ENDROOT
BRANCH   1  11
HETATM   11  N   UNL     1      42.366 -16.321   1.670  1.00  0.00    -0.325 N 
HETATM   12  C   UNL     1      41.026 -16.085   1.416  1.00  0.00     0.252 C 
HETATM   13  O   UNL     1      40.082 -16.798   1.748  1.00  0.00    -0.270 OA
HETATM   14  H   UNL     1      43.000 -15.604   1.321  1.00  0.00     0.169 HD
BRANCH  12  15
HETATM   15  C   UNL     1      40.794 -14.833   0.562  1.00  0.00     0.229 C 
HETATM   16  C   UNL     1      41.611 -14.921  -0.742  1.00  0.00     0.056 C 
HETATM   17  C   UNL     1      40.813 -15.506  -1.897  1.00  0.00     0.018 C 
HETATM   18  C   UNL     1      41.968 -13.485  -0.889  1.00  0.00    -0.018 A 
HETATM   19  C   UNL     1      41.729 -12.832   0.311  1.00  0.00     0.076 A 
HETATM   20  C   UNL     1      42.520 -12.805  -1.961  1.00  0.00     0.010 A 
HETATM   21  O   UNL     1      41.201 -13.639   1.284  1.00  0.00    -0.335 OA
HETATM   22  C   UNL     1      42.024 -11.497   0.493  1.00  0.00     0.037 A 
HETATM   23  C   UNL     1      42.569 -10.797  -0.585  1.00  0.00     0.003 A 
HETATM   24  C   UNL     1      42.814 -11.448  -1.805  1.00  0.00     0.001 A 
ENDBRANCH  12  15
ENDBRANCH   1  11
BRANCH   8  25
HETATM   25  C   UNL     1      42.955 -17.899   7.072  1.00  0.00     0.270 C 
HETATM   26  N   UNL     1      43.594 -18.119   8.261  1.00  0.00    -0.365 N 
HETATM   27  H   UNL     1      44.358 -18.786   8.283  1.00  0.00     0.159 HD
HETATM   28  H   UNL     1      43.309 -17.618   9.085  1.00  0.00     0.159 HD
HETATM   29  O   UNL     1      42.028 -17.100   6.984  1.00  0.00    -0.266 OA
ENDBRANCH   8  25
TORSDOF 3
ENDMDL
MODEL 9
REMARK VINA RESULT:      -8.2      6.283      8.441
REMARK  3 active torsions:
REMARK  status: ('A' for Active; 'I' for Inactive)
REMARK    1  A    between atoms: C_3  and  C_4 
REMARK       I    between atoms: C_4  and  N_5 
REMARK    2  A    between atoms: N_5  and  C_6 
REMARK    3  A    between atoms: C_13  and  C_14 
REMARK       I    between atoms: C_14  and  N_15 
ROOT
HETATM    1  C   UNL     1      44.852 -13.958   7.143  1.00  0.00     0.035 A 
HETATM    2  C   UNL     1      44.117 -13.270   8.122  1.00  0.00     0.046 A 
HETATM    3  C   UNL     1      44.707 -12.188   8.809  1.00  0.00     0.030 A 
HETATM    4  C   UNL     1      46.013 -11.834   8.501  1.00  0.00     0.063 A 
HETATM    5  N   UNL     1      46.304 -10.776   9.316  1.00  0.00    -0.277 N 
HETATM    6  H   UNL     1      47.177 -10.261   9.366  1.00  0.00     0.189 HD
HETATM    7  N   UNL     1      45.296 -10.403  10.125  1.00  0.00    -0.168 NA
HETATM    8  C   UNL     1      44.303 -11.269   9.821  1.00  0.00     0.156 A 
HETATM    9  C   UNL     1      46.773 -12.498   7.536  1.00  0.00     0.034 A 
HETATM   10  C   UNL     1      46.163 -13.565   6.862  1.00  0.00     0.032 A 
ENDROOT
BRANCH   1  11
HETATM   11  N   UNL     1      44.199 -15.025   6.497  1.00  0.00    -0.325 N 
HETATM   12  C   UNL     1      43.664 -16.172   7.058  1.00  0.00     0.252 C 
HETATM   13  O   UNL     1      43.692 -16.485   8.245  1.00  0.00    -0.270 OA
HETATM   14  H   UNL     1      44.065 -14.938   5.492  1.00  0.00     0.169 HD
BRANCH  12  15
HETATM   15  C   UNL     1      43.071 -17.123   6.013  1.00  0.00     0.229 C 
HETATM   16  C   UNL     1      44.146 -18.113   5.525  1.00  0.00     0.056 C 
HETATM   17  C   UNL     1      44.137 -19.421   6.301  1.00  0.00     0.018 C 
HETATM   18  C   UNL     1      43.729 -18.225   4.102  1.00  0.00    -0.018 A 
HETATM   19  C   UNL     1      42.854 -17.191   3.802  1.00  0.00     0.076 A 
HETATM   20  C   UNL     1      44.126 -19.117   3.120  1.00  0.00     0.010 A 
HETATM   21  O   UNL     1      42.572 -16.379   4.868  1.00  0.00    -0.335 OA
HETATM   22  C   UNL     1      42.346 -17.003   2.533  1.00  0.00     0.037 A 
HETATM   23  C   UNL     1      42.729 -17.903   1.538  1.00  0.00     0.003 A 
HETATM   24  C   UNL     1      43.613 -18.954   1.831  1.00  0.00     0.001 A 
ENDBRANCH  12  15
ENDBRANCH   1  11
BRANCH   8  25
HETATM   25  C   UNL     1      42.997 -11.202  10.491  1.00  0.00     0.270 C 
HETATM   26  N   UNL     1      43.038 -11.482  11.829  1.00  0.00    -0.365 N 
HETATM   27  H   UNL     1      43.934 -11.706  12.250  1.00  0.00     0.159 HD
HETATM   28  H   UNL     1      42.194 -11.454  12.376  1.00  0.00     0.159 HD
HETATM   29  O   UNL     1      41.943 -10.920   9.931  1.00  0.00    -0.266 OA
ENDBRANCH   8  25
TORSDOF 3
ENDMDL
MODEL 10
REMARK VINA RESULT:      -8.1      2.732      8.272
REMARK  3 active torsions:
REMARK  status: ('A' for Active; 'I' for Inactive)
REMARK    1  A    between atoms: C_3  and  C_4 
REMARK       I    between atoms: C_4  and  N_5 
REMARK    2  A    between atoms: N_5  and  C_6 
REMARK    3  A    between atoms: C_13  and  C_14 
REMARK       I    between atoms: C_14  and  N_15 
ROOT
HETATM    1  C   UNL     1      43.328 -17.251   3.041  1.00  0.00     0.035 A 
HETATM    2  C   UNL     1      43.594 -18.595   2.733  1.00  0.00     0.046 A 
HETATM    3  C   UNL     1      44.030 -19.474   3.748  1.00  0.00     0.030 A 
HETATM    4  C   UNL     1      44.192 -18.980   5.034  1.00  0.00     0.063 A 
HETATM    5  N   UNL     1      44.618 -20.042   5.779  1.00  0.00    -0.277 N 
HETATM    6  H   UNL     1      44.841 -20.048   6.769  1.00  0.00     0.189 HD
HETATM    7  N   UNL     1      44.739 -21.192   5.091  1.00  0.00    -0.168 NA
HETATM    8  C   UNL     1      44.379 -20.853   3.833  1.00  0.00     0.156 A 
HETATM    9  C   UNL     1      43.939 -17.649   5.374  1.00  0.00     0.034 A 
HETATM   10  C   UNL     1      43.501 -16.797   4.351  1.00  0.00     0.032 A 
ENDROOT
BRANCH   1  11
HETATM   11  N   UNL     1      42.895 -16.433   1.980  1.00  0.00    -0.325 N 
HETATM   12  C   UNL     1      41.612 -15.998   1.699  1.00  0.00     0.252 C 
HETATM   13  O   UNL     1      40.592 -16.280   2.322  1.00  0.00    -0.270 OA
HETATM   14  H   UNL     1      43.614 -16.080   1.352  1.00  0.00     0.169 HD
BRANCH  12  15
HETATM   15  C   UNL     1      41.537 -15.152   0.422  1.00  0.00     0.229 C 
HETATM   16  C   UNL     1      40.235 -14.329   0.406  1.00  0.00     0.056 C 
HETATM   17  C   UNL     1      40.414 -12.932   0.978  1.00  0.00     0.018 C 
HETATM   18  C   UNL     1      39.948 -14.379  -1.053  1.00  0.00    -0.018 A 
HETATM   19  C   UNL     1      40.726 -15.369  -1.635  1.00  0.00     0.076 A 
HETATM   20  C   UNL     1      39.036 -13.664  -1.810  1.00  0.00     0.010 A 
HETATM   21  O   UNL     1      41.565 -16.001  -0.757  1.00  0.00    -0.335 OA
HETATM   22  C   UNL     1      40.631 -15.685  -2.975  1.00  0.00     0.037 A 
HETATM   23  C   UNL     1      39.724 -14.963  -3.752  1.00  0.00     0.003 A 
HETATM   24  C   UNL     1      38.932 -13.958  -3.173  1.00  0.00     0.001 A 
ENDBRANCH  12  15
ENDBRANCH   1  11
BRANCH   8  25
HETATM   25  C   UNL     1      44.370 -21.842   2.746  1.00  0.00     0.270 C 
HETATM   26  N   UNL     1      43.793 -21.397   1.588  1.00  0.00    -0.365 N 
HETATM   27  H   UNL     1      43.429 -20.451   1.561  1.00  0.00     0.159 HD
HETATM   28  H   UNL     1      43.747 -22.001   0.785  1.00  0.00     0.159 HD
HETATM   29  O   UNL     1      44.832 -22.974   2.835  1.00  0.00    -0.266 OA
ENDBRANCH   8  25
TORSDOF 3
ENDMDL
