MODEL 1
REMARK VINA RESULT:      -8.6      0.000      0.000
REMARK  8 active torsions:
REMARK  status: ('A' for Active; 'I' for Inactive)
REMARK    1  A    between atoms: O_2  and  C_3 
REMARK    2  A    between atoms: C_10  and  C_11 
REMARK    3  A    between atoms: N_12  and  N_13 
REMARK       I    between atoms: N_13  and  C_14 
REMARK    4  A    between atoms: C_14  and  C_15 
REMARK    5  A    between atoms: N_16  and  C_17 
REMARK    6  A    between atoms: C_21  and  N_22 
REMARK    7  A    between atoms: C_25  and  C_26 
REMARK    8  A    between atoms: C_26  and  N_27 
ROOT
HETATM    1  C   UNL     1      42.102 -14.083   0.844  1.00  0.00     0.154 A 
HETATM    2  N   UNL     1      42.332 -13.254   1.947  1.00  0.00    -0.184 N 
HETATM    3  N   UNL     1      42.319 -11.956   1.520  1.00  0.00    -0.058 NA
HETATM    4  N   UNL     1      42.170 -11.919   0.212  1.00  0.00    -0.132 NA
HETATM    5  C   UNL     1      42.058 -13.201  -0.231  1.00  0.00     0.118 A 
ENDROOT
BRANCH   1   6
HETATM    6  C   UNL     1      42.043 -15.524   0.731  1.00  0.00     0.271 C 
HETATM    7  N   UNL     1      43.150 -16.257   1.157  1.00  0.00    -0.145 NA
HETATM    8  H   UNL     1      44.034 -15.751   1.114  1.00  0.00     0.158 HD
HETATM    9  O   UNL     1      40.985 -16.053   0.395  1.00  0.00    -0.271 OA
BRANCH   7  10
HETATM   10  N   UNL     1      43.324 -17.516   0.662  1.00  0.00    -0.205 NA
HETATM   11  C   UNL     1      43.441 -18.571   1.419  1.00  0.00     0.147 C 
BRANCH  11  12
HETATM   12  C   UNL     1      43.508 -18.779   2.889  1.00  0.00     0.019 A 
HETATM   13  C   UNL     1      44.242 -19.883   3.366  1.00  0.00     0.101 A 
HETATM   14  C   UNL     1      44.268 -20.179   4.740  1.00  0.00     0.069 A 
HETATM   15 CL   UNL     1      45.091 -21.568   5.354  1.00  0.00    -0.081 Cl
HETATM   16  C   UNL     1      43.606 -19.357   5.648  1.00  0.00     0.050 A 
HETATM   17  C   UNL     1      42.925 -18.240   5.179  1.00  0.00     0.036 A 
HETATM   18 CL   UNL     1      42.082 -17.223   6.285  1.00  0.00    -0.084 Cl
HETATM   19  C   UNL     1      42.884 -17.941   3.815  1.00  0.00     0.039 A 
BRANCH  13  20
HETATM   20  O   UNL     1      44.885 -20.708   2.475  1.00  0.00    -0.353 OA
HETATM   21  C   UNL     1      44.065 -21.823   2.104  1.00  0.00     0.210 C 
ENDBRANCH  13  20
ENDBRANCH  11  12
ENDBRANCH   7  10
ENDBRANCH   1   6
BRANCH   2  22
HETATM   22  C   UNL     1      42.601 -13.565   3.302  1.00  0.00     0.230 A 
HETATM   23  N   UNL     1      43.647 -14.322   3.626  1.00  0.00    -0.081 NA
HETATM   24  O   UNL     1      43.594 -14.397   5.018  1.00  0.00    -0.103 OA
HETATM   25  N   UNL     1      42.507 -13.693   5.516  1.00  0.00    -0.083 NA
HETATM   26  C   UNL     1      41.895 -13.172   4.454  1.00  0.00     0.201 A 
BRANCH  26  27
HETATM   27  N   UNL     1      40.799 -12.400   4.517  1.00  0.00    -0.379 N 
HETATM   28  H   UNL     1      40.184 -12.327   3.711  1.00  0.00     0.158 HD
HETATM   29  H   UNL     1      40.619 -11.729   5.259  1.00  0.00     0.158 HD
ENDBRANCH  26  27
ENDBRANCH   2  22
BRANCH   5  30
HETATM   30  C   UNL     1      41.937 -13.435  -1.704  1.00  0.00     0.298 C 
BRANCH  30  31
HETATM   31  N   UNL     1      40.638 -14.172  -2.050  1.00  0.00    -0.066 N 
HETATM   32  H   UNL     1      40.599 -14.936  -1.357  1.00  0.00     0.280 HD
HETATM   33  C   UNL     1      39.443 -13.285  -1.799  1.00  0.00     0.235 C 
HETATM   34  C   UNL     1      38.127 -14.049  -1.883  1.00  0.00     0.028 C 
HETATM   35  C   UNL     1      37.717 -14.372  -3.315  1.00  0.00     0.002 C 
HETATM   36  C   UNL     1      38.310 -15.657  -3.881  1.00  0.00     0.002 C 
HETATM   37  C   UNL     1      39.752 -15.983  -3.509  1.00  0.00     0.028 C 
HETATM   38  C   UNL     1      40.695 -14.790  -3.426  1.00  0.00     0.235 C 
ENDBRANCH  30  31
ENDBRANCH   5  30
TORSDOF 8
ENDMDL
MODEL 2
REMARK VINA RESULT:      -8.2      3.979      7.117
REMARK  8 active torsions:
REMARK  status: ('A' for Active; 'I' for Inactive)
REMARK    1  A    between atoms: O_2  and  C_3 
REMARK    2  A    between atoms: C_10  and  C_11 
REMARK    3  A    between atoms: N_12  and  N_13 
REMARK       I    between atoms: N_13  and  C_14 
REMARK    4  A    between atoms: C_14  and  C_15 
REMARK    5  A    between atoms: N_16  and  C_17 
REMARK    6  A    between atoms: C_21  and  N_22 
REMARK    7  A    between atoms: C_25  and  C_26 
REMARK    8  A    between atoms: C_26  and  N_27 
ROOT
HETATM    1  C   UNL     1      43.192 -14.228   6.065  1.00  0.00     0.154 A 
HETATM    2  N   UNL     1      44.396 -14.370   6.762  1.00  0.00    -0.184 N 
HETATM    3  N   UNL     1      44.681 -15.703   6.863  1.00  0.00    -0.058 NA
HETATM    4  N   UNL     1      43.700 -16.408   6.340  1.00  0.00    -0.132 NA
HETATM    5  C   UNL     1      42.767 -15.538   5.866  1.00  0.00     0.118 A 
ENDROOT
BRANCH   1   6
HETATM    6  C   UNL     1      42.429 -13.052   5.710  1.00  0.00     0.271 C 
HETATM    7  N   UNL     1      42.002 -12.924   4.389  1.00  0.00    -0.145 NA
HETATM    8  H   UNL     1      42.584 -13.413   3.709  1.00  0.00     0.158 HD
HETATM    9  O   UNL     1      42.073 -12.280   6.600  1.00  0.00    -0.271 OA
BRANCH   7  10
HETATM   10  N   UNL     1      41.704 -11.680   3.920  1.00  0.00    -0.205 NA
HETATM   11  C   UNL     1      41.040 -11.472   2.817  1.00  0.00     0.147 C 
BRANCH  11  12
HETATM   12  C   UNL     1      40.506 -12.365   1.756  1.00  0.00     0.019 A 
HETATM   13  C   UNL     1      41.316 -12.606   0.628  1.00  0.00     0.101 A 
HETATM   14  C   UNL     1      40.828 -13.371  -0.446  1.00  0.00     0.069 A 
HETATM   15 CL   UNL     1      41.761 -13.623  -1.878  1.00  0.00    -0.081 Cl
HETATM   16  C   UNL     1      39.557 -13.936  -0.386  1.00  0.00     0.050 A 
HETATM   17  C   UNL     1      38.780 -13.738   0.749  1.00  0.00     0.036 A 
HETATM   18 CL   UNL     1      37.197 -14.412   0.833  1.00  0.00    -0.084 Cl
HETATM   19  C   UNL     1      39.251 -12.972   1.818  1.00  0.00     0.039 A 
BRANCH  13  20
HETATM   20  O   UNL     1      42.565 -12.039   0.554  1.00  0.00    -0.353 OA
HETATM   21  C   UNL     1      42.543 -10.810  -0.181  1.00  0.00     0.210 C 
ENDBRANCH  13  20
ENDBRANCH  11  12
ENDBRANCH   7  10
ENDBRANCH   1   6
BRANCH   2  22
HETATM   22  C   UNL     1      45.241 -13.404   7.360  1.00  0.00     0.230 A 
HETATM   23  N   UNL     1      46.431 -13.129   6.832  1.00  0.00    -0.081 NA
HETATM   24  O   UNL     1      46.955 -12.142   7.667  1.00  0.00    -0.103 OA
HETATM   25  N   UNL     1      46.076 -11.842   8.698  1.00  0.00    -0.083 NA
HETATM   26  C   UNL     1      45.012 -12.618   8.505  1.00  0.00     0.201 A 
BRANCH  26  27
HETATM   27  N   UNL     1      43.921 -12.614   9.288  1.00  0.00    -0.379 N 
HETATM   28  H   UNL     1      43.278 -13.401   9.264  1.00  0.00     0.158 HD
HETATM   29  H   UNL     1      43.583 -11.796   9.787  1.00  0.00     0.158 HD
ENDBRANCH  26  27
ENDBRANCH   2  22
BRANCH   5  30
HETATM   30  C   UNL     1      41.513 -16.097   5.271  1.00  0.00     0.298 C 
BRANCH  30  31
HETATM   31  N   UNL     1      41.773 -16.713   3.891  1.00  0.00    -0.066 N 
HETATM   32  H   UNL     1      41.590 -17.718   4.036  1.00  0.00     0.280 HD
HETATM   33  C   UNL     1      40.757 -16.217   2.891  1.00  0.00     0.235 C 
HETATM   34  C   UNL     1      40.814 -16.989   1.578  1.00  0.00     0.028 C 
HETATM   35  C   UNL     1      42.007 -16.604   0.712  1.00  0.00     0.002 C 
HETATM   36  C   UNL     1      43.296 -17.357   1.020  1.00  0.00     0.002 C 
HETATM   37  C   UNL     1      43.599 -17.651   2.485  1.00  0.00     0.028 C 
HETATM   38  C   UNL     1      43.213 -16.554   3.469  1.00  0.00     0.235 C 
ENDBRANCH  30  31
ENDBRANCH   5  30
TORSDOF 8
ENDMDL
MODEL 3
REMARK VINA RESULT:      -8.2      1.438      2.141
REMARK  8 active torsions:
REMARK  status: ('A' for Active; 'I' for Inactive)
REMARK    1  A    between atoms: O_2  and  C_3 
REMARK    2  A    between atoms: C_10  and  C_11 
REMARK    3  A    between atoms: N_12  and  N_13 
REMARK       I    between atoms: N_13  and  C_14 
REMARK    4  A    between atoms: C_14  and  C_15 
REMARK    5  A    between atoms: N_16  and  C_17 
REMARK    6  A    between atoms: C_21  and  N_22 
REMARK    7  A    between atoms: C_25  and  C_26 
REMARK    8  A    between atoms: C_26  and  N_27 
ROOT
HETATM    1  C   UNL     1      40.846 -14.577   2.025  1.00  0.00     0.154 A 
HETATM    2  N   UNL     1      41.202 -13.907   3.201  1.00  0.00    -0.184 N 
HETATM    3  N   UNL     1      40.140 -13.143   3.599  1.00  0.00    -0.058 NA
HETATM    4  N   UNL     1      39.170 -13.232   2.713  1.00  0.00    -0.132 NA
HETATM    5  C   UNL     1      39.579 -14.081   1.731  1.00  0.00     0.118 A 
ENDROOT
BRANCH   1   6
HETATM    6  C   UNL     1      41.595 -15.479   1.179  1.00  0.00     0.271 C 
HETATM    7  N   UNL     1      41.988 -16.703   1.717  1.00  0.00    -0.145 NA
HETATM    8  H   UNL     1      42.097 -16.703   2.731  1.00  0.00     0.158 HD
HETATM    9  O   UNL     1      41.742 -15.198  -0.010  1.00  0.00    -0.271 OA
BRANCH   7  10
HETATM   10  N   UNL     1      43.042 -17.354   1.148  1.00  0.00    -0.205 NA
HETATM   11  C   UNL     1      43.802 -18.189   1.800  1.00  0.00     0.147 C 
BRANCH  11  12
HETATM   12  C   UNL     1      43.866 -18.629   3.218  1.00  0.00     0.019 A 
HETATM   13  C   UNL     1      44.434 -19.889   3.494  1.00  0.00     0.101 A 
HETATM   14  C   UNL     1      44.442 -20.393   4.805  1.00  0.00     0.069 A 
HETATM   15 CL   UNL     1      45.057 -21.965   5.170  1.00  0.00    -0.081 Cl
HETATM   16  C   UNL     1      43.929 -19.633   5.853  1.00  0.00     0.050 A 
HETATM   17  C   UNL     1      43.415 -18.370   5.586  1.00  0.00     0.036 A 
HETATM   18 CL   UNL     1      42.757 -17.423   6.866  1.00  0.00    -0.084 Cl
HETATM   19  C   UNL     1      43.394 -17.862   4.285  1.00  0.00     0.039 A 
BRANCH  13  20
HETATM   20  O   UNL     1      44.928 -20.651   2.463  1.00  0.00    -0.353 OA
HETATM   21  C   UNL     1      43.962 -21.605   2.003  1.00  0.00     0.210 C 
ENDBRANCH  13  20
ENDBRANCH  11  12
ENDBRANCH   7  10
ENDBRANCH   1   6
BRANCH   2  22
HETATM   22  C   UNL     1      42.418 -13.886   3.925  1.00  0.00     0.230 A 
HETATM   23  N   UNL     1      43.575 -13.697   3.295  1.00  0.00    -0.081 NA
HETATM   24  O   UNL     1      44.526 -13.725   4.315  1.00  0.00    -0.103 OA
HETATM   25  N   UNL     1      43.930 -13.944   5.549  1.00  0.00    -0.083 NA
HETATM   26  C   UNL     1      42.624 -14.037   5.309  1.00  0.00     0.201 A 
BRANCH  26  27
HETATM   27  N   UNL     1      41.694 -14.233   6.257  1.00  0.00    -0.379 N 
HETATM   28  H   UNL     1      41.960 -14.220   7.238  1.00  0.00     0.158 HD
HETATM   29  H   UNL     1      40.756 -14.576   6.070  1.00  0.00     0.158 HD
ENDBRANCH  26  27
ENDBRANCH   2  22
BRANCH   5  30
HETATM   30  C   UNL     1      38.671 -14.305   0.564  1.00  0.00     0.298 C 
BRANCH  30  31
HETATM   31  N   UNL     1      39.271 -13.743  -0.730  1.00  0.00    -0.066 N 
HETATM   32  H   UNL     1      40.122 -14.309  -0.870  1.00  0.00     0.280 HD
HETATM   33  C   UNL     1      38.358 -14.020  -1.901  1.00  0.00     0.235 C 
HETATM   34  C   UNL     1      39.021 -13.711  -3.237  1.00  0.00     0.028 C 
HETATM   35  C   UNL     1      39.109 -12.218  -3.527  1.00  0.00     0.002 C 
HETATM   36  C   UNL     1      40.332 -11.519  -2.945  1.00  0.00     0.002 C 
HETATM   37  C   UNL     1      40.795 -11.961  -1.561  1.00  0.00     0.028 C 
HETATM   38  C   UNL     1      39.686 -12.301  -0.574  1.00  0.00     0.235 C 
ENDBRANCH  30  31
ENDBRANCH   5  30
TORSDOF 8
ENDMDL
MODEL 4
REMARK VINA RESULT:      -8.1      3.449      7.014
REMARK  8 active torsions:
REMARK  status: ('A' for Active; 'I' for Inactive)
REMARK    1  A    between atoms: O_2  and  C_3 
REMARK    2  A    between atoms: C_10  and  C_11 
REMARK    3  A    between atoms: N_12  and  N_13 
REMARK       I    between atoms: N_13  and  C_14 
REMARK    4  A    between atoms: C_14  and  C_15 
REMARK    5  A    between atoms: N_16  and  C_17 
REMARK    6  A    between atoms: C_21  and  N_22 
REMARK    7  A    between atoms: C_25  and  C_26 
REMARK    8  A    between atoms: C_26  and  N_27 
ROOT
HETATM    1  C   UNL     1      41.331 -13.235   3.782  1.00  0.00     0.154 A 
HETATM    2  N   UNL     1      40.885 -12.495   4.882  1.00  0.00    -0.184 N 
HETATM    3  N   UNL     1      39.929 -13.224   5.533  1.00  0.00    -0.058 NA
HETATM    4  N   UNL     1      39.693 -14.338   4.872  1.00  0.00    -0.132 NA
HETATM    5  C   UNL     1      40.516 -14.363   3.788  1.00  0.00     0.118 A 
ENDROOT
BRANCH   1   6
HETATM    6  C   UNL     1      42.301 -12.925   2.755  1.00  0.00     0.271 C 
HETATM    7  N   UNL     1      42.048 -11.833   1.927  1.00  0.00    -0.145 NA
HETATM    8  H   UNL     1      41.059 -11.605   1.818  1.00  0.00     0.158 HD
HETATM    9  O   UNL     1      43.365 -13.543   2.733  1.00  0.00    -0.271 OA
BRANCH   7  10
HETATM   10  N   UNL     1      42.660 -11.786   0.710  1.00  0.00    -0.205 NA
HETATM   11  C   UNL     1      42.094 -12.196  -0.391  1.00  0.00     0.147 C 
BRANCH  11  12
HETATM   12  C   UNL     1      40.797 -12.853  -0.697  1.00  0.00     0.019 A 
HETATM   13  C   UNL     1      40.699 -13.597  -1.890  1.00  0.00     0.101 A 
HETATM   14  C   UNL     1      39.473 -14.167  -2.273  1.00  0.00     0.069 A 
HETATM   15 CL   UNL     1      39.294 -15.018  -3.765  1.00  0.00    -0.081 Cl
HETATM   16  C   UNL     1      38.354 -14.042  -1.454  1.00  0.00     0.050 A 
HETATM   17  C   UNL     1      38.466 -13.351  -0.254  1.00  0.00     0.036 A 
HETATM   18 CL   UNL     1      37.087 -13.168   0.763  1.00  0.00    -0.084 Cl
HETATM   19  C   UNL     1      39.677 -12.772   0.133  1.00  0.00     0.039 A 
BRANCH  13  20
HETATM   20  O   UNL     1      41.794 -13.711  -2.711  1.00  0.00    -0.353 OA
HETATM   21  C   UNL     1      41.833 -12.663  -3.687  1.00  0.00     0.210 C 
ENDBRANCH  13  20
ENDBRANCH  11  12
ENDBRANCH   7  10
ENDBRANCH   1   6
BRANCH   2  22
HETATM   22  C   UNL     1      41.230 -11.196   5.328  1.00  0.00     0.230 A 
HETATM   23  N   UNL     1      41.243 -10.172   4.478  1.00  0.00    -0.081 NA
HETATM   24  O   UNL     1      41.608  -9.081   5.266  1.00  0.00    -0.103 OA
HETATM   25  N   UNL     1      41.824  -9.464   6.582  1.00  0.00    -0.083 NA
HETATM   26  C   UNL     1      41.584 -10.773   6.623  1.00  0.00     0.201 A 
BRANCH  26  27
HETATM   27  N   UNL     1      41.667 -11.522   7.733  1.00  0.00    -0.379 N 
HETATM   28  H   UNL     1      42.362 -11.302   8.442  1.00  0.00     0.158 HD
HETATM   29  H   UNL     1      41.202 -12.418   7.850  1.00  0.00     0.158 HD
ENDBRANCH  26  27
ENDBRANCH   2  22
BRANCH   5  30
HETATM   30  C   UNL     1      40.399 -15.510   2.835  1.00  0.00     0.298 C 
BRANCH  30  31
HETATM   31  N   UNL     1      41.692 -16.332   2.785  1.00  0.00    -0.066 N 
HETATM   32  H   UNL     1      42.436 -15.617   2.808  1.00  0.00     0.280 HD
HETATM   33  C   UNL     1      41.838 -17.165   4.035  1.00  0.00     0.235 C 
HETATM   34  C   UNL     1      43.219 -17.799   4.149  1.00  0.00     0.028 C 
HETATM   35  C   UNL     1      43.408 -18.987   3.212  1.00  0.00     0.002 C 
HETATM   36  C   UNL     1      43.869 -18.629   1.804  1.00  0.00     0.002 C 
HETATM   37  C   UNL     1      43.284 -17.368   1.178  1.00  0.00     0.028 C 
HETATM   38  C   UNL     1      41.818 -17.098   1.490  1.00  0.00     0.235 C 
ENDBRANCH  30  31
ENDBRANCH   5  30
TORSDOF 8
ENDMDL
MODEL 5
REMARK VINA RESULT:      -8.0      2.617      5.952
REMARK  8 active torsions:
REMARK  status: ('A' for Active; 'I' for Inactive)
REMARK    1  A    between atoms: O_2  and  C_3 
REMARK    2  A    between atoms: C_10  and  C_11 
REMARK    3  A    between atoms: N_12  and  N_13 
REMARK       I    between atoms: N_13  and  C_14 
REMARK    4  A    between atoms: C_14  and  C_15 
REMARK    5  A    between atoms: N_16  and  C_17 
REMARK    6  A    between atoms: C_21  and  N_22 
REMARK    7  A    between atoms: C_25  and  C_26 
REMARK    8  A    between atoms: C_26  and  N_27 
ROOT
HETATM    1  C   UNL     1      40.517 -12.424   0.073  1.00  0.00     0.154 A 
HETATM    2  N   UNL     1      39.914 -13.027  -1.036  1.00  0.00    -0.184 N 
HETATM    3  N   UNL     1      38.614 -12.607  -1.099  1.00  0.00    -0.058 NA
HETATM    4  N   UNL     1      38.343 -11.841  -0.063  1.00  0.00    -0.132 NA
HETATM    5  C   UNL     1      39.476 -11.729   0.682  1.00  0.00     0.118 A 
ENDROOT
BRANCH   1   6
HETATM    6  C   UNL     1      41.854 -12.543   0.611  1.00  0.00     0.271 C 
HETATM    7  N   UNL     1      42.048 -13.395   1.697  1.00  0.00    -0.145 NA
HETATM    8  H   UNL     1      41.220 -13.533   2.278  1.00  0.00     0.158 HD
HETATM    9  O   UNL     1      42.786 -12.000   0.019  1.00  0.00    -0.271 OA
BRANCH   7  10
HETATM   10  N   UNL     1      43.134 -13.194   2.496  1.00  0.00    -0.205 NA
HETATM   11  C   UNL     1      43.624 -14.113   3.280  1.00  0.00     0.147 C 
BRANCH  11  12
HETATM   12  C   UNL     1      43.208 -15.496   3.627  1.00  0.00     0.019 A 
HETATM   13  C   UNL     1      42.953 -15.789   4.982  1.00  0.00     0.101 A 
HETATM   14  C   UNL     1      42.641 -17.101   5.379  1.00  0.00     0.069 A 
HETATM   15 CL   UNL     1      42.399 -17.513   7.039  1.00  0.00    -0.081 Cl
HETATM   16  C   UNL     1      42.537 -18.115   4.432  1.00  0.00     0.050 A 
HETATM   17  C   UNL     1      42.740 -17.814   3.090  1.00  0.00     0.036 A 
HETATM   18 CL   UNL     1      42.636 -19.060   1.906  1.00  0.00    -0.084 Cl
HETATM   19  C   UNL     1      43.059 -16.516   2.685  1.00  0.00     0.039 A 
BRANCH  13  20
HETATM   20  O   UNL     1      43.069 -14.797   5.925  1.00  0.00    -0.353 OA
HETATM   21  C   UNL     1      44.315 -14.880   6.627  1.00  0.00     0.210 C 
ENDBRANCH  13  20
ENDBRANCH  11  12
ENDBRANCH   7  10
ENDBRANCH   1   6
BRANCH   2  22
HETATM   22  C   UNL     1      40.417 -13.960  -1.973  1.00  0.00     0.230 A 
HETATM   23  N   UNL     1      40.482 -13.652  -3.266  1.00  0.00    -0.081 NA
HETATM   24  O   UNL     1      41.031 -14.788  -3.860  1.00  0.00    -0.103 OA
HETATM   25  N   UNL     1      41.280 -15.775  -2.917  1.00  0.00    -0.083 NA
HETATM   26  C   UNL     1      40.906 -15.261  -1.747  1.00  0.00     0.201 A 
BRANCH  26  27
HETATM   27  N   UNL     1      41.005 -15.904  -0.573  1.00  0.00    -0.379 N 
HETATM   28  H   UNL     1      40.170 -16.079  -0.020  1.00  0.00     0.158 HD
HETATM   29  H   UNL     1      41.884 -16.082  -0.095  1.00  0.00     0.158 HD
ENDBRANCH  26  27
ENDBRANCH   2  22
BRANCH   5  30
HETATM   30  C   UNL     1      39.413 -10.951   1.957  1.00  0.00     0.298 C 
BRANCH  30  31
HETATM   31  N   UNL     1      39.980 -11.754   3.133  1.00  0.00    -0.066 N 
HETATM   32  H   UNL     1      40.790 -12.246   2.724  1.00  0.00     0.280 HD
HETATM   33  C   UNL     1      40.516 -10.827   4.198  1.00  0.00     0.235 C 
HETATM   34  C   UNL     1      41.315 -11.570   5.262  1.00  0.00     0.028 C 
HETATM   35  C   UNL     1      40.435 -12.344   6.235  1.00  0.00     0.002 C 
HETATM   36  C   UNL     1      40.050 -13.747   5.780  1.00  0.00     0.002 C 
HETATM   37  C   UNL     1      39.742 -13.940   4.299  1.00  0.00     0.028 C 
HETATM   38  C   UNL     1      39.001 -12.791   3.626  1.00  0.00     0.235 C 
ENDBRANCH  30  31
ENDBRANCH   5  30
TORSDOF 8
ENDMDL
MODEL 6
REMARK VINA RESULT:      -7.9      2.594      4.081
REMARK  8 active torsions:
REMARK  status: ('A' for Active; 'I' for Inactive)
REMARK    1  A    between atoms: O_2  and  C_3 
REMARK    2  A    between atoms: C_10  and  C_11 
REMARK    3  A    between atoms: N_12  and  N_13 
REMARK       I    between atoms: N_13  and  C_14 
REMARK    4  A    between atoms: C_14  and  C_15 
REMARK    5  A    between atoms: N_16  and  C_17 
REMARK    6  A    between atoms: C_21  and  N_22 
REMARK    7  A    between atoms: C_25  and  C_26 
REMARK    8  A    between atoms: C_26  and  N_27 
ROOT
HETATM    1  C   UNL     1      40.344 -13.211   3.303  1.00  0.00     0.154 A 
HETATM    2  N   UNL     1      39.338 -12.361   3.776  1.00  0.00    -0.184 N 
HETATM    3  N   UNL     1      38.422 -12.180   2.777  1.00  0.00    -0.058 NA
HETATM    4  N   UNL     1      38.825 -12.800   1.686  1.00  0.00    -0.132 NA
HETATM    5  C   UNL     1      40.004 -13.418   1.969  1.00  0.00     0.118 A 
ENDROOT
BRANCH   1   6
HETATM    6  C   UNL     1      41.551 -13.699   3.932  1.00  0.00     0.271 C 
HETATM    7  N   UNL     1      41.449 -14.814   4.762  1.00  0.00    -0.145 NA
HETATM    8  H   UNL     1      40.532 -14.940   5.190  1.00  0.00     0.158 HD
HETATM    9  O   UNL     1      42.632 -13.206   3.613  1.00  0.00    -0.271 OA
BRANCH   7  10
HETATM   10  N   UNL     1      42.419 -15.017   5.698  1.00  0.00    -0.205 NA
HETATM   11  C   UNL     1      43.311 -15.965   5.610  1.00  0.00     0.147 C 
BRANCH  11  12
HETATM   12  C   UNL     1      43.536 -17.077   4.651  1.00  0.00     0.019 A 
HETATM   13  C   UNL     1      43.838 -18.350   5.175  1.00  0.00     0.101 A 
HETATM   14  C   UNL     1      44.147 -19.418   4.315  1.00  0.00     0.069 A 
HETATM   15 CL   UNL     1      44.598 -20.970   4.922  1.00  0.00    -0.081 Cl
HETATM   16  C   UNL     1      44.112 -19.240   2.935  1.00  0.00     0.050 A 
HETATM   17  C   UNL     1      43.765 -17.998   2.420  1.00  0.00     0.036 A 
HETATM   18 CL   UNL     1      43.738 -17.753   0.714  1.00  0.00    -0.084 Cl
HETATM   19  C   UNL     1      43.466 -16.926   3.265  1.00  0.00     0.039 A 
BRANCH  13  20
HETATM   20  O   UNL     1      43.890 -18.529   6.536  1.00  0.00    -0.353 OA
HETATM   21  C   UNL     1      45.187 -18.219   7.060  1.00  0.00     0.210 C 
ENDBRANCH  13  20
ENDBRANCH  11  12
ENDBRANCH   7  10
ENDBRANCH   1   6
BRANCH   2  22
HETATM   22  C   UNL     1      39.194 -11.694   5.016  1.00  0.00     0.230 A 
HETATM   23  N   UNL     1      38.855 -10.407   5.055  1.00  0.00    -0.081 NA
HETATM   24  O   UNL     1      38.798 -10.111   6.417  1.00  0.00    -0.103 OA
HETATM   25  N   UNL     1      39.117 -11.223   7.184  1.00  0.00    -0.083 NA
HETATM   26  C   UNL     1      39.355 -12.205   6.317  1.00  0.00     0.201 A 
BRANCH  26  27
HETATM   27  N   UNL     1      39.682 -13.459   6.667  1.00  0.00    -0.379 N 
HETATM   28  H   UNL     1      40.657 -13.706   6.815  1.00  0.00     0.158 HD
HETATM   29  H   UNL     1      39.040 -14.246   6.627  1.00  0.00     0.158 HD
ENDBRANCH  26  27
ENDBRANCH   2  22
BRANCH   5  30
HETATM   30  C   UNL     1      40.704 -14.148   0.868  1.00  0.00     0.298 C 
BRANCH  30  31
HETATM   31  N   UNL     1      41.006 -13.223  -0.316  1.00  0.00    -0.066 N 
HETATM   32  H   UNL     1      40.116 -12.723  -0.468  1.00  0.00     0.280 HD
HETATM   33  C   UNL     1      42.035 -12.188   0.070  1.00  0.00     0.235 C 
HETATM   34  C   UNL     1      42.179 -11.095  -0.982  1.00  0.00     0.028 C 
HETATM   35  C   UNL     1      42.952 -11.552  -2.214  1.00  0.00     0.002 C 
HETATM   36  C   UNL     1      42.112 -12.242  -3.282  1.00  0.00     0.002 C 
HETATM   37  C   UNL     1      41.002 -13.172  -2.804  1.00  0.00     0.028 C 
HETATM   38  C   UNL     1      41.326 -14.002  -1.569  1.00  0.00     0.235 C 
ENDBRANCH  30  31
ENDBRANCH   5  30
TORSDOF 8
ENDMDL
MODEL 7
REMARK VINA RESULT:      -7.9      3.414      7.903
REMARK  8 active torsions:
REMARK  status: ('A' for Active; 'I' for Inactive)
REMARK    1  A    between atoms: O_2  and  C_3 
REMARK    2  A    between atoms: C_10  and  C_11 
REMARK    3  A    between atoms: N_12  and  N_13 
REMARK       I    between atoms: N_13  and  C_14 
REMARK    4  A    between atoms: C_14  and  C_15 
REMARK    5  A    between atoms: N_16  and  C_17 
REMARK    6  A    between atoms: C_21  and  N_22 
REMARK    7  A    between atoms: C_25  and  C_26 
REMARK    8  A    between atoms: C_26  and  N_27 
ROOT
HETATM    1  C   UNL     1      41.806 -14.578   3.607  1.00  0.00     0.154 A 
HETATM    2  N   UNL     1      40.738 -14.548   4.511  1.00  0.00    -0.184 N 
HETATM    3  N   UNL     1      40.437 -15.834   4.863  1.00  0.00    -0.058 NA
HETATM    4  N   UNL     1      41.196 -16.671   4.186  1.00  0.00    -0.132 NA
HETATM    5  C   UNL     1      42.025 -15.935   3.396  1.00  0.00     0.118 A 
ENDROOT
BRANCH   1   6
HETATM    6  C   UNL     1      42.491 -13.513   2.908  1.00  0.00     0.271 C 
HETATM    7  N   UNL     1      41.792 -12.827   1.917  1.00  0.00    -0.145 NA
HETATM    8  H   UNL     1      41.046 -13.366   1.477  1.00  0.00     0.158 HD
HETATM    9  O   UNL     1      43.605 -13.164   3.297  1.00  0.00    -0.271 OA
BRANCH   7  10
HETATM   10  N   UNL     1      42.503 -12.169   0.958  1.00  0.00    -0.205 NA
HETATM   11  C   UNL     1      42.150 -12.138  -0.298  1.00  0.00     0.147 C 
BRANCH  11  12
HETATM   12  C   UNL     1      41.057 -12.778  -1.074  1.00  0.00     0.019 A 
HETATM   13  C   UNL     1      39.802 -12.137  -1.097  1.00  0.00     0.101 A 
HETATM   14  C   UNL     1      38.708 -12.739  -1.741  1.00  0.00     0.069 A 
HETATM   15 CL   UNL     1      37.136 -12.023  -1.724  1.00  0.00    -0.081 Cl
HETATM   16  C   UNL     1      38.865 -13.954  -2.403  1.00  0.00     0.050 A 
HETATM   17  C   UNL     1      40.115 -14.559  -2.422  1.00  0.00     0.036 A 
HETATM   18 CL   UNL     1      40.324 -16.073  -3.218  1.00  0.00    -0.084 Cl
HETATM   19  C   UNL     1      41.208 -13.974  -1.777  1.00  0.00     0.039 A 
BRANCH  13  20
HETATM   20  O   UNL     1      39.635 -10.946  -0.433  1.00  0.00    -0.353 OA
HETATM   21  C   UNL     1      39.723  -9.828  -1.325  1.00  0.00     0.210 C 
ENDBRANCH  13  20
ENDBRANCH  11  12
ENDBRANCH   7  10
ENDBRANCH   1   6
BRANCH   2  22
HETATM   22  C   UNL     1      39.976 -13.466   5.011  1.00  0.00     0.230 A 
HETATM   23  N   UNL     1      39.930 -13.220   6.318  1.00  0.00    -0.081 NA
HETATM   24  O   UNL     1      39.112 -12.095   6.425  1.00  0.00    -0.103 OA
HETATM   25  N   UNL     1      38.663 -11.683   5.178  1.00  0.00    -0.083 NA
HETATM   26  C   UNL     1      39.203 -12.527   4.301  1.00  0.00     0.201 A 
BRANCH  26  27
HETATM   27  N   UNL     1      39.022 -12.455   2.973  1.00  0.00    -0.379 N 
HETATM   28  H   UNL     1      39.717 -12.850   2.346  1.00  0.00     0.158 HD
HETATM   29  H   UNL     1      38.320 -11.871   2.527  1.00  0.00     0.158 HD
ENDBRANCH  26  27
ENDBRANCH   2  22
BRANCH   5  30
HETATM   30  C   UNL     1      42.954 -16.660   2.475  1.00  0.00     0.298 C 
BRANCH  30  31
HETATM   31  N   UNL     1      43.181 -18.106   2.930  1.00  0.00    -0.066 N 
HETATM   32  H   UNL     1      42.266 -18.386   3.316  1.00  0.00     0.280 HD
HETATM   33  C   UNL     1      43.453 -18.998   1.743  1.00  0.00     0.235 C 
HETATM   34  C   UNL     1      43.431 -20.476   2.113  1.00  0.00     0.028 C 
HETATM   35  C   UNL     1      44.681 -20.921   2.863  1.00  0.00     0.002 C 
HETATM   36  C   UNL     1      44.635 -20.711   4.372  1.00  0.00     0.002 C 
HETATM   37  C   UNL     1      43.967 -19.438   4.880  1.00  0.00     0.028 C 
HETATM   38  C   UNL     1      44.203 -18.191   4.038  1.00  0.00     0.235 C 
ENDBRANCH  30  31
ENDBRANCH   5  30
TORSDOF 8
ENDMDL
MODEL 8
REMARK VINA RESULT:      -7.8      2.598      4.046
REMARK  8 active torsions:
REMARK  status: ('A' for Active; 'I' for Inactive)
REMARK    1  A    between atoms: O_2  and  C_3 
REMARK    2  A    between atoms: C_10  and  C_11 
REMARK    3  A    between atoms: N_12  and  N_13 
REMARK       I    between atoms: N_13  and  C_14 
REMARK    4  A    between atoms: C_14  and  C_15 
REMARK    5  A    between atoms: N_16  and  C_17 
REMARK    6  A    between atoms: C_21  and  N_22 
REMARK    7  A    between atoms: C_25  and  C_26 
REMARK    8  A    between atoms: C_26  and  N_27 
ROOT
HETATM    1  C   UNL     1      39.722 -12.082   1.375  1.00  0.00     0.154 A 
HETATM    2  N   UNL     1      38.724 -11.877   2.334  1.00  0.00    -0.184 N 
HETATM    3  N   UNL     1      37.512 -11.877   1.701  1.00  0.00    -0.058 NA
HETATM    4  N   UNL     1      37.690 -11.995   0.401  1.00  0.00    -0.132 NA
HETATM    5  C   UNL     1      39.027 -12.098   0.170  1.00  0.00     0.118 A 
ENDROOT
BRANCH   1   6
HETATM    6  C   UNL     1      41.162 -12.140   1.497  1.00  0.00     0.271 C 
HETATM    7  N   UNL     1      41.721 -13.267   2.099  1.00  0.00    -0.145 NA
HETATM    8  H   UNL     1      41.106 -13.740   2.761  1.00  0.00     0.158 HD
HETATM    9  O   UNL     1      41.843 -11.271   0.954  1.00  0.00    -0.271 OA
BRANCH   7  10
HETATM   10  N   UNL     1      42.970 -13.164   2.634  1.00  0.00    -0.205 NA
HETATM   11  C   UNL     1      43.566 -14.147   3.252  1.00  0.00     0.147 C 
BRANCH  11  12
HETATM   12  C   UNL     1      43.151 -15.521   3.634  1.00  0.00     0.019 A 
HETATM   13  C   UNL     1      42.776 -15.749   4.973  1.00  0.00     0.101 A 
HETATM   14  C   UNL     1      42.459 -17.047   5.411  1.00  0.00     0.069 A 
HETATM   15 CL   UNL     1      42.071 -17.378   7.061  1.00  0.00    -0.081 Cl
HETATM   16  C   UNL     1      42.469 -18.112   4.516  1.00  0.00     0.050 A 
HETATM   17  C   UNL     1      42.790 -17.876   3.185  1.00  0.00     0.036 A 
HETATM   18 CL   UNL     1      42.827 -19.186   2.066  1.00  0.00    -0.084 Cl
HETATM   19  C   UNL     1      43.116 -16.593   2.740  1.00  0.00     0.039 A 
BRANCH  13  20
HETATM   20  O   UNL     1      42.780 -14.706   5.867  1.00  0.00    -0.353 OA
HETATM   21  C   UNL     1      44.011 -14.641   6.596  1.00  0.00     0.210 C 
ENDBRANCH  13  20
ENDBRANCH  11  12
ENDBRANCH   7  10
ENDBRANCH   1   6
BRANCH   2  22
HETATM   22  C   UNL     1      38.810 -11.642   3.727  1.00  0.00     0.230 A 
HETATM   23  N   UNL     1      38.264 -10.554   4.263  1.00  0.00    -0.081 NA
HETATM   24  O   UNL     1      38.534 -10.673   5.627  1.00  0.00    -0.103 OA
HETATM   25  N   UNL     1      39.253 -11.829   5.894  1.00  0.00    -0.083 NA
HETATM   26  C   UNL     1      39.419 -12.434   4.719  1.00  0.00     0.201 A 
BRANCH  26  27
HETATM   27  N   UNL     1      40.057 -13.603   4.554  1.00  0.00    -0.379 N 
HETATM   28  H   UNL     1      39.903 -14.361   5.214  1.00  0.00     0.158 HD
HETATM   29  H   UNL     1      40.832 -13.742   3.912  1.00  0.00     0.158 HD
ENDBRANCH  26  27
ENDBRANCH   2  22
BRANCH   5  30
HETATM   30  C   UNL     1      39.497 -12.183  -1.247  1.00  0.00     0.298 C 
BRANCH  30  31
HETATM   31  N   UNL     1      39.297 -13.591  -1.822  1.00  0.00    -0.066 N 
HETATM   32  H   UNL     1      39.060 -14.160  -0.994  1.00  0.00     0.280 HD
HETATM   33  C   UNL     1      38.099 -13.622  -2.739  1.00  0.00     0.235 C 
HETATM   34  C   UNL     1      37.707 -15.042  -3.131  1.00  0.00     0.028 C 
HETATM   35  C   UNL     1      38.644 -15.654  -4.166  1.00  0.00     0.002 C 
HETATM   36  C   UNL     1      39.884 -16.330  -3.592  1.00  0.00     0.002 C 
HETATM   37  C   UNL     1      40.553 -15.661  -2.395  1.00  0.00     0.028 C 
HETATM   38  C   UNL     1      40.571 -14.138  -2.418  1.00  0.00     0.235 C 
ENDBRANCH  30  31
ENDBRANCH   5  30
TORSDOF 8
ENDMDL
MODEL 9
REMARK VINA RESULT:      -7.7      3.573      7.633
REMARK  8 active torsions:
REMARK  status: ('A' for Active; 'I' for Inactive)
REMARK    1  A    between atoms: O_2  and  C_3 
REMARK    2  A    between atoms: C_10  and  C_11 
REMARK    3  A    between atoms: N_12  and  N_13 
REMARK       I    between atoms: N_13  and  C_14 
REMARK    4  A    between atoms: C_14  and  C_15 
REMARK    5  A    between atoms: N_16  and  C_17 
REMARK    6  A    between atoms: C_21  and  N_22 
REMARK    7  A    between atoms: C_25  and  C_26 
REMARK    8  A    between atoms: C_26  and  N_27 
ROOT
HETATM    1  C   UNL     1      41.837 -14.648   3.796  1.00  0.00     0.154 A 
HETATM    2  N   UNL     1      40.967 -14.529   4.886  1.00  0.00    -0.184 N 
HETATM    3  N   UNL     1      40.562 -15.783   5.251  1.00  0.00    -0.058 NA
HETATM    4  N   UNL     1      41.061 -16.672   4.417  1.00  0.00    -0.132 NA
HETATM    5  C   UNL     1      41.824 -16.009   3.506  1.00  0.00     0.118 A 
ENDROOT
BRANCH   1   6
HETATM    6  C   UNL     1      42.523 -13.645   3.011  1.00  0.00     0.271 C 
HETATM    7  N   UNL     1      41.775 -12.913   2.091  1.00  0.00    -0.145 NA
HETATM    8  H   UNL     1      40.946 -13.394   1.742  1.00  0.00     0.158 HD
HETATM    9  O   UNL     1      43.696 -13.383   3.272  1.00  0.00    -0.271 OA
BRANCH   7  10
HETATM   10  N   UNL     1      42.426 -12.319   1.051  1.00  0.00    -0.205 NA
HETATM   11  C   UNL     1      41.835 -11.974  -0.059  1.00  0.00     0.147 C 
BRANCH  11  12
HETATM   12  C   UNL     1      40.455 -12.144  -0.584  1.00  0.00     0.019 A 
HETATM   13  C   UNL     1      40.192 -13.263  -1.399  1.00  0.00     0.101 A 
HETATM   14  C   UNL     1      38.929 -13.428  -1.994  1.00  0.00     0.069 A 
HETATM   15 CL   UNL     1      38.593 -14.744  -3.061  1.00  0.00    -0.081 Cl
HETATM   16  C   UNL     1      37.911 -12.511  -1.747  1.00  0.00     0.050 A 
HETATM   17  C   UNL     1      38.158 -11.435  -0.902  1.00  0.00     0.036 A 
HETATM   18 CL   UNL     1      36.918 -10.279  -0.601  1.00  0.00    -0.084 Cl
HETATM   19  C   UNL     1      39.412 -11.256  -0.313  1.00  0.00     0.039 A 
BRANCH  13  20
HETATM   20  O   UNL     1      41.196 -14.164  -1.660  1.00  0.00    -0.353 OA
HETATM   21  C   UNL     1      41.140 -15.287  -0.772  1.00  0.00     0.210 C 
ENDBRANCH  13  20
ENDBRANCH  11  12
ENDBRANCH   7  10
ENDBRANCH   1   6
BRANCH   2  22
HETATM   22  C   UNL     1      40.468 -13.386   5.553  1.00  0.00     0.230 A 
HETATM   23  N   UNL     1      39.181 -13.057   5.458  1.00  0.00    -0.081 NA
HETATM   24  O   UNL     1      39.064 -11.910   6.243  1.00  0.00    -0.103 OA
HETATM   25  N   UNL     1      40.288 -11.553   6.792  1.00  0.00    -0.083 NA
HETATM   26  C   UNL     1      41.156 -12.470   6.371  1.00  0.00     0.201 A 
BRANCH  26  27
HETATM   27  N   UNL     1      42.457 -12.487   6.701  1.00  0.00    -0.379 N 
HETATM   28  H   UNL     1      43.005 -13.330   6.555  1.00  0.00     0.158 HD
HETATM   29  H   UNL     1      42.910 -11.770   7.261  1.00  0.00     0.158 HD
ENDBRANCH  26  27
ENDBRANCH   2  22
BRANCH   5  30
HETATM   30  C   UNL     1      42.459 -16.797   2.405  1.00  0.00     0.298 C 
BRANCH  30  31
HETATM   31  N   UNL     1      42.939 -18.166   2.899  1.00  0.00    -0.066 N 
HETATM   32  H   UNL     1      42.098 -18.575   3.337  1.00  0.00     0.280 HD
HETATM   33  C   UNL     1      43.307 -19.051   1.733  1.00  0.00     0.235 C 
HETATM   34  C   UNL     1      43.543 -20.496   2.155  1.00  0.00     0.028 C 
HETATM   35  C   UNL     1      44.878 -20.699   2.862  1.00  0.00     0.002 C 
HETATM   36  C   UNL     1      44.859 -20.436   4.363  1.00  0.00     0.002 C 
HETATM   37  C   UNL     1      44.010 -19.269   4.856  1.00  0.00     0.028 C 
HETATM   38  C   UNL     1      44.004 -18.037   3.961  1.00  0.00     0.235 C 
ENDBRANCH  30  31
ENDBRANCH   5  30
TORSDOF 8
ENDMDL
MODEL 10
REMARK VINA RESULT:      -7.4      3.193      6.119
REMARK  8 active torsions:
REMARK  status: ('A' for Active; 'I' for Inactive)
REMARK    1  A    between atoms: O_2  and  C_3 
REMARK    2  A    between atoms: C_10  and  C_11 
REMARK    3  A    between atoms: N_12  and  N_13 
REMARK       I    between atoms: N_13  and  C_14 
REMARK    4  A    between atoms: C_14  and  C_15 
REMARK    5  A    between atoms: N_16  and  C_17 
REMARK    6  A    between atoms: C_21  and  N_22 
REMARK    7  A    between atoms: C_25  and  C_26 
REMARK    8  A    between atoms: C_26  and  N_27 
ROOT
HETATM    1  C   UNL     1      39.864 -13.050   0.277  1.00  0.00     0.154 A 
HETATM    2  N   UNL     1      39.351 -13.685  -0.859  1.00  0.00    -0.184 N 
HETATM    3  N   UNL     1      37.987 -13.681  -0.775  1.00  0.00    -0.058 NA
HETATM    4  N   UNL     1      37.613 -13.152   0.371  1.00  0.00    -0.132 NA
HETATM    5  C   UNL     1      38.735 -12.778   1.044  1.00  0.00     0.118 A 
ENDROOT
BRANCH   1   6
HETATM    6  C   UNL     1      41.226 -12.809   0.701  1.00  0.00     0.271 C 
HETATM    7  N   UNL     1      41.816 -13.737   1.557  1.00  0.00    -0.145 NA
HETATM    8  H   UNL     1      41.157 -14.257   2.137  1.00  0.00     0.158 HD
HETATM    9  O   UNL     1      41.853 -11.880   0.195  1.00  0.00    -0.271 OA
BRANCH   7  10
HETATM   10  N   UNL     1      42.873 -13.337   2.319  1.00  0.00    -0.205 NA
HETATM   11  C   UNL     1      43.490 -14.125   3.155  1.00  0.00     0.147 C 
BRANCH  11  12
HETATM   12  C   UNL     1      43.267 -15.525   3.603  1.00  0.00     0.019 A 
HETATM   13  C   UNL     1      42.757 -15.729   4.901  1.00  0.00     0.101 A 
HETATM   14  C   UNL     1      42.609 -17.031   5.409  1.00  0.00     0.069 A 
HETATM   15 CL   UNL     1      42.061 -17.320   7.021  1.00  0.00    -0.081 Cl
HETATM   16  C   UNL     1      42.922 -18.134   4.618  1.00  0.00     0.050 A 
HETATM   17  C   UNL     1      43.377 -17.930   3.321  1.00  0.00     0.036 A 
HETATM   18 CL   UNL     1      43.790 -19.281   2.335  1.00  0.00    -0.084 Cl
HETATM   19  C   UNL     1      43.537 -16.640   2.809  1.00  0.00     0.039 A 
BRANCH  13  20
HETATM   20  O   UNL     1      42.461 -14.647   5.692  1.00  0.00    -0.353 OA
HETATM   21  C   UNL     1      41.073 -14.299   5.612  1.00  0.00     0.210 C 
ENDBRANCH  13  20
ENDBRANCH  11  12
ENDBRANCH   7  10
ENDBRANCH   1   6
BRANCH   2  22
HETATM   22  C   UNL     1      40.006 -14.312  -1.946  1.00  0.00     0.230 A 
HETATM   23  N   UNL     1      39.815 -13.878  -3.190  1.00  0.00    -0.081 NA
HETATM   24  O   UNL     1      40.617 -14.713  -3.968  1.00  0.00    -0.103 OA
HETATM   25  N   UNL     1      41.274 -15.650  -3.183  1.00  0.00    -0.083 NA
HETATM   26  C   UNL     1      40.901 -15.398  -1.929  1.00  0.00     0.201 A 
BRANCH  26  27
HETATM   27  N   UNL     1      41.336 -16.082  -0.860  1.00  0.00    -0.379 N 
HETATM   28  H   UNL     1      42.292 -15.962  -0.537  1.00  0.00     0.158 HD
HETATM   29  H   UNL     1      40.833 -16.859  -0.440  1.00  0.00     0.158 HD
ENDBRANCH  26  27
ENDBRANCH   2  22
BRANCH   5  30
HETATM   30  C   UNL     1      38.581 -12.199   2.415  1.00  0.00     0.298 C 
BRANCH  30  31
HETATM   31  N   UNL     1      38.844 -10.689   2.419  1.00  0.00    -0.066 N 
HETATM   32  H   UNL     1      38.925 -10.453   1.417  1.00  0.00     0.280 HD
HETATM   33  C   UNL     1      37.646  -9.944   2.955  1.00  0.00     0.235 C 
HETATM   34  C   UNL     1      37.758  -8.439   2.742  1.00  0.00     0.028 C 
HETATM   35  C   UNL     1      38.733  -7.772   3.706  1.00  0.00     0.002 C 
HETATM   36  C   UNL     1      40.189  -7.779   3.256  1.00  0.00     0.002 C 
HETATM   37  C   UNL     1      40.696  -9.032   2.551  1.00  0.00     0.028 C 
HETATM   38  C   UNL     1      40.156 -10.352   3.086  1.00  0.00     0.235 C 
ENDBRANCH  30  31
ENDBRANCH   5  30
TORSDOF 8
ENDMDL
