MODEL 1
REMARK VINA RESULT:      -8.6      0.000      0.000
REMARK  5 active torsions:
REMARK  status: ('A' for Active; 'I' for Inactive)
REMARK    1  A    between atoms: C_8  and  N_9 
REMARK    2  A    between atoms: N_9  and  C_10 
REMARK    3  A    between atoms: C_10  and  C_11 
REMARK       I    between atoms: C_11  and  N_12 
REMARK    4  A    between atoms: N_12  and  N_13 
REMARK    5  A    between atoms: C_14  and  C_15 
ROOT
HETATM    1  C   UNL     1      42.748 -13.684   2.455  1.00  0.00     0.250 C 
HETATM    2  N   UNL     1      42.549 -15.006   2.054  1.00  0.00    -0.246 N 
HETATM    3  O   UNL     1      43.546 -13.318   3.316  1.00  0.00    -0.270 OA
HETATM    4  H   UNL     1      42.096 -15.177   1.161  1.00  0.00     0.192 HD
ENDROOT
BRANCH   2   5
HETATM    5  N   UNL     1      43.259 -16.095   2.504  1.00  0.00    -0.184 NA
HETATM    6  C   UNL     1      42.710 -16.880   3.375  1.00  0.00     0.153 C 
BRANCH   6   7
HETATM    7  C   UNL     1      43.448 -18.022   3.891  1.00  0.00     0.018 A 
HETATM    8  C   UNL     1      43.674 -19.308   3.290  1.00  0.00     0.004 A 
HETATM    9  C   UNL     1      44.436 -20.059   4.187  1.00  0.00     0.043 A 
HETATM   10  C   UNL     1      43.305 -19.913   2.069  1.00  0.00     0.014 A 
HETATM   11  C   UNL     1      44.844 -21.374   3.927  1.00  0.00     0.030 A 
HETATM   12  N   UNL     1      44.671 -19.266   5.283  1.00  0.00    -0.358 N 
HETATM   13  C   UNL     1      44.462 -21.945   2.711  1.00  0.00     0.002 A 
HETATM   14  C   UNL     1      43.703 -21.225   1.792  1.00  0.00     0.001 A 
HETATM   15  H   UNL     1      45.205 -19.558   6.090  1.00  0.00     0.166 HD
HETATM   16  C   UNL     1      44.084 -18.036   5.126  1.00  0.00     0.018 A 
HETATM   17  C   UNL     1      44.195 -16.989   6.176  1.00  0.00     0.069 C 
ENDBRANCH   6   7
ENDBRANCH   2   5
BRANCH   1  18
HETATM   18  C   UNL     1      41.847 -12.695   1.699  1.00  0.00     0.197 C 
BRANCH  18  19
HETATM   19  N   UNL     1      42.643 -11.854   0.785  1.00  0.00    -0.284 NA
HETATM   20  H   UNL     1      43.640 -11.953   0.969  1.00  0.00     0.128 HD
BRANCH  19  21
HETATM   21  C   UNL     1      42.343 -12.093  -0.574  1.00  0.00     0.016 A 
HETATM   22  C   UNL     1      42.752 -11.200  -1.589  1.00  0.00    -0.019 A 
HETATM   23  C   UNL     1      43.648 -10.027  -1.278  1.00  0.00     0.052 C 
HETATM   24  C   UNL     1      42.311 -11.429  -2.907  1.00  0.00     0.041 A 
HETATM   25 CL   UNL     1      42.726 -10.362  -4.205  1.00  0.00    -0.084 Cl
HETATM   26  C   UNL     1      41.508 -12.530  -3.218  1.00  0.00     0.024 A 
HETATM   27  C   UNL     1      41.123 -13.415  -2.217  1.00  0.00     0.003 A 
HETATM   28  C   UNL     1      41.531 -13.192  -0.903  1.00  0.00     0.024 A 
ENDBRANCH  19  21
ENDBRANCH  18  19
ENDBRANCH   1  18
TORSDOF 5
ENDMDL
MODEL 2
REMARK VINA RESULT:      -8.6      5.897      8.174
REMARK  5 active torsions:
REMARK  status: ('A' for Active; 'I' for Inactive)
REMARK    1  A    between atoms: C_8  and  N_9 
REMARK    2  A    between atoms: N_9  and  C_10 
REMARK    3  A    between atoms: C_10  and  C_11 
REMARK       I    between atoms: C_11  and  N_12 
REMARK    4  A    between atoms: N_12  and  N_13 
REMARK    5  A    between atoms: C_14  and  C_15 
ROOT
HETATM    1  C   UNL     1      44.920 -13.603   7.463  1.00  0.00     0.250 C 
HETATM    2  N   UNL     1      43.937 -14.559   7.202  1.00  0.00    -0.246 N 
HETATM    3  O   UNL     1      45.855 -13.326   6.714  1.00  0.00    -0.270 OA
HETATM    4  H   UNL     1      43.068 -14.514   7.726  1.00  0.00     0.192 HD
ENDROOT
BRANCH   2   5
HETATM    5  N   UNL     1      43.820 -15.290   6.044  1.00  0.00    -0.184 NA
HETATM    6  C   UNL     1      43.047 -16.330   6.038  1.00  0.00     0.153 C 
BRANCH   6   7
HETATM    7  C   UNL     1      42.926 -17.139   4.836  1.00  0.00     0.018 A 
HETATM    8  C   UNL     1      43.627 -18.338   4.470  1.00  0.00     0.004 A 
HETATM    9  C   UNL     1      43.158 -18.729   3.215  1.00  0.00     0.043 A 
HETATM   10  C   UNL     1      44.620 -19.134   5.081  1.00  0.00     0.014 A 
HETATM   11  C   UNL     1      43.628 -19.866   2.544  1.00  0.00     0.030 A 
HETATM   12  N   UNL     1      42.207 -17.814   2.834  1.00  0.00    -0.358 N 
HETATM   13  C   UNL     1      44.611 -20.632   3.175  1.00  0.00     0.002 A 
HETATM   14  C   UNL     1      45.102 -20.274   4.427  1.00  0.00     0.001 A 
HETATM   15  H   UNL     1      41.697 -17.857   1.963  1.00  0.00     0.166 HD
HETATM   16  C   UNL     1      42.053 -16.848   3.795  1.00  0.00     0.018 A 
HETATM   17  C   UNL     1      41.076 -15.740   3.624  1.00  0.00     0.069 C 
ENDBRANCH   6   7
ENDBRANCH   2   5
BRANCH   1  18
HETATM   18  C   UNL     1      44.720 -12.903   8.817  1.00  0.00     0.197 C 
BRANCH  18  19
HETATM   19  N   UNL     1      44.416 -11.472   8.628  1.00  0.00    -0.284 NA
HETATM   20  H   UNL     1      43.877 -11.320   7.777  1.00  0.00     0.128 HD
BRANCH  19  21
HETATM   21  C   UNL     1      43.779 -10.899   9.751  1.00  0.00     0.016 A 
HETATM   22  C   UNL     1      42.523 -10.262   9.643  1.00  0.00    -0.019 A 
HETATM   23  C   UNL     1      41.746 -10.291   8.351  1.00  0.00     0.052 C 
HETATM   24  C   UNL     1      42.004  -9.600  10.772  1.00  0.00     0.041 A 
HETATM   25 CL   UNL     1      40.494  -8.754  10.718  1.00  0.00    -0.084 Cl
HETATM   26  C   UNL     1      42.696  -9.592  11.986  1.00  0.00     0.024 A 
HETATM   27  C   UNL     1      43.924 -10.236  12.091  1.00  0.00     0.003 A 
HETATM   28  C   UNL     1      44.465 -10.877  10.978  1.00  0.00     0.024 A 
ENDBRANCH  19  21
ENDBRANCH  18  19
ENDBRANCH   1  18
TORSDOF 5
ENDMDL
MODEL 3
REMARK VINA RESULT:      -8.3      2.335      2.684
REMARK  5 active torsions:
REMARK  status: ('A' for Active; 'I' for Inactive)
REMARK    1  A    between atoms: C_8  and  N_9 
REMARK    2  A    between atoms: N_9  and  C_10 
REMARK    3  A    between atoms: C_10  and  C_11 
REMARK       I    between atoms: C_11  and  N_12 
REMARK    4  A    between atoms: N_12  and  N_13 
REMARK    5  A    between atoms: C_14  and  C_15 
ROOT
HETATM    1  C   UNL     1      40.029 -14.720   3.026  1.00  0.00     0.250 C 
HETATM    2  N   UNL     1      40.136 -16.076   2.715  1.00  0.00    -0.246 N 
HETATM    3  O   UNL     1      40.626 -14.154   3.940  1.00  0.00    -0.270 OA
HETATM    4  H   UNL     1      39.843 -16.385   1.793  1.00  0.00     0.192 HD
ENDROOT
BRANCH   2   5
HETATM    5  N   UNL     1      40.972 -16.976   3.333  1.00  0.00    -0.184 NA
HETATM    6  C   UNL     1      42.170 -17.134   2.869  1.00  0.00     0.153 C 
BRANCH   6   7
HETATM    7  C   UNL     1      43.067 -18.100   3.485  1.00  0.00     0.018 A 
HETATM    8  C   UNL     1      43.453 -19.406   3.026  1.00  0.00     0.004 A 
HETATM    9  C   UNL     1      44.328 -19.939   3.975  1.00  0.00     0.043 A 
HETATM   10  C   UNL     1      43.146 -20.193   1.896  1.00  0.00     0.014 A 
HETATM   11  C   UNL     1      44.905 -21.210   3.852  1.00  0.00     0.030 A 
HETATM   12  N   UNL     1      44.475 -18.999   4.965  1.00  0.00    -0.358 N 
HETATM   13  C   UNL     1      44.580 -21.965   2.723  1.00  0.00     0.002 A 
HETATM   14  C   UNL     1      43.712 -21.465   1.756  1.00  0.00     0.001 A 
HETATM   15  H   UNL     1      45.060 -19.121   5.780  1.00  0.00     0.166 HD
HETATM   16  C   UNL     1      43.723 -17.885   4.690  1.00  0.00     0.018 A 
HETATM   17  C   UNL     1      43.712 -16.716   5.610  1.00  0.00     0.069 C 
ENDBRANCH   6   7
ENDBRANCH   2   5
BRANCH   1  18
HETATM   18  C   UNL     1      39.066 -13.972   2.090  1.00  0.00     0.197 C 
BRANCH  18  19
HETATM   19  N   UNL     1      38.765 -14.779   0.893  1.00  0.00    -0.284 NA
HETATM   20  H   UNL     1      37.812 -15.138   0.923  1.00  0.00     0.128 HD
BRANCH  19  21
HETATM   21  C   UNL     1      39.018 -14.084  -0.310  1.00  0.00     0.016 A 
HETATM   22  C   UNL     1      40.209 -14.285  -1.042  1.00  0.00    -0.019 A 
HETATM   23  C   UNL     1      41.196 -15.353  -0.643  1.00  0.00     0.052 C 
HETATM   24  C   UNL     1      40.457 -13.469  -2.163  1.00  0.00     0.041 A 
HETATM   25 CL   UNL     1      41.911 -13.614  -3.092  1.00  0.00    -0.084 Cl
HETATM   26  C   UNL     1      39.537 -12.497  -2.565  1.00  0.00     0.024 A 
HETATM   27  C   UNL     1      38.358 -12.316  -1.851  1.00  0.00     0.003 A 
HETATM   28  C   UNL     1      38.106 -13.099  -0.725  1.00  0.00     0.024 A 
ENDBRANCH  19  21
ENDBRANCH  18  19
ENDBRANCH   1  18
TORSDOF 5
ENDMDL
MODEL 4
REMARK VINA RESULT:      -8.2      2.836      2.992
REMARK  5 active torsions:
REMARK  status: ('A' for Active; 'I' for Inactive)
REMARK    1  A    between atoms: C_8  and  N_9 
REMARK    2  A    between atoms: N_9  and  C_10 
REMARK    3  A    between atoms: C_10  and  C_11 
REMARK       I    between atoms: C_11  and  N_12 
REMARK    4  A    between atoms: N_12  and  N_13 
REMARK    5  A    between atoms: C_14  and  C_15 
ROOT
HETATM    1  C   UNL     1      39.755 -14.989   2.628  1.00  0.00     0.250 C 
HETATM    2  N   UNL     1      40.124 -16.285   2.263  1.00  0.00    -0.246 N 
HETATM    3  O   UNL     1      40.061 -14.436   3.683  1.00  0.00    -0.270 OA
HETATM    4  H   UNL     1      40.075 -16.543   1.282  1.00  0.00     0.192 HD
ENDROOT
BRANCH   2   5
HETATM    5  N   UNL     1      40.941 -17.118   2.989  1.00  0.00    -0.184 NA
HETATM    6  C   UNL     1      42.160 -17.300   2.590  1.00  0.00     0.153 C 
BRANCH   6   7
HETATM    7  C   UNL     1      43.039 -18.199   3.321  1.00  0.00     0.018 A 
HETATM    8  C   UNL     1      43.479 -19.523   2.977  1.00  0.00     0.004 A 
HETATM    9  C   UNL     1      44.307 -19.968   4.008  1.00  0.00     0.043 A 
HETATM   10  C   UNL     1      43.253 -20.393   1.888  1.00  0.00     0.014 A 
HETATM   11  C   UNL     1      44.917 -21.229   4.007  1.00  0.00     0.030 A 
HETATM   12  N   UNL     1      44.376 -18.959   4.938  1.00  0.00    -0.358 N 
HETATM   13  C   UNL     1      44.674 -22.068   2.917  1.00  0.00     0.002 A 
HETATM   14  C   UNL     1      43.853 -21.657   1.870  1.00  0.00     0.001 A 
HETATM   15  H   UNL     1      44.916 -19.010   5.790  1.00  0.00     0.166 HD
HETATM   16  C   UNL     1      43.619 -17.885   4.544  1.00  0.00     0.018 A 
HETATM   17  C   UNL     1      43.531 -16.657   5.377  1.00  0.00     0.069 C 
ENDBRANCH   6   7
ENDBRANCH   2   5
BRANCH   1  18
HETATM   18  C   UNL     1      38.901 -14.293   1.556  1.00  0.00     0.197 C 
BRANCH  18  19
HETATM   19  N   UNL     1      39.747 -13.499   0.646  1.00  0.00    -0.284 NA
HETATM   20  H   UNL     1      40.692 -13.401   1.014  1.00  0.00     0.128 HD
BRANCH  19  21
HETATM   21  C   UNL     1      39.756 -14.008  -0.671  1.00  0.00     0.016 A 
HETATM   22  C   UNL     1      38.715 -13.721  -1.582  1.00  0.00    -0.019 A 
HETATM   23  C   UNL     1      37.622 -12.745  -1.229  1.00  0.00     0.052 C 
HETATM   24  C   UNL     1      38.720 -14.363  -2.835  1.00  0.00     0.041 A 
HETATM   25 CL   UNL     1      37.461 -14.106  -3.995  1.00  0.00    -0.084 Cl
HETATM   26  C   UNL     1      39.744 -15.245  -3.190  1.00  0.00     0.024 A 
HETATM   27  C   UNL     1      40.776 -15.509  -2.297  1.00  0.00     0.003 A 
HETATM   28  C   UNL     1      40.776 -14.902  -1.043  1.00  0.00     0.024 A 
ENDBRANCH  19  21
ENDBRANCH  18  19
ENDBRANCH   1  18
TORSDOF 5
ENDMDL
MODEL 5
REMARK VINA RESULT:      -8.2      2.611      2.985
REMARK  5 active torsions:
REMARK  status: ('A' for Active; 'I' for Inactive)
REMARK    1  A    between atoms: C_8  and  N_9 
REMARK    2  A    between atoms: N_9  and  C_10 
REMARK    3  A    between atoms: C_10  and  C_11 
REMARK       I    between atoms: C_11  and  N_12 
REMARK    4  A    between atoms: N_12  and  N_13 
REMARK    5  A    between atoms: C_14  and  C_15 
ROOT
HETATM    1  C   UNL     1      41.674 -15.613   1.496  1.00  0.00     0.250 C 
HETATM    2  N   UNL     1      42.254 -15.606   2.766  1.00  0.00    -0.246 N 
HETATM    3  O   UNL     1      41.443 -16.620   0.829  1.00  0.00    -0.270 OA
HETATM    4  H   UNL     1      42.141 -14.778   3.343  1.00  0.00     0.192 HD
ENDROOT
BRANCH   2   5
HETATM    5  N   UNL     1      42.592 -16.720   3.497  1.00  0.00    -0.184 NA
HETATM    6  C   UNL     1      43.745 -17.274   3.294  1.00  0.00     0.153 C 
BRANCH   6   7
HETATM    7  C   UNL     1      44.118 -18.470   4.032  1.00  0.00     0.018 A 
HETATM    8  C   UNL     1      44.221 -19.828   3.575  1.00  0.00     0.004 A 
HETATM    9  C   UNL     1      44.607 -20.607   4.667  1.00  0.00     0.043 A 
HETATM   10  C   UNL     1      44.023 -20.477   2.337  1.00  0.00     0.014 A 
HETATM   11  C   UNL     1      44.803 -21.992   4.585  1.00  0.00     0.030 A 
HETATM   12  N   UNL     1      44.741 -19.763   5.742  1.00  0.00    -0.358 N 
HETATM   13  C   UNL     1      44.598 -22.605   3.347  1.00  0.00     0.002 A 
HETATM   14  C   UNL     1      44.214 -21.860   2.236  1.00  0.00     0.001 A 
HETATM   15  H   UNL     1      45.017 -20.062   6.666  1.00  0.00     0.166 HD
HETATM   16  C   UNL     1      44.450 -18.472   5.382  1.00  0.00     0.018 A 
HETATM   17  C   UNL     1      44.524 -17.361   6.368  1.00  0.00     0.069 C 
ENDBRANCH   6   7
ENDBRANCH   2   5
BRANCH   1  18
HETATM   18  C   UNL     1      41.341 -14.201   0.990  1.00  0.00     0.197 C 
BRANCH  18  19
HETATM   19  N   UNL     1      41.479 -14.123  -0.476  1.00  0.00    -0.284 NA
HETATM   20  H   UNL     1      42.061 -14.879  -0.832  1.00  0.00     0.128 HD
BRANCH  19  21
HETATM   21  C   UNL     1      40.232 -14.076  -1.138  1.00  0.00     0.016 A 
HETATM   22  C   UNL     1      39.976 -14.858  -2.287  1.00  0.00    -0.019 A 
HETATM   23  C   UNL     1      40.975 -15.878  -2.771  1.00  0.00     0.052 C 
HETATM   24  C   UNL     1      38.760 -14.670  -2.973  1.00  0.00     0.041 A 
HETATM   25 CL   UNL     1      38.382 -15.550  -4.414  1.00  0.00    -0.084 Cl
HETATM   26  C   UNL     1      37.810 -13.752  -2.518  1.00  0.00     0.024 A 
HETATM   27  C   UNL     1      38.060 -12.999  -1.376  1.00  0.00     0.003 A 
HETATM   28  C   UNL     1      39.267 -13.154  -0.697  1.00  0.00     0.024 A 
ENDBRANCH  19  21
ENDBRANCH  18  19
ENDBRANCH   1  18
TORSDOF 5
ENDMDL
MODEL 6
REMARK VINA RESULT:      -8.1      3.570      9.356
REMARK  5 active torsions:
REMARK  status: ('A' for Active; 'I' for Inactive)
REMARK    1  A    between atoms: C_8  and  N_9 
REMARK    2  A    between atoms: N_9  and  C_10 
REMARK    3  A    between atoms: C_10  and  C_11 
REMARK       I    between atoms: C_11  and  N_12 
REMARK    4  A    between atoms: N_12  and  N_13 
REMARK    5  A    between atoms: C_14  and  C_15 
ROOT
HETATM    1  C   UNL     1      42.165 -15.996   2.362  1.00  0.00     0.250 C 
HETATM    2  N   UNL     1      41.840 -16.251   1.029  1.00  0.00    -0.246 N 
HETATM    3  O   UNL     1      42.338 -14.880   2.848  1.00  0.00    -0.270 OA
HETATM    4  H   UNL     1      41.441 -17.154   0.793  1.00  0.00     0.192 HD
ENDROOT
BRANCH   2   5
HETATM    5  N   UNL     1      41.595 -15.297   0.069  1.00  0.00    -0.184 NA
HETATM    6  C   UNL     1      41.290 -15.683  -1.129  1.00  0.00     0.153 C 
BRANCH   6   7
HETATM    7  C   UNL     1      41.054 -14.697  -2.173  1.00  0.00     0.018 A 
HETATM    8  C   UNL     1      41.607 -13.380  -2.323  1.00  0.00     0.004 A 
HETATM    9  C   UNL     1      41.062 -12.830  -3.484  1.00  0.00     0.043 A 
HETATM   10  C   UNL     1      42.519 -12.595  -1.585  1.00  0.00     0.014 A 
HETATM   11  C   UNL     1      41.380 -11.543  -3.942  1.00  0.00     0.030 A 
HETATM   12  N   UNL     1      40.220 -13.770  -4.023  1.00  0.00    -0.358 N 
HETATM   13  C   UNL     1      42.284 -10.791  -3.189  1.00  0.00     0.002 A 
HETATM   14  C   UNL     1      42.848 -11.308  -2.026  1.00  0.00     0.001 A 
HETATM   15  H   UNL     1      39.693 -13.638  -4.875  1.00  0.00     0.166 HD
HETATM   16  C   UNL     1      40.199 -14.902  -3.249  1.00  0.00     0.018 A 
HETATM   17  C   UNL     1      39.365 -16.075  -3.620  1.00  0.00     0.069 C 
ENDBRANCH   6   7
ENDBRANCH   2   5
BRANCH   1  18
HETATM   18  C   UNL     1      42.291 -17.282   3.196  1.00  0.00     0.197 C 
BRANCH  18  19
HETATM   19  N   UNL     1      43.698 -17.712   3.287  1.00  0.00    -0.284 NA
HETATM   20  H   UNL     1      44.133 -17.369   4.142  1.00  0.00     0.128 HD
BRANCH  19  21
HETATM   21  C   UNL     1      43.848 -19.111   3.156  1.00  0.00     0.016 A 
HETATM   22  C   UNL     1      44.376 -19.898   4.204  1.00  0.00    -0.019 A 
HETATM   23  C   UNL     1      44.670 -19.297   5.555  1.00  0.00     0.052 C 
HETATM   24  C   UNL     1      44.619 -21.264   3.964  1.00  0.00     0.041 A 
HETATM   25 CL   UNL     1      45.306 -22.293   5.174  1.00  0.00    -0.084 Cl
HETATM   26  C   UNL     1      44.321 -21.843   2.728  1.00  0.00     0.024 A 
HETATM   27  C   UNL     1      43.785 -21.067   1.706  1.00  0.00     0.003 A 
HETATM   28  C   UNL     1      43.559 -19.708   1.918  1.00  0.00     0.024 A 
ENDBRANCH  19  21
ENDBRANCH  18  19
ENDBRANCH   1  18
TORSDOF 5
ENDMDL
MODEL 7
REMARK VINA RESULT:      -8.1      4.240      9.961
REMARK  5 active torsions:
REMARK  status: ('A' for Active; 'I' for Inactive)
REMARK    1  A    between atoms: C_8  and  N_9 
REMARK    2  A    between atoms: N_9  and  C_10 
REMARK    3  A    between atoms: C_10  and  C_11 
REMARK       I    between atoms: C_11  and  N_12 
REMARK    4  A    between atoms: N_12  and  N_13 
REMARK    5  A    between atoms: C_14  and  C_15 
ROOT
HETATM    1  C   UNL     1      42.016 -16.963   0.703  1.00  0.00     0.250 C 
HETATM    2  N   UNL     1      42.043 -15.843  -0.129  1.00  0.00    -0.246 N 
HETATM    3  O   UNL     1      40.997 -17.530   1.094  1.00  0.00    -0.270 OA
HETATM    4  H   UNL     1      42.905 -15.627  -0.622  1.00  0.00     0.192 HD
ENDROOT
BRANCH   2   5
HETATM    5  N   UNL     1      40.945 -15.240  -0.697  1.00  0.00    -0.184 NA
HETATM    6  C   UNL     1      40.937 -15.038  -1.976  1.00  0.00     0.153 C 
BRANCH   6   7
HETATM    7  C   UNL     1      39.802 -14.376  -2.600  1.00  0.00     0.018 A 
HETATM    8  C   UNL     1      39.283 -13.055  -2.380  1.00  0.00     0.004 A 
HETATM    9  C   UNL     1      38.178 -12.896  -3.217  1.00  0.00     0.043 A 
HETATM   10  C   UNL     1      39.643 -11.972  -1.548  1.00  0.00     0.014 A 
HETATM   11  C   UNL     1      37.419 -11.718  -3.265  1.00  0.00     0.030 A 
HETATM   12  N   UNL     1      38.031 -14.065  -3.923  1.00  0.00    -0.358 N 
HETATM   13  C   UNL     1      37.799 -10.667  -2.428  1.00  0.00     0.002 A 
HETATM   14  C   UNL     1      38.896 -10.789  -1.580  1.00  0.00     0.001 A 
HETATM   15  H   UNL     1      37.308 -14.225  -4.610  1.00  0.00     0.166 HD
HETATM   16  C   UNL     1      38.998 -14.970  -3.566  1.00  0.00     0.018 A 
HETATM   17  C   UNL     1      39.061 -16.318  -4.191  1.00  0.00     0.069 C 
ENDBRANCH   6   7
ENDBRANCH   2   5
BRANCH   1  18
HETATM   18  C   UNL     1      43.423 -17.440   1.099  1.00  0.00     0.197 C 
BRANCH  18  19
HETATM   19  N   UNL     1      43.419 -18.880   1.413  1.00  0.00    -0.284 NA
HETATM   20  H   UNL     1      43.916 -19.413   0.701  1.00  0.00     0.128 HD
BRANCH  19  21
HETATM   21  C   UNL     1      43.917 -19.157   2.706  1.00  0.00     0.016 A 
HETATM   22  C   UNL     1      44.309 -20.460   3.083  1.00  0.00    -0.019 A 
HETATM   23  C   UNL     1      44.342 -21.584   2.078  1.00  0.00     0.052 C 
HETATM   24  C   UNL     1      44.675 -20.693   4.423  1.00  0.00     0.041 A 
HETATM   25 CL   UNL     1      45.124 -22.267   4.985  1.00  0.00    -0.084 Cl
HETATM   26  C   UNL     1      44.681 -19.655   5.360  1.00  0.00     0.024 A 
HETATM   27  C   UNL     1      44.312 -18.371   4.978  1.00  0.00     0.003 A 
HETATM   28  C   UNL     1      43.924 -18.126   3.661  1.00  0.00     0.024 A 
ENDBRANCH  19  21
ENDBRANCH  18  19
ENDBRANCH   1  18
TORSDOF 5
ENDMDL
MODEL 8
REMARK VINA RESULT:      -8.0      6.094      8.311
REMARK  5 active torsions:
REMARK  status: ('A' for Active; 'I' for Inactive)
REMARK    1  A    between atoms: C_8  and  N_9 
REMARK    2  A    between atoms: N_9  and  C_10 
REMARK    3  A    between atoms: C_10  and  C_11 
REMARK       I    between atoms: C_11  and  N_12 
REMARK    4  A    between atoms: N_12  and  N_13 
REMARK    5  A    between atoms: C_14  and  C_15 
ROOT
HETATM    1  C   UNL     1      41.515 -12.224   6.314  1.00  0.00     0.250 C 
HETATM    2  N   UNL     1      42.473 -13.233   6.432  1.00  0.00    -0.246 N 
HETATM    3  O   UNL     1      40.499 -12.291   5.625  1.00  0.00    -0.270 OA
HETATM    4  H   UNL     1      43.107 -13.206   7.225  1.00  0.00     0.192 HD
ENDROOT
BRANCH   2   5
HETATM    5  N   UNL     1      42.398 -14.479   5.857  1.00  0.00    -0.184 NA
HETATM    6  C   UNL     1      43.419 -15.271   5.948  1.00  0.00     0.153 C 
BRANCH   6   7
HETATM    7  C   UNL     1      43.380 -16.584   5.325  1.00  0.00     0.018 A 
HETATM    8  C   UNL     1      43.458 -16.935   3.934  1.00  0.00     0.004 A 
HETATM    9  C   UNL     1      43.367 -18.325   3.849  1.00  0.00     0.043 A 
HETATM   10  C   UNL     1      43.596 -16.207   2.732  1.00  0.00     0.014 A 
HETATM   11  C   UNL     1      43.406 -19.019   2.632  1.00  0.00     0.030 A 
HETATM   12  N   UNL     1      43.246 -18.803   5.130  1.00  0.00    -0.358 N 
HETATM   13  C   UNL     1      43.542 -18.271   1.461  1.00  0.00     0.002 A 
HETATM   14  C   UNL     1      43.636 -16.883   1.507  1.00  0.00     0.001 A 
HETATM   15  H   UNL     1      43.166 -19.783   5.364  1.00  0.00     0.166 HD
HETATM   16  C   UNL     1      43.250 -17.772   6.034  1.00  0.00     0.018 A 
HETATM   17  C   UNL     1      43.135 -18.026   7.495  1.00  0.00     0.069 C 
ENDBRANCH   6   7
ENDBRANCH   2   5
BRANCH   1  18
HETATM   18  C   UNL     1      41.858 -10.981   7.150  1.00  0.00     0.197 C 
BRANCH  18  19
HETATM   19  N   UNL     1      41.283 -11.084   8.504  1.00  0.00    -0.284 NA
HETATM   20  H   UNL     1      40.707 -11.920   8.596  1.00  0.00     0.128 HD
BRANCH  19  21
HETATM   21  C   UNL     1      42.262 -11.017   9.519  1.00  0.00     0.016 A 
HETATM   22  C   UNL     1      41.908 -10.966  10.885  1.00  0.00    -0.019 A 
HETATM   23  C   UNL     1      40.474 -11.120  11.323  1.00  0.00     0.052 C 
HETATM   24  C   UNL     1      42.927 -10.771  11.838  1.00  0.00     0.041 A 
HETATM   25 CL   UNL     1      42.580 -10.649  13.530  1.00  0.00    -0.084 Cl
HETATM   26  C   UNL     1      44.265 -10.659  11.452  1.00  0.00     0.024 A 
HETATM   27  C   UNL     1      44.609 -10.729  10.107  1.00  0.00     0.003 A 
HETATM   28  C   UNL     1      43.612 -10.898   9.147  1.00  0.00     0.024 A 
ENDBRANCH  19  21
ENDBRANCH  18  19
ENDBRANCH   1  18
TORSDOF 5
ENDMDL
MODEL 9
REMARK VINA RESULT:      -8.0      3.317      4.121
REMARK  5 active torsions:
REMARK  status: ('A' for Active; 'I' for Inactive)
REMARK    1  A    between atoms: C_8  and  N_9 
REMARK    2  A    between atoms: N_9  and  C_10 
REMARK    3  A    between atoms: C_10  and  C_11 
REMARK       I    between atoms: C_11  and  N_12 
REMARK    4  A    between atoms: N_12  and  N_13 
REMARK    5  A    between atoms: C_14  and  C_15 
ROOT
HETATM    1  C   UNL     1      41.024 -14.918  -1.175  1.00  0.00     0.250 C 
HETATM    2  N   UNL     1      40.975 -16.144  -0.509  1.00  0.00    -0.246 N 
HETATM    3  O   UNL     1      41.687 -13.946  -0.821  1.00  0.00    -0.270 OA
HETATM    4  H   UNL     1      40.642 -16.958  -1.017  1.00  0.00     0.192 HD
ENDROOT
BRANCH   2   5
HETATM    5  N   UNL     1      41.709 -16.480   0.604  1.00  0.00    -0.184 NA
HETATM    6  C   UNL     1      41.326 -17.486   1.324  1.00  0.00     0.153 C 
BRANCH   6   7
HETATM    7  C   UNL     1      42.066 -17.846   2.523  1.00  0.00     0.018 A 
HETATM    8  C   UNL     1      42.996 -18.922   2.731  1.00  0.00     0.004 A 
HETATM    9  C   UNL     1      43.430 -18.847   4.055  1.00  0.00     0.043 A 
HETATM   10  C   UNL     1      43.514 -19.958   1.924  1.00  0.00     0.014 A 
HETATM   11  C   UNL     1      44.348 -19.749   4.610  1.00  0.00     0.030 A 
HETATM   12  N   UNL     1      42.800 -17.770   4.629  1.00  0.00    -0.358 N 
HETATM   13  C   UNL     1      44.841 -20.763   3.786  1.00  0.00     0.002 A 
HETATM   14  C   UNL     1      44.431 -20.869   2.460  1.00  0.00     0.001 A 
HETATM   15  H   UNL     1      42.935 -17.479   5.587  1.00  0.00     0.166 HD
HETATM   16  C   UNL     1      41.974 -17.154   3.724  1.00  0.00     0.018 A 
HETATM   17  C   UNL     1      41.178 -15.955   4.098  1.00  0.00     0.069 C 
ENDBRANCH   6   7
ENDBRANCH   2   5
BRANCH   1  18
HETATM   18  C   UNL     1      40.143 -14.895  -2.435  1.00  0.00     0.197 C 
BRANCH  18  19
HETATM   19  N   UNL     1      38.713 -14.875  -2.075  1.00  0.00    -0.284 NA
HETATM   20  H   UNL     1      38.527 -15.478  -1.276  1.00  0.00     0.128 HD
BRANCH  19  21
HETATM   21  C   UNL     1      38.224 -13.567  -1.861  1.00  0.00     0.016 A 
HETATM   22  C   UNL     1      37.713 -13.167  -0.607  1.00  0.00    -0.019 A 
HETATM   23  C   UNL     1      37.797 -14.076   0.594  1.00  0.00     0.052 C 
HETATM   24  C   UNL     1      37.124 -11.892  -0.495  1.00  0.00     0.041 A 
HETATM   25 CL   UNL     1      36.431 -11.336   0.991  1.00  0.00    -0.084 Cl
HETATM   26  C   UNL     1      37.068 -11.025  -1.589  1.00  0.00     0.024 A 
HETATM   27  C   UNL     1      37.589 -11.418  -2.816  1.00  0.00     0.003 A 
HETATM   28  C   UNL     1      38.155 -12.685  -2.952  1.00  0.00     0.024 A 
ENDBRANCH  19  21
ENDBRANCH  18  19
ENDBRANCH   1  18
TORSDOF 5
ENDMDL
MODEL 10
REMARK VINA RESULT:      -8.0      2.921      3.711
REMARK  5 active torsions:
REMARK  status: ('A' for Active; 'I' for Inactive)
REMARK    1  A    between atoms: C_8  and  N_9 
REMARK    2  A    between atoms: N_9  and  C_10 
REMARK    3  A    between atoms: C_10  and  C_11 
REMARK       I    between atoms: C_11  and  N_12 
REMARK    4  A    between atoms: N_12  and  N_13 
REMARK    5  A    between atoms: C_14  and  C_15 
ROOT
HETATM    1  C   UNL     1      41.291 -15.172  -0.254  1.00  0.00     0.250 C 
HETATM    2  N   UNL     1      41.286 -16.551  -0.036  1.00  0.00    -0.246 N 
HETATM    3  O   UNL     1      41.616 -14.325   0.576  1.00  0.00    -0.270 OA
HETATM    4  H   UNL     1      41.285 -17.167  -0.844  1.00  0.00     0.192 HD
ENDROOT
BRANCH   2   5
HETATM    5  N   UNL     1      41.708 -17.181   1.110  1.00  0.00    -0.184 NA
HETATM    6  C   UNL     1      42.956 -17.511   1.218  1.00  0.00     0.153 C 
BRANCH   6   7
HETATM    7  C   UNL     1      43.425 -18.205   2.406  1.00  0.00     0.018 A 
HETATM    8  C   UNL     1      43.792 -19.584   2.571  1.00  0.00     0.004 A 
HETATM    9  C   UNL     1      44.168 -19.759   3.904  1.00  0.00     0.043 A 
HETATM   10  C   UNL     1      43.840 -20.708   1.718  1.00  0.00     0.014 A 
HETATM   11  C   UNL     1      44.587 -20.992   4.424  1.00  0.00     0.030 A 
HETATM   12  N   UNL     1      44.043 -18.541   4.525  1.00  0.00    -0.358 N 
HETATM   13  C   UNL     1      44.623 -22.084   3.555  1.00  0.00     0.002 A 
HETATM   14  C   UNL     1      44.255 -21.947   2.219  1.00  0.00     0.001 A 
HETATM   15  H   UNL     1      44.256 -18.376   5.498  1.00  0.00     0.166 HD
HETATM   16  C   UNL     1      43.596 -17.591   3.641  1.00  0.00     0.018 A 
HETATM   17  C   UNL     1      43.382 -16.182   4.066  1.00  0.00     0.069 C 
ENDBRANCH   6   7
ENDBRANCH   2   5
BRANCH   1  18
HETATM   18  C   UNL     1      40.837 -14.796  -1.674  1.00  0.00     0.197 C 
BRANCH  18  19
HETATM   19  N   UNL     1      39.385 -14.997  -1.831  1.00  0.00    -0.284 NA
HETATM   20  H   UNL     1      38.983 -15.435  -1.004  1.00  0.00     0.128 HD
BRANCH  19  21
HETATM   21  C   UNL     1      38.704 -13.806  -2.167  1.00  0.00     0.016 A 
HETATM   22  C   UNL     1      37.680 -13.791  -3.140  1.00  0.00    -0.019 A 
HETATM   23  C   UNL     1      37.176 -15.070  -3.760  1.00  0.00     0.052 C 
HETATM   24  C   UNL     1      37.130 -12.551  -3.520  1.00  0.00     0.041 A 
HETATM   25 CL   UNL     1      35.905 -12.432  -4.737  1.00  0.00    -0.084 Cl
HETATM   26  C   UNL     1      37.563 -11.359  -2.932  1.00  0.00     0.024 A 
HETATM   27  C   UNL     1      38.558 -11.383  -1.962  1.00  0.00     0.003 A 
HETATM   28  C   UNL     1      39.130 -12.599  -1.589  1.00  0.00     0.024 A 
ENDBRANCH  19  21
ENDBRANCH  18  19
ENDBRANCH   1  18
TORSDOF 5
ENDMDL
