MODEL 1
REMARK VINA RESULT:      -8.5      0.000      0.000
REMARK  5 active torsions:
REMARK  status: ('A' for Active; 'I' for Inactive)
REMARK    1  A    between atoms: C_2  and  C_3 
REMARK    2  A    between atoms: C_5  and  C_6 
REMARK    3  A    between atoms: C_6  and  C_7 
REMARK       I    between atoms: C_7  and  N_8 
REMARK    4  A    between atoms: N_8  and  C_9 
REMARK    5  A    between atoms: C_11  and  C_12 
ROOT
HETATM    1  C   UNL     1      41.673 -16.360   3.985  1.00  0.00     0.226 C 
HETATM    2  N   UNL     1      40.578 -16.505   3.147  1.00  0.00    -0.327 N 
HETATM    3  O   UNL     1      42.546 -15.502   3.903  1.00  0.00    -0.273 OA
HETATM    4  H   UNL     1      39.949 -17.270   3.360  1.00  0.00     0.169 HD
ENDROOT
BRANCH   2   5
HETATM    5  C   UNL     1      40.175 -15.645   2.103  1.00  0.00     0.035 A 
HETATM    6  C   UNL     1      40.755 -15.636   0.830  1.00  0.00     0.042 A 
HETATM    7  C   UNL     1      40.340 -14.726  -0.158  1.00  0.00    -0.021 A 
HETATM    8  C   UNL     1      39.311 -13.827   0.150  1.00  0.00     0.012 A 
HETATM    9  C   UNL     1      38.716 -13.835   1.412  1.00  0.00     0.003 A 
HETATM   10  C   UNL     1      39.148 -14.738   2.384  1.00  0.00     0.029 A 
BRANCH   7  11
HETATM   11  C   UNL     1      40.964 -14.701  -1.476  1.00  0.00     0.010 A 
HETATM   12  C   UNL     1      40.852 -15.587  -2.576  1.00  0.00     0.152 A 
HETATM   13  N   UNL     1      41.580 -15.210  -3.630  1.00  0.00    -0.187 NA
HETATM   14  N   UNL     1      42.170 -14.080  -3.212  1.00  0.00    -0.289 N 
HETATM   15  H   UNL     1      42.790 -13.594  -3.851  1.00  0.00     0.188 HD
HETATM   16  C   UNL     1      41.830 -13.730  -1.937  1.00  0.00     0.123 A 
ENDBRANCH   7  11
ENDBRANCH   2   5
BRANCH   1  17
HETATM   17  C   UNL     1      41.725 -17.414   5.082  1.00  0.00     0.141 C 
BRANCH  17  18
HETATM   18  C   UNL     1      42.790 -18.479   4.917  1.00  0.00    -0.049 A 
HETATM   19  C   UNL     1      43.184 -18.967   3.659  1.00  0.00     0.014 A 
HETATM   20  C   UNL     1      44.178 -19.949   3.533  1.00  0.00    -0.058 A 
HETATM   21  C   UNL     1      44.730 -20.492   4.701  1.00  0.00     0.007 A 
HETATM   22  C   UNL     1      44.322 -20.047   5.958  1.00  0.00     0.001 A 
HETATM   23  C   UNL     1      43.362 -19.043   6.066  1.00  0.00     0.007 A 
BRANCH  20  24
HETATM   24  C   UNL     1      44.639 -20.485   2.196  1.00  0.00     0.034 C 
HETATM   25  C   UNL     1      44.057 -21.827   1.768  1.00  0.00     0.010 C 
ENDBRANCH  20  24
ENDBRANCH  17  18
ENDBRANCH   1  17
TORSDOF 5
ENDMDL
MODEL 2
REMARK VINA RESULT:      -8.1      5.842      8.588
REMARK  5 active torsions:
REMARK  status: ('A' for Active; 'I' for Inactive)
REMARK    1  A    between atoms: C_2  and  C_3 
REMARK    2  A    between atoms: C_5  and  C_6 
REMARK    3  A    between atoms: C_6  and  C_7 
REMARK       I    between atoms: C_7  and  N_8 
REMARK    4  A    between atoms: N_8  and  C_9 
REMARK    5  A    between atoms: C_11  and  C_12 
ROOT
HETATM    1  C   UNL     1      43.897 -16.092   6.216  1.00  0.00     0.226 C 
HETATM    2  N   UNL     1      43.809 -14.711   6.306  1.00  0.00    -0.327 N 
HETATM    3  O   UNL     1      44.742 -16.806   6.748  1.00  0.00    -0.273 OA
HETATM    4  H   UNL     1      43.042 -14.278   5.805  1.00  0.00     0.169 HD
ENDROOT
BRANCH   2   5
HETATM    5  C   UNL     1      44.592 -13.850   7.104  1.00  0.00     0.035 A 
HETATM    6  C   UNL     1      44.141 -13.257   8.289  1.00  0.00     0.042 A 
HETATM    7  C   UNL     1      44.951 -12.371   9.020  1.00  0.00    -0.021 A 
HETATM    8  C   UNL     1      46.241 -12.100   8.547  1.00  0.00     0.012 A 
HETATM    9  C   UNL     1      46.707 -12.695   7.374  1.00  0.00     0.003 A 
HETATM   10  C   UNL     1      45.885 -13.563   6.655  1.00  0.00     0.029 A 
BRANCH   7  11
HETATM   11  C   UNL     1      44.469 -11.734  10.240  1.00  0.00     0.010 A 
HETATM   12  C   UNL     1      44.318 -10.367  10.579  1.00  0.00     0.152 A 
HETATM   13  N   UNL     1      43.823 -10.183  11.807  1.00  0.00    -0.187 NA
HETATM   14  N   UNL     1      43.657 -11.433  12.266  1.00  0.00    -0.289 N 
HETATM   15  H   UNL     1      43.286 -11.558  13.201  1.00  0.00     0.188 HD
HETATM   16  C   UNL     1      44.021 -12.393  11.367  1.00  0.00     0.123 A 
ENDBRANCH   7  11
ENDBRANCH   2   5
BRANCH   1  17
HETATM   17  C   UNL     1      42.804 -16.702   5.351  1.00  0.00     0.141 C 
BRANCH  17  18
HETATM   18  C   UNL     1      43.282 -17.435   4.114  1.00  0.00    -0.049 A 
HETATM   19  C   UNL     1      43.626 -18.798   4.128  1.00  0.00     0.014 A 
HETATM   20  C   UNL     1      44.060 -19.456   2.967  1.00  0.00    -0.058 A 
HETATM   21  C   UNL     1      44.212 -18.705   1.793  1.00  0.00     0.007 A 
HETATM   22  C   UNL     1      43.912 -17.344   1.771  1.00  0.00     0.001 A 
HETATM   23  C   UNL     1      43.445 -16.713   2.923  1.00  0.00     0.007 A 
BRANCH  20  24
HETATM   24  C   UNL     1      44.422 -20.924   2.940  1.00  0.00     0.034 C 
HETATM   25  C   UNL     1      44.011 -21.699   1.694  1.00  0.00     0.010 C 
ENDBRANCH  20  24
ENDBRANCH  17  18
ENDBRANCH   1  17
TORSDOF 5
ENDMDL
MODEL 3
REMARK VINA RESULT:      -8.0      2.482      4.913
REMARK  5 active torsions:
REMARK  status: ('A' for Active; 'I' for Inactive)
REMARK    1  A    between atoms: C_2  and  C_3 
REMARK    2  A    between atoms: C_5  and  C_6 
REMARK    3  A    between atoms: C_6  and  C_7 
REMARK       I    between atoms: C_7  and  N_8 
REMARK    4  A    between atoms: N_8  and  C_9 
REMARK    5  A    between atoms: C_11  and  C_12 
ROOT
HETATM    1  C   UNL     1      43.374 -17.973   1.540  1.00  0.00     0.226 C 
HETATM    2  N   UNL     1      42.011 -17.754   1.663  1.00  0.00    -0.327 N 
HETATM    3  O   UNL     1      44.247 -17.113   1.461  1.00  0.00    -0.273 OA
HETATM    4  H   UNL     1      41.428 -18.581   1.720  1.00  0.00     0.169 HD
ENDROOT
BRANCH   2   5
HETATM    5  C   UNL     1      41.349 -16.519   1.834  1.00  0.00     0.035 A 
HETATM    6  C   UNL     1      41.083 -15.941   3.081  1.00  0.00     0.042 A 
HETATM    7  C   UNL     1      40.380 -14.728   3.191  1.00  0.00    -0.021 A 
HETATM    8  C   UNL     1      39.961 -14.089   2.018  1.00  0.00     0.012 A 
HETATM    9  C   UNL     1      40.233 -14.648   0.769  1.00  0.00     0.003 A 
HETATM   10  C   UNL     1      40.921 -15.859   0.679  1.00  0.00     0.029 A 
BRANCH   7  11
HETATM   11  C   UNL     1      40.081 -14.142   4.493  1.00  0.00     0.010 A 
HETATM   12  C   UNL     1      39.556 -12.873   4.843  1.00  0.00     0.152 A 
HETATM   13  N   UNL     1      39.409 -12.712   6.161  1.00  0.00    -0.187 NA
HETATM   14  N   UNL     1      39.844 -13.877   6.667  1.00  0.00    -0.289 N 
HETATM   15  H   UNL     1      39.833 -14.000   7.673  1.00  0.00     0.188 HD
HETATM   16  C   UNL     1      40.249 -14.765   5.712  1.00  0.00     0.123 A 
ENDBRANCH   7  11
ENDBRANCH   2   5
BRANCH   1  17
HETATM   17  C   UNL     1      43.738 -19.449   1.499  1.00  0.00     0.141 C 
BRANCH  17  18
HETATM   18  C   UNL     1      44.054 -20.083   2.839  1.00  0.00    -0.049 A 
HETATM   19  C   UNL     1      44.055 -19.351   4.040  1.00  0.00     0.014 A 
HETATM   20  C   UNL     1      44.345 -19.962   5.269  1.00  0.00    -0.058 A 
HETATM   21  C   UNL     1      44.706 -21.317   5.271  1.00  0.00     0.007 A 
HETATM   22  C   UNL     1      44.747 -22.048   4.084  1.00  0.00     0.001 A 
HETATM   23  C   UNL     1      44.419 -21.436   2.876  1.00  0.00     0.007 A 
BRANCH  20  24
HETATM   24  C   UNL     1      44.339 -19.213   6.582  1.00  0.00     0.034 C 
HETATM   25  C   UNL     1      45.226 -17.975   6.659  1.00  0.00     0.010 C 
ENDBRANCH  20  24
ENDBRANCH  17  18
ENDBRANCH   1  17
TORSDOF 5
ENDMDL
MODEL 4
REMARK VINA RESULT:      -8.0      4.700      7.195
REMARK  5 active torsions:
REMARK  status: ('A' for Active; 'I' for Inactive)
REMARK    1  A    between atoms: C_2  and  C_3 
REMARK    2  A    between atoms: C_5  and  C_6 
REMARK    3  A    between atoms: C_6  and  C_7 
REMARK       I    between atoms: C_7  and  N_8 
REMARK    4  A    between atoms: N_8  and  C_9 
REMARK    5  A    between atoms: C_11  and  C_12 
ROOT
HETATM    1  C   UNL     1      43.789 -18.140   6.768  1.00  0.00     0.226 C 
HETATM    2  N   UNL     1      44.469 -17.016   6.326  1.00  0.00    -0.327 N 
HETATM    3  O   UNL     1      42.715 -18.157   7.362  1.00  0.00    -0.273 OA
HETATM    4  H   UNL     1      45.346 -17.183   5.847  1.00  0.00     0.169 HD
ENDROOT
BRANCH   2   5
HETATM    5  C   UNL     1      44.030 -15.675   6.363  1.00  0.00     0.035 A 
HETATM    6  C   UNL     1      44.526 -14.714   7.251  1.00  0.00     0.042 A 
HETATM    7  C   UNL     1      44.019 -13.403   7.271  1.00  0.00    -0.021 A 
HETATM    8  C   UNL     1      43.007 -13.064   6.364  1.00  0.00     0.012 A 
HETATM    9  C   UNL     1      42.513 -14.009   5.465  1.00  0.00     0.003 A 
HETATM   10  C   UNL     1      43.020 -15.309   5.467  1.00  0.00     0.029 A 
BRANCH   7  11
HETATM   11  C   UNL     1      44.520 -12.411   8.215  1.00  0.00     0.010 A 
HETATM   12  C   UNL     1      43.847 -11.410   8.958  1.00  0.00     0.152 A 
HETATM   13  N   UNL     1      44.664 -10.697   9.738  1.00  0.00    -0.187 NA
HETATM   14  N   UNL     1      45.870 -11.235   9.498  1.00  0.00    -0.289 N 
HETATM   15  H   UNL     1      46.673 -10.853   9.984  1.00  0.00     0.188 HD
HETATM   16  C   UNL     1      45.836 -12.264   8.603  1.00  0.00     0.123 A 
ENDBRANCH   7  11
ENDBRANCH   2   5
BRANCH   1  17
HETATM   17  C   UNL     1      44.517 -19.438   6.451  1.00  0.00     0.141 C 
BRANCH  17  18
HETATM   18  C   UNL     1      44.424 -19.906   5.013  1.00  0.00    -0.049 A 
HETATM   19  C   UNL     1      43.983 -19.069   3.972  1.00  0.00     0.014 A 
HETATM   20  C   UNL     1      43.912 -19.525   2.647  1.00  0.00    -0.058 A 
HETATM   21  C   UNL     1      44.227 -20.866   2.385  1.00  0.00     0.007 A 
HETATM   22  C   UNL     1      44.629 -21.719   3.412  1.00  0.00     0.001 A 
HETATM   23  C   UNL     1      44.731 -21.241   4.717  1.00  0.00     0.007 A 
BRANCH  20  24
HETATM   24  C   UNL     1      43.460 -18.650   1.499  1.00  0.00     0.034 C 
HETATM   25  C   UNL     1      44.110 -17.274   1.401  1.00  0.00     0.010 C 
ENDBRANCH  20  24
ENDBRANCH  17  18
ENDBRANCH   1  17
TORSDOF 5
ENDMDL
MODEL 5
REMARK VINA RESULT:      -7.7      2.362      3.829
REMARK  5 active torsions:
REMARK  status: ('A' for Active; 'I' for Inactive)
REMARK    1  A    between atoms: C_2  and  C_3 
REMARK    2  A    between atoms: C_5  and  C_6 
REMARK    3  A    between atoms: C_6  and  C_7 
REMARK       I    between atoms: C_7  and  N_8 
REMARK    4  A    between atoms: N_8  and  C_9 
REMARK    5  A    between atoms: C_11  and  C_12 
ROOT
HETATM    1  C   UNL     1      42.215 -17.086   0.859  1.00  0.00     0.226 C 
HETATM    2  N   UNL     1      41.236 -16.554   0.034  1.00  0.00    -0.327 N 
HETATM    3  O   UNL     1      43.393 -16.747   0.907  1.00  0.00    -0.273 OA
HETATM    4  H   UNL     1      40.308 -16.951   0.127  1.00  0.00     0.169 HD
ENDROOT
BRANCH   2   5
HETATM    5  C   UNL     1      41.353 -15.449  -0.836  1.00  0.00     0.035 A 
HETATM    6  C   UNL     1      41.821 -14.191  -0.444  1.00  0.00     0.042 A 
HETATM    7  C   UNL     1      41.873 -13.114  -1.346  1.00  0.00    -0.021 A 
HETATM    8  C   UNL     1      41.461 -13.328  -2.668  1.00  0.00     0.012 A 
HETATM    9  C   UNL     1      41.005 -14.582  -3.075  1.00  0.00     0.003 A 
HETATM   10  C   UNL     1      40.949 -15.636  -2.162  1.00  0.00     0.029 A 
BRANCH   7  11
HETATM   11  C   UNL     1      42.337 -11.796  -0.928  1.00  0.00     0.010 A 
HETATM   12  C   UNL     1      43.095 -10.815  -1.614  1.00  0.00     0.152 A 
HETATM   13  N   UNL     1      43.308  -9.714  -0.887  1.00  0.00    -0.187 NA
HETATM   14  N   UNL     1      42.689  -9.983   0.273  1.00  0.00    -0.289 N 
HETATM   15  H   UNL     1      42.712  -9.283   1.006  1.00  0.00     0.188 HD
HETATM   16  C   UNL     1      42.090 -11.209   0.297  1.00  0.00     0.123 A 
ENDBRANCH   7  11
ENDBRANCH   2   5
BRANCH   1  17
HETATM   17  C   UNL     1      41.694 -18.199   1.757  1.00  0.00     0.141 C 
BRANCH  17  18
HETATM   18  C   UNL     1      42.751 -18.980   2.512  1.00  0.00    -0.049 A 
HETATM   19  C   UNL     1      43.216 -18.591   3.781  1.00  0.00     0.014 A 
HETATM   20  C   UNL     1      44.191 -19.334   4.463  1.00  0.00    -0.058 A 
HETATM   21  C   UNL     1      44.751 -20.447   3.820  1.00  0.00     0.007 A 
HETATM   22  C   UNL     1      44.328 -20.824   2.546  1.00  0.00     0.001 A 
HETATM   23  C   UNL     1      43.331 -20.097   1.898  1.00  0.00     0.007 A 
BRANCH  20  24
HETATM   24  C   UNL     1      44.703 -18.957   5.835  1.00  0.00     0.034 C 
HETATM   25  C   UNL     1      43.845 -19.389   7.019  1.00  0.00     0.010 C 
ENDBRANCH  20  24
ENDBRANCH  17  18
ENDBRANCH   1  17
TORSDOF 5
ENDMDL
MODEL 6
REMARK VINA RESULT:      -7.7      2.120      3.372
REMARK  5 active torsions:
REMARK  status: ('A' for Active; 'I' for Inactive)
REMARK    1  A    between atoms: C_2  and  C_3 
REMARK    2  A    between atoms: C_5  and  C_6 
REMARK    3  A    between atoms: C_6  and  C_7 
REMARK       I    between atoms: C_7  and  N_8 
REMARK    4  A    between atoms: N_8  and  C_9 
REMARK    5  A    between atoms: C_11  and  C_12 
ROOT
HETATM    1  C   UNL     1      41.855 -16.322   1.018  1.00  0.00     0.226 C 
HETATM    2  N   UNL     1      40.968 -16.078  -0.019  1.00  0.00    -0.327 N 
HETATM    3  O   UNL     1      43.005 -15.903   1.108  1.00  0.00    -0.273 OA
HETATM    4  H   UNL     1      40.051 -16.500   0.068  1.00  0.00     0.169 HD
ENDROOT
BRANCH   2   5
HETATM    5  C   UNL     1      41.152 -15.219  -1.124  1.00  0.00     0.035 A 
HETATM    6  C   UNL     1      41.699 -13.934  -1.032  1.00  0.00     0.042 A 
HETATM    7  C   UNL     1      41.817 -13.106  -2.163  1.00  0.00    -0.021 A 
HETATM    8  C   UNL     1      41.390 -13.600  -3.401  1.00  0.00     0.012 A 
HETATM    9  C   UNL     1      40.855 -14.884  -3.508  1.00  0.00     0.003 A 
HETATM   10  C   UNL     1      40.734 -15.688  -2.373  1.00  0.00     0.029 A 
BRANCH   7  11
HETATM   11  C   UNL     1      42.363 -11.757  -2.060  1.00  0.00     0.010 A 
HETATM   12  C   UNL     1      42.878 -11.044  -0.950  1.00  0.00     0.152 A 
HETATM   13  N   UNL     1      43.304  -9.818  -1.266  1.00  0.00    -0.187 NA
HETATM   14  N   UNL     1      43.061  -9.734  -2.583  1.00  0.00    -0.289 N 
HETATM   15  H   UNL     1      43.302  -8.876  -3.065  1.00  0.00     0.188 HD
HETATM   16  C   UNL     1      42.506 -10.867  -3.105  1.00  0.00     0.123 A 
ENDBRANCH   7  11
ENDBRANCH   2   5
BRANCH   1  17
HETATM   17  C   UNL     1      41.268 -17.209   2.106  1.00  0.00     0.141 C 
BRANCH  17  18
HETATM   18  C   UNL     1      42.271 -18.012   2.908  1.00  0.00    -0.049 A 
HETATM   19  C   UNL     1      43.019 -19.064   2.349  1.00  0.00     0.014 A 
HETATM   20  C   UNL     1      43.946 -19.789   3.112  1.00  0.00    -0.058 A 
HETATM   21  C   UNL     1      44.068 -19.488   4.476  1.00  0.00     0.007 A 
HETATM   22  C   UNL     1      43.306 -18.473   5.055  1.00  0.00     0.001 A 
HETATM   23  C   UNL     1      42.417 -17.737   4.275  1.00  0.00     0.007 A 
BRANCH  20  24
HETATM   24  C   UNL     1      44.780 -20.915   2.542  1.00  0.00     0.034 C 
HETATM   25  C   UNL     1      44.048 -21.915   1.655  1.00  0.00     0.010 C 
ENDBRANCH  20  24
ENDBRANCH  17  18
ENDBRANCH   1  17
TORSDOF 5
ENDMDL
MODEL 7
REMARK VINA RESULT:      -7.4      2.895      4.728
REMARK  5 active torsions:
REMARK  status: ('A' for Active; 'I' for Inactive)
REMARK    1  A    between atoms: C_2  and  C_3 
REMARK    2  A    between atoms: C_5  and  C_6 
REMARK    3  A    between atoms: C_6  and  C_7 
REMARK       I    between atoms: C_7  and  N_8 
REMARK    4  A    between atoms: N_8  and  C_9 
REMARK    5  A    between atoms: C_11  and  C_12 
ROOT
HETATM    1  C   UNL     1      40.864 -16.068   1.069  1.00  0.00     0.226 C 
HETATM    2  N   UNL     1      39.576 -15.718   1.443  1.00  0.00    -0.327 N 
HETATM    3  O   UNL     1      41.755 -15.302   0.715  1.00  0.00    -0.273 OA
HETATM    4  H   UNL     1      38.966 -16.481   1.712  1.00  0.00     0.169 HD
ENDROOT
BRANCH   2   5
HETATM    5  C   UNL     1      39.050 -14.418   1.604  1.00  0.00     0.035 A 
HETATM    6  C   UNL     1      39.418 -13.549   2.637  1.00  0.00     0.042 A 
HETATM    7  C   UNL     1      38.827 -12.280   2.772  1.00  0.00    -0.021 A 
HETATM    8  C   UNL     1      37.865 -11.887   1.834  1.00  0.00     0.012 A 
HETATM    9  C   UNL     1      37.499 -12.740   0.792  1.00  0.00     0.003 A 
HETATM   10  C   UNL     1      38.087 -14.000   0.680  1.00  0.00     0.029 A 
BRANCH   7  11
HETATM   11  C   UNL     1      39.193 -11.387   3.865  1.00  0.00     0.010 A 
HETATM   12  C   UNL     1      39.590 -10.026   3.862  1.00  0.00     0.152 A 
HETATM   13  N   UNL     1      39.831  -9.547   5.086  1.00  0.00    -0.187 NA
HETATM   14  N   UNL     1      39.595 -10.600   5.883  1.00  0.00    -0.289 N 
HETATM   15  H   UNL     1      39.714 -10.484   6.883  1.00  0.00     0.188 HD
HETATM   16  C   UNL     1      39.205 -11.718   5.205  1.00  0.00     0.123 A 
ENDBRANCH   7  11
ENDBRANCH   2   5
BRANCH   1  17
HETATM   17  C   UNL     1      41.112 -17.569   1.123  1.00  0.00     0.141 C 
BRANCH  17  18
HETATM   18  C   UNL     1      42.111 -18.030   2.165  1.00  0.00    -0.049 A 
HETATM   19  C   UNL     1      42.942 -19.148   1.973  1.00  0.00     0.014 A 
HETATM   20  C   UNL     1      43.864 -19.552   2.951  1.00  0.00    -0.058 A 
HETATM   21  C   UNL     1      43.896 -18.852   4.165  1.00  0.00     0.007 A 
HETATM   22  C   UNL     1      43.053 -17.764   4.386  1.00  0.00     0.001 A 
HETATM   23  C   UNL     1      42.169 -17.352   3.390  1.00  0.00     0.007 A 
BRANCH  20  24
HETATM   24  C   UNL     1      44.785 -20.738   2.773  1.00  0.00     0.034 C 
HETATM   25  C   UNL     1      44.271 -21.866   1.886  1.00  0.00     0.010 C 
ENDBRANCH  20  24
ENDBRANCH  17  18
ENDBRANCH   1  17
TORSDOF 5
ENDMDL
MODEL 8
REMARK VINA RESULT:      -7.4      2.315      8.367
REMARK  5 active torsions:
REMARK  status: ('A' for Active; 'I' for Inactive)
REMARK    1  A    between atoms: C_2  and  C_3 
REMARK    2  A    between atoms: C_5  and  C_6 
REMARK    3  A    between atoms: C_6  and  C_7 
REMARK       I    between atoms: C_7  and  N_8 
REMARK    4  A    between atoms: N_8  and  C_9 
REMARK    5  A    between atoms: C_11  and  C_12 
ROOT
HETATM    1  C   UNL     1      41.456 -15.442   1.602  1.00  0.00     0.226 C 
HETATM    2  N   UNL     1      41.346 -16.816   1.748  1.00  0.00    -0.327 N 
HETATM    3  O   UNL     1      42.276 -14.712   2.151  1.00  0.00    -0.273 OA
HETATM    4  H   UNL     1      40.611 -17.265   1.214  1.00  0.00     0.169 HD
ENDROOT
BRANCH   2   5
HETATM    5  C   UNL     1      42.208 -17.677   2.461  1.00  0.00     0.035 A 
HETATM    6  C   UNL     1      42.316 -17.694   3.855  1.00  0.00     0.042 A 
HETATM    7  C   UNL     1      43.226 -18.544   4.510  1.00  0.00    -0.021 A 
HETATM    8  C   UNL     1      44.019 -19.398   3.734  1.00  0.00     0.012 A 
HETATM    9  C   UNL     1      43.911 -19.400   2.343  1.00  0.00     0.003 A 
HETATM   10  C   UNL     1      43.011 -18.541   1.710  1.00  0.00     0.029 A 
BRANCH   7  11
HETATM   11  C   UNL     1      43.355 -18.541   5.962  1.00  0.00     0.010 A 
HETATM   12  C   UNL     1      44.034 -19.424   6.838  1.00  0.00     0.152 A 
HETATM   13  N   UNL     1      43.930 -19.071   8.122  1.00  0.00    -0.187 NA
HETATM   14  N   UNL     1      43.180 -17.960   8.080  1.00  0.00    -0.289 N 
HETATM   15  H   UNL     1      42.957 -17.495   8.953  1.00  0.00     0.188 HD
HETATM   16  C   UNL     1      42.817 -17.598   6.815  1.00  0.00     0.123 A 
ENDBRANCH   7  11
ENDBRANCH   2   5
BRANCH   1  17
HETATM   17  C   UNL     1      40.417 -14.860   0.655  1.00  0.00     0.141 C 
BRANCH  17  18
HETATM   18  C   UNL     1      40.904 -14.559  -0.748  1.00  0.00    -0.049 A 
HETATM   19  C   UNL     1      41.413 -13.301  -1.119  1.00  0.00     0.014 A 
HETATM   20  C   UNL     1      41.864 -13.050  -2.423  1.00  0.00    -0.058 A 
HETATM   21  C   UNL     1      41.734 -14.066  -3.381  1.00  0.00     0.007 A 
HETATM   22  C   UNL     1      41.196 -15.306  -3.039  1.00  0.00     0.001 A 
HETATM   23  C   UNL     1      40.788 -15.553  -1.729  1.00  0.00     0.007 A 
BRANCH  20  24
HETATM   24  C   UNL     1      42.433 -11.717  -2.854  1.00  0.00     0.034 C 
HETATM   25  C   UNL     1      42.376 -11.408  -4.346  1.00  0.00     0.010 C 
ENDBRANCH  20  24
ENDBRANCH  17  18
ENDBRANCH   1  17
TORSDOF 5
ENDMDL
MODEL 9
REMARK VINA RESULT:      -7.4      2.640      7.895
REMARK  5 active torsions:
REMARK  status: ('A' for Active; 'I' for Inactive)
REMARK    1  A    between atoms: C_2  and  C_3 
REMARK    2  A    between atoms: C_5  and  C_6 
REMARK    3  A    between atoms: C_6  and  C_7 
REMARK       I    between atoms: C_7  and  N_8 
REMARK    4  A    between atoms: N_8  and  C_9 
REMARK    5  A    between atoms: C_11  and  C_12 
ROOT
HETATM    1  C   UNL     1      41.032 -16.273   1.451  1.00  0.00     0.226 C 
HETATM    2  N   UNL     1      42.173 -16.040   2.203  1.00  0.00    -0.327 N 
HETATM    3  O   UNL     1      40.476 -17.354   1.285  1.00  0.00    -0.273 OA
HETATM    4  H   UNL     1      42.499 -15.081   2.237  1.00  0.00     0.169 HD
ENDROOT
BRANCH   2   5
HETATM    5  C   UNL     1      42.869 -16.959   3.018  1.00  0.00     0.035 A 
HETATM    6  C   UNL     1      43.182 -18.266   2.629  1.00  0.00     0.042 A 
HETATM    7  C   UNL     1      43.839 -19.152   3.501  1.00  0.00    -0.021 A 
HETATM    8  C   UNL     1      44.196 -18.695   4.776  1.00  0.00     0.012 A 
HETATM    9  C   UNL     1      43.901 -17.389   5.170  1.00  0.00     0.003 A 
HETATM   10  C   UNL     1      43.238 -16.527   4.295  1.00  0.00     0.029 A 
BRANCH   7  11
HETATM   11  C   UNL     1      44.141 -20.523   3.104  1.00  0.00     0.010 A 
HETATM   12  C   UNL     1      44.001 -21.182   1.858  1.00  0.00     0.152 A 
HETATM   13  N   UNL     1      44.407 -22.455   1.889  1.00  0.00    -0.187 NA
HETATM   14  N   UNL     1      44.807 -22.622   3.159  1.00  0.00    -0.289 N 
HETATM   15  H   UNL     1      45.164 -23.529   3.437  1.00  0.00     0.188 HD
HETATM   16  C   UNL     1      44.674 -21.498   3.922  1.00  0.00     0.123 A 
ENDBRANCH   7  11
ENDBRANCH   2   5
BRANCH   1  17
HETATM   17  C   UNL     1      40.484 -15.013   0.797  1.00  0.00     0.141 C 
BRANCH  17  18
HETATM   18  C   UNL     1      40.962 -14.748  -0.616  1.00  0.00    -0.049 A 
HETATM   19  C   UNL     1      41.570 -13.537  -0.995  1.00  0.00     0.014 A 
HETATM   20  C   UNL     1      42.009 -13.319  -2.309  1.00  0.00    -0.058 A 
HETATM   21  C   UNL     1      41.767 -14.313  -3.267  1.00  0.00     0.007 A 
HETATM   22  C   UNL     1      41.131 -15.504  -2.916  1.00  0.00     0.001 A 
HETATM   23  C   UNL     1      40.735 -15.722  -1.598  1.00  0.00     0.007 A 
BRANCH  20  24
HETATM   24  C   UNL     1      42.682 -12.038  -2.749  1.00  0.00     0.034 C 
HETATM   25  C   UNL     1      42.260 -11.483  -4.105  1.00  0.00     0.010 C 
ENDBRANCH  20  24
ENDBRANCH  17  18
ENDBRANCH   1  17
TORSDOF 5
ENDMDL
MODEL 10
REMARK VINA RESULT:      -7.4      2.513      8.405
REMARK  5 active torsions:
REMARK  status: ('A' for Active; 'I' for Inactive)
REMARK    1  A    between atoms: C_2  and  C_3 
REMARK    2  A    between atoms: C_5  and  C_6 
REMARK    3  A    between atoms: C_6  and  C_7 
REMARK       I    between atoms: C_7  and  N_8 
REMARK    4  A    between atoms: N_8  and  C_9 
REMARK    5  A    between atoms: C_11  and  C_12 
ROOT
HETATM    1  C   UNL     1      41.059 -16.115   2.319  1.00  0.00     0.226 C 
HETATM    2  N   UNL     1      42.372 -16.296   2.727  1.00  0.00    -0.327 N 
HETATM    3  O   UNL     1      40.223 -16.995   2.140  1.00  0.00    -0.273 OA
HETATM    4  H   UNL     1      42.928 -15.455   2.829  1.00  0.00     0.169 HD
ENDROOT
BRANCH   2   5
HETATM    5  C   UNL     1      42.991 -17.500   3.126  1.00  0.00     0.035 A 
HETATM    6  C   UNL     1      42.993 -17.979   4.440  1.00  0.00     0.042 A 
HETATM    7  C   UNL     1      43.665 -19.164   4.787  1.00  0.00    -0.021 A 
HETATM    8  C   UNL     1      44.327 -19.877   3.780  1.00  0.00     0.012 A 
HETATM    9  C   UNL     1      44.322 -19.416   2.463  1.00  0.00     0.003 A 
HETATM   10  C   UNL     1      43.659 -18.231   2.139  1.00  0.00     0.029 A 
BRANCH   7  11
HETATM   11  C   UNL     1      43.687 -19.648   6.163  1.00  0.00     0.010 A 
HETATM   12  C   UNL     1      43.689 -20.965   6.686  1.00  0.00     0.152 A 
HETATM   13  N   UNL     1      43.729 -20.998   8.021  1.00  0.00    -0.187 NA
HETATM   14  N   UNL     1      43.748 -19.701   8.364  1.00  0.00    -0.289 N 
HETATM   15  H   UNL     1      43.777 -19.463   9.349  1.00  0.00     0.188 HD
HETATM   16  C   UNL     1      43.731 -18.856   7.292  1.00  0.00     0.123 A 
ENDBRANCH   7  11
ENDBRANCH   2   5
BRANCH   1  17
HETATM   17  C   UNL     1      40.705 -14.654   2.087  1.00  0.00     0.141 C 
BRANCH  17  18
HETATM   18  C   UNL     1      39.801 -14.380   0.902  1.00  0.00    -0.049 A 
HETATM   19  C   UNL     1      40.265 -14.409  -0.426  1.00  0.00     0.014 A 
HETATM   20  C   UNL     1      39.406 -14.158  -1.507  1.00  0.00    -0.058 A 
HETATM   21  C   UNL     1      38.077 -13.805  -1.234  1.00  0.00     0.007 A 
HETATM   22  C   UNL     1      37.611 -13.734   0.078  1.00  0.00     0.001 A 
HETATM   23  C   UNL     1      38.467 -14.024   1.140  1.00  0.00     0.007 A 
BRANCH  20  24
HETATM   24  C   UNL     1      39.864 -14.198  -2.947  1.00  0.00     0.034 C 
HETATM   25  C   UNL     1      41.231 -14.823  -3.205  1.00  0.00     0.010 C 
ENDBRANCH  20  24
ENDBRANCH  17  18
ENDBRANCH   1  17
TORSDOF 5
ENDMDL
