MODEL 1
REMARK VINA RESULT:      -9.4      0.000      0.000
REMARK  7 active torsions:
REMARK  status: ('A' for Active; 'I' for Inactive)
REMARK    1  A    between atoms: C_4  and  N_5 
REMARK    2  A    between atoms: C_6  and  S_7 
REMARK    3  A    between atoms: S_7  and  C_8 
REMARK    4  A    between atoms: C_8  and  C_9 
REMARK       I    between atoms: C_9  and  N_10 
REMARK    5  A    between atoms: C_12  and  C_13 
REMARK    6  A    between atoms: C_13  and  N_14 
REMARK       I    between atoms: N_14  and  C_15 
REMARK       I    between atoms: C_15  and  N_16 
REMARK    7  A    between atoms: N_16  and  C_17 
ROOT
HETATM    1  C   UNL     1      40.127 -14.362   5.096  1.00  0.00     0.229 C 
HETATM    2  N   UNL     1      40.011 -12.991   5.374  1.00  0.00    -0.351 N 
HETATM    3  C   UNL     1      39.809 -12.465   6.721  1.00  0.00     0.132 C 
HETATM    4  C   UNL     1      40.177 -10.987   6.893  1.00  0.00     0.021 C 
HETATM    5  C   UNL     1      39.590 -10.134   5.761  1.00  0.00     0.009 C 
HETATM    6  C   UNL     1      39.914 -10.711   4.391  1.00  0.00     0.020 C 
HETATM    7  C   UNL     1      39.475 -12.166   4.290  1.00  0.00     0.126 C 
HETATM    8  O   UNL     1      39.977 -14.782   3.941  1.00  0.00    -0.273 OA
ENDROOT
BRANCH   1   9
HETATM    9  C   UNL     1      40.647 -15.326   6.156  1.00  0.00     0.185 C 
BRANCH   9  10
HETATM   10  S   UNL     1      40.962 -17.046   5.707  1.00  0.00    -0.082 SA
BRANCH  10  11
HETATM   11  C   UNL     1      42.567 -17.362   6.272  1.00  0.00     0.173 A 
HETATM   12  N   UNL     1      43.587 -17.882   5.478  1.00  0.00    -0.299 N 
HETATM   13  C   UNL     1      44.643 -18.091   6.346  1.00  0.00     0.118 A 
HETATM   14  C   UNL     1      44.210 -17.698   7.588  1.00  0.00     0.137 A 
HETATM   15  N   UNL     1      42.921 -17.258   7.532  1.00  0.00    -0.235 NA
BRANCH  12  16
HETATM   16  C   UNL     1      43.638 -18.085   4.064  1.00  0.00     0.047 A 
HETATM   17  C   UNL     1      43.730 -19.403   3.577  1.00  0.00     0.037 A 
HETATM   18  C   UNL     1      43.722 -19.677   2.204  1.00  0.00    -0.060 A 
HETATM   19  C   UNL     1      43.853 -21.087   1.704  1.00  0.00     0.048 C 
HETATM   20  C   UNL     1      43.632 -18.616   1.306  1.00  0.00     0.007 A 
HETATM   21  C   UNL     1      43.542 -17.303   1.775  1.00  0.00     0.009 A 
HETATM   22  C   UNL     1      43.559 -17.012   3.152  1.00  0.00    -0.035 A 
HETATM   23  C   UNL     1      43.537 -15.560   3.546  1.00  0.00     0.050 C 
ENDBRANCH  12  16
ENDBRANCH  10  11
ENDBRANCH   9  10
ENDBRANCH   1   9
BRANCH   4  24
HETATM   24  C   UNL     1      41.704 -10.849   7.039  1.00  0.00     0.130 C 
BRANCH  24  25
HETATM   25  N   UNL     1      42.178 -10.948   8.408  1.00  0.00    -0.342 N 
HETATM   26  C   UNL     1      43.291 -11.670   8.721  1.00  0.00     0.320 C 
HETATM   27  N   UNL     1      43.726 -11.623  10.012  1.00  0.00    -0.309 N 
HETATM   28  O   UNL     1      43.940 -12.305   7.893  1.00  0.00    -0.247 OA
HETATM   29  H   UNL     1      44.652 -12.026  10.090  1.00  0.00     0.170 HD
HETATM   30  H   UNL     1      42.103 -10.098   8.947  1.00  0.00     0.164 HD
BRANCH  27  31
HETATM   31  C   UNL     1      43.142 -11.151  11.202  1.00  0.00     0.039 A 
HETATM   32  C   UNL     1      41.924 -11.599  11.717  1.00  0.00     0.071 A 
HETATM   33  C   UNL     1      41.427 -11.048  12.896  1.00  0.00     0.118 A 
HETATM   34  F   UNL     1      40.251 -11.477  13.373  1.00  0.00    -0.206 F 
HETATM   35  C   UNL     1      42.128 -10.070  13.591  1.00  0.00     0.042 A 
HETATM   36  C   UNL     1      43.360  -9.645  13.106  1.00  0.00     0.005 A 
HETATM   37  C   UNL     1      43.867 -10.191  11.922  1.00  0.00     0.030 A 
ENDBRANCH  27  31
ENDBRANCH  24  25
ENDBRANCH   4  24
TORSDOF 7
ENDMDL
MODEL 2
REMARK VINA RESULT:      -9.4      3.454      9.336
REMARK  7 active torsions:
REMARK  status: ('A' for Active; 'I' for Inactive)
REMARK    1  A    between atoms: C_4  and  N_5 
REMARK    2  A    between atoms: C_6  and  S_7 
REMARK    3  A    between atoms: S_7  and  C_8 
REMARK    4  A    between atoms: C_8  and  C_9 
REMARK       I    between atoms: C_9  and  N_10 
REMARK    5  A    between atoms: C_12  and  C_13 
REMARK    6  A    between atoms: C_13  and  N_14 
REMARK       I    between atoms: N_14  and  C_15 
REMARK       I    between atoms: C_15  and  N_16 
REMARK    7  A    between atoms: N_16  and  C_17 
ROOT
HETATM    1  C   UNL     1      39.908 -12.280   6.233  1.00  0.00     0.229 C 
HETATM    2  N   UNL     1      40.755 -13.051   5.421  1.00  0.00    -0.351 N 
HETATM    3  C   UNL     1      42.141 -12.688   5.143  1.00  0.00     0.132 C 
HETATM    4  C   UNL     1      43.022 -13.846   4.659  1.00  0.00     0.021 C 
HETATM    5  C   UNL     1      42.321 -14.652   3.557  1.00  0.00     0.009 C 
HETATM    6  C   UNL     1      40.911 -15.055   3.960  1.00  0.00     0.020 C 
HETATM    7  C   UNL     1      40.091 -13.842   4.383  1.00  0.00     0.126 C 
HETATM    8  O   UNL     1      38.681 -12.438   6.187  1.00  0.00    -0.273 OA
ENDROOT
BRANCH   1   9
HETATM    9  C   UNL     1      40.484 -11.393   7.331  1.00  0.00     0.185 C 
BRANCH   9  10
HETATM   10  S   UNL     1      39.537 -11.133   8.844  1.00  0.00    -0.082 SA
BRANCH  10  11
HETATM   11  C   UNL     1      40.095  -9.615   9.460  1.00  0.00     0.173 A 
HETATM   12  N   UNL     1      41.217  -9.466  10.272  1.00  0.00    -0.299 N 
HETATM   13  C   UNL     1      41.224  -8.130  10.629  1.00  0.00     0.118 A 
HETATM   14  C   UNL     1      40.128  -7.561  10.029  1.00  0.00     0.137 A 
HETATM   15  N   UNL     1      39.432  -8.492   9.316  1.00  0.00    -0.235 NA
BRANCH  12  16
HETATM   16  C   UNL     1      42.233 -10.410  10.619  1.00  0.00     0.047 A 
HETATM   17  C   UNL     1      43.324 -10.575   9.745  1.00  0.00     0.037 A 
HETATM   18  C   UNL     1      44.383 -11.437  10.053  1.00  0.00    -0.060 A 
HETATM   19  C   UNL     1      45.522 -11.624   9.092  1.00  0.00     0.048 C 
HETATM   20  C   UNL     1      44.345 -12.151  11.249  1.00  0.00     0.007 A 
HETATM   21  C   UNL     1      43.269 -11.997  12.125  1.00  0.00     0.009 A 
HETATM   22  C   UNL     1      42.192 -11.143  11.823  1.00  0.00    -0.035 A 
HETATM   23  C   UNL     1      41.047 -11.112  12.800  1.00  0.00     0.050 C 
ENDBRANCH  12  16
ENDBRANCH  10  11
ENDBRANCH   9  10
ENDBRANCH   1   9
BRANCH   4  24
HETATM   24  C   UNL     1      43.458 -14.702   5.863  1.00  0.00     0.130 C 
BRANCH  24  25
HETATM   25  N   UNL     1      43.520 -16.126   5.583  1.00  0.00    -0.342 N 
HETATM   26  C   UNL     1      43.132 -17.047   6.510  1.00  0.00     0.320 C 
HETATM   27  N   UNL     1      43.122 -18.354   6.127  1.00  0.00    -0.309 N 
HETATM   28  O   UNL     1      42.744 -16.749   7.637  1.00  0.00    -0.247 OA
HETATM   29  H   UNL     1      42.639 -18.922   6.814  1.00  0.00     0.170 HD
HETATM   30  H   UNL     1      43.258 -16.386   4.644  1.00  0.00     0.164 HD
BRANCH  27  31
HETATM   31  C   UNL     1      43.649 -19.030   5.011  1.00  0.00     0.039 A 
HETATM   32  C   UNL     1      43.292 -18.769   3.688  1.00  0.00     0.071 A 
HETATM   33  C   UNL     1      43.862 -19.512   2.657  1.00  0.00     0.118 A 
HETATM   34  F   UNL     1      43.502 -19.261   1.392  1.00  0.00    -0.206 F 
HETATM   35  C   UNL     1      44.802 -20.503   2.914  1.00  0.00     0.042 A 
HETATM   36  C   UNL     1      45.193 -20.745   4.226  1.00  0.00     0.005 A 
HETATM   37  C   UNL     1      44.625 -20.004   5.267  1.00  0.00     0.030 A 
ENDBRANCH  27  31
ENDBRANCH  24  25
ENDBRANCH   4  24
TORSDOF 7
ENDMDL
MODEL 3
REMARK VINA RESULT:      -9.4      2.428      3.098
REMARK  7 active torsions:
REMARK  status: ('A' for Active; 'I' for Inactive)
REMARK    1  A    between atoms: C_4  and  N_5 
REMARK    2  A    between atoms: C_6  and  S_7 
REMARK    3  A    between atoms: S_7  and  C_8 
REMARK    4  A    between atoms: C_8  and  C_9 
REMARK       I    between atoms: C_9  and  N_10 
REMARK    5  A    between atoms: C_12  and  C_13 
REMARK    6  A    between atoms: C_13  and  N_14 
REMARK       I    between atoms: N_14  and  C_15 
REMARK       I    between atoms: C_15  and  N_16 
REMARK    7  A    between atoms: N_16  and  C_17 
ROOT
HETATM    1  C   UNL     1      43.360 -13.650   4.251  1.00  0.00     0.229 C 
HETATM    2  N   UNL     1      42.203 -12.863   4.137  1.00  0.00    -0.351 N 
HETATM    3  C   UNL     1      41.185 -12.787   5.179  1.00  0.00     0.132 C 
HETATM    4  C   UNL     1      40.273 -11.557   5.096  1.00  0.00     0.021 C 
HETATM    5  C   UNL     1      39.765 -11.341   3.665  1.00  0.00     0.009 C 
HETATM    6  C   UNL     1      40.899 -11.357   2.652  1.00  0.00     0.020 C 
HETATM    7  C   UNL     1      41.726 -12.631   2.772  1.00  0.00     0.126 C 
HETATM    8  O   UNL     1      44.025 -13.937   3.247  1.00  0.00    -0.273 OA
ENDROOT
BRANCH   1   9
HETATM    9  C   UNL     1      43.938 -13.983   5.622  1.00  0.00     0.185 C 
BRANCH   9  10
HETATM   10  S   UNL     1      44.171 -15.711   6.086  1.00  0.00    -0.082 SA
BRANCH  10  11
HETATM   11  C   UNL     1      42.594 -16.417   5.967  1.00  0.00     0.173 A 
HETATM   12  N   UNL     1      42.272 -17.473   5.117  1.00  0.00    -0.299 N 
HETATM   13  C   UNL     1      40.904 -17.630   5.248  1.00  0.00     0.118 A 
HETATM   14  C   UNL     1      40.487 -16.680   6.145  1.00  0.00     0.137 A 
HETATM   15  N   UNL     1      41.539 -15.928   6.576  1.00  0.00    -0.235 NA
BRANCH  12  16
HETATM   16  C   UNL     1      43.121 -18.315   4.336  1.00  0.00     0.047 A 
HETATM   17  C   UNL     1      43.716 -19.431   4.955  1.00  0.00     0.037 A 
HETATM   18  C   UNL     1      44.509 -20.332   4.234  1.00  0.00    -0.060 A 
HETATM   19  C   UNL     1      45.161 -21.497   4.921  1.00  0.00     0.048 C 
HETATM   20  C   UNL     1      44.718 -20.106   2.875  1.00  0.00     0.007 A 
HETATM   21  C   UNL     1      44.135 -19.003   2.248  1.00  0.00     0.009 A 
HETATM   22  C   UNL     1      43.344 -18.084   2.963  1.00  0.00    -0.035 A 
HETATM   23  C   UNL     1      42.830 -16.889   2.206  1.00  0.00     0.050 C 
ENDBRANCH  12  16
ENDBRANCH  10  11
ENDBRANCH   9  10
ENDBRANCH   1   9
BRANCH   4  24
HETATM   24  C   UNL     1      41.003 -10.333   5.681  1.00  0.00     0.130 C 
BRANCH  24  25
HETATM   25  N   UNL     1      41.644 -10.584   6.959  1.00  0.00    -0.342 N 
HETATM   26  C   UNL     1      40.931 -10.589   8.121  1.00  0.00     0.320 C 
HETATM   27  N   UNL     1      41.591 -10.938   9.260  1.00  0.00    -0.309 N 
HETATM   28  O   UNL     1      39.727 -10.350   8.175  1.00  0.00    -0.247 OA
HETATM   29  H   UNL     1      40.936 -11.097  10.017  1.00  0.00     0.170 HD
HETATM   30  H   UNL     1      42.362 -11.293   6.942  1.00  0.00     0.164 HD
BRANCH  27  31
HETATM   31  C   UNL     1      42.956 -11.095   9.566  1.00  0.00     0.039 A 
HETATM   32  C   UNL     1      43.861 -11.823   8.792  1.00  0.00     0.071 A 
HETATM   33  C   UNL     1      45.189 -11.931   9.198  1.00  0.00     0.118 A 
HETATM   34  F   UNL     1      46.045 -12.643   8.454  1.00  0.00    -0.206 F 
HETATM   35  C   UNL     1      45.645 -11.311  10.355  1.00  0.00     0.042 A 
HETATM   36  C   UNL     1      44.760 -10.553  11.113  1.00  0.00     0.005 A 
HETATM   37  C   UNL     1      43.424 -10.439  10.713  1.00  0.00     0.030 A 
ENDBRANCH  27  31
ENDBRANCH  24  25
ENDBRANCH   4  24
TORSDOF 7
ENDMDL
MODEL 4
REMARK VINA RESULT:      -9.2      3.221      4.830
REMARK  7 active torsions:
REMARK  status: ('A' for Active; 'I' for Inactive)
REMARK    1  A    between atoms: C_4  and  N_5 
REMARK    2  A    between atoms: C_6  and  S_7 
REMARK    3  A    between atoms: S_7  and  C_8 
REMARK    4  A    between atoms: C_8  and  C_9 
REMARK       I    between atoms: C_9  and  N_10 
REMARK    5  A    between atoms: C_12  and  C_13 
REMARK    6  A    between atoms: C_13  and  N_14 
REMARK       I    between atoms: N_14  and  C_15 
REMARK       I    between atoms: C_15  and  N_16 
REMARK    7  A    between atoms: N_16  and  C_17 
ROOT
HETATM    1  C   UNL     1      41.107 -16.478   2.259  1.00  0.00     0.229 C 
HETATM    2  N   UNL     1      41.016 -15.383   1.385  1.00  0.00    -0.351 N 
HETATM    3  C   UNL     1      40.168 -14.225   1.644  1.00  0.00     0.132 C 
HETATM    4  C   UNL     1      40.548 -12.964   0.860  1.00  0.00     0.021 C 
HETATM    5  C   UNL     1      40.786 -13.284  -0.621  1.00  0.00     0.009 C 
HETATM    6  C   UNL     1      41.742 -14.453  -0.802  1.00  0.00     0.020 C 
HETATM    7  C   UNL     1      41.267 -15.676  -0.027  1.00  0.00     0.126 C 
HETATM    8  O   UNL     1      41.572 -17.557   1.867  1.00  0.00    -0.273 OA
ENDROOT
BRANCH   1   9
HETATM    9  C   UNL     1      40.841 -16.304   3.750  1.00  0.00     0.185 C 
BRANCH   9  10
HETATM   10  S   UNL     1      41.276 -17.636   4.887  1.00  0.00    -0.082 SA
BRANCH  10  11
HETATM   11  C   UNL     1      42.772 -17.137   5.600  1.00  0.00     0.173 A 
HETATM   12  N   UNL     1      43.847 -17.990   5.839  1.00  0.00    -0.299 N 
HETATM   13  C   UNL     1      44.768 -17.219   6.523  1.00  0.00     0.118 A 
HETATM   14  C   UNL     1      44.209 -15.973   6.660  1.00  0.00     0.137 A 
HETATM   15  N   UNL     1      42.969 -15.937   6.094  1.00  0.00    -0.235 NA
BRANCH  12  16
HETATM   16  C   UNL     1      44.063 -19.337   5.414  1.00  0.00     0.047 A 
HETATM   17  C   UNL     1      44.318 -19.581   4.051  1.00  0.00     0.037 A 
HETATM   18  C   UNL     1      44.599 -20.868   3.578  1.00  0.00    -0.060 A 
HETATM   19  C   UNL     1      44.836 -21.111   2.115  1.00  0.00     0.048 C 
HETATM   20  C   UNL     1      44.615 -21.929   4.481  1.00  0.00     0.007 A 
HETATM   21  C   UNL     1      44.363 -21.702   5.836  1.00  0.00     0.009 A 
HETATM   22  C   UNL     1      44.069 -20.415   6.324  1.00  0.00    -0.035 A 
HETATM   23  C   UNL     1      43.735 -20.297   7.786  1.00  0.00     0.050 C 
ENDBRANCH  12  16
ENDBRANCH  10  11
ENDBRANCH   9  10
ENDBRANCH   1   9
BRANCH   4  24
HETATM   24  C   UNL     1      41.745 -12.273   1.540  1.00  0.00     0.130 C 
BRANCH  24  25
HETATM   25  N   UNL     1      41.703 -12.315   2.991  1.00  0.00    -0.342 N 
HETATM   26  C   UNL     1      42.630 -13.013   3.707  1.00  0.00     0.320 C 
HETATM   27  N   UNL     1      42.580 -12.911   5.064  1.00  0.00    -0.309 N 
HETATM   28  O   UNL     1      43.527 -13.674   3.187  1.00  0.00    -0.247 OA
HETATM   29  H   UNL     1      43.417 -13.302   5.481  1.00  0.00     0.170 HD
HETATM   30  H   UNL     1      41.447 -11.445   3.434  1.00  0.00     0.164 HD
BRANCH  27  31
HETATM   31  C   UNL     1      41.615 -12.398   5.951  1.00  0.00     0.039 A 
HETATM   32  C   UNL     1      41.811 -11.291   6.779  1.00  0.00     0.071 A 
HETATM   33  C   UNL     1      40.793 -10.879   7.636  1.00  0.00     0.118 A 
HETATM   34  F   UNL     1      40.997  -9.824   8.434  1.00  0.00    -0.206 F 
HETATM   35  C   UNL     1      39.569 -11.535   7.674  1.00  0.00     0.042 A 
HETATM   36  C   UNL     1      39.350 -12.616   6.826  1.00  0.00     0.005 A 
HETATM   37  C   UNL     1      40.367 -13.037   5.963  1.00  0.00     0.030 A 
ENDBRANCH  27  31
ENDBRANCH  24  25
ENDBRANCH   4  24
TORSDOF 7
ENDMDL
MODEL 5
REMARK VINA RESULT:      -9.1      1.626      2.038
REMARK  7 active torsions:
REMARK  status: ('A' for Active; 'I' for Inactive)
REMARK    1  A    between atoms: C_4  and  N_5 
REMARK    2  A    between atoms: C_6  and  S_7 
REMARK    3  A    between atoms: S_7  and  C_8 
REMARK    4  A    between atoms: C_8  and  C_9 
REMARK       I    between atoms: C_9  and  N_10 
REMARK    5  A    between atoms: C_12  and  C_13 
REMARK    6  A    between atoms: C_13  and  N_14 
REMARK       I    between atoms: N_14  and  C_15 
REMARK       I    between atoms: C_15  and  N_16 
REMARK    7  A    between atoms: N_16  and  C_17 
ROOT
HETATM    1  C   UNL     1      42.069 -12.503   4.058  1.00  0.00     0.229 C 
HETATM    2  N   UNL     1      41.281 -11.655   4.853  1.00  0.00    -0.351 N 
HETATM    3  C   UNL     1      40.948 -11.949   6.243  1.00  0.00     0.132 C 
HETATM    4  C   UNL     1      40.508 -10.733   7.067  1.00  0.00     0.021 C 
HETATM    5  C   UNL     1      39.472  -9.894   6.307  1.00  0.00     0.009 C 
HETATM    6  C   UNL     1      39.933  -9.568   4.895  1.00  0.00     0.020 C 
HETATM    7  C   UNL     1      40.307 -10.833   4.132  1.00  0.00     0.126 C 
HETATM    8  O   UNL     1      42.064 -12.389   2.825  1.00  0.00    -0.273 OA
ENDROOT
BRANCH   1   9
HETATM    9  C   UNL     1      43.100 -13.427   4.696  1.00  0.00     0.185 C 
BRANCH   9  10
HETATM   10  S   UNL     1      43.319 -15.093   4.040  1.00  0.00    -0.082 SA
BRANCH  10  11
HETATM   11  C   UNL     1      42.180 -16.064   4.909  1.00  0.00     0.173 A 
HETATM   12  N   UNL     1      41.981 -17.424   4.686  1.00  0.00    -0.299 N 
HETATM   13  C   UNL     1      40.912 -17.765   5.495  1.00  0.00     0.118 A 
HETATM   14  C   UNL     1      40.532 -16.617   6.143  1.00  0.00     0.137 A 
HETATM   15  N   UNL     1      41.317 -15.568   5.765  1.00  0.00    -0.235 NA
BRANCH  12  16
HETATM   16  C   UNL     1      42.734 -18.346   3.895  1.00  0.00     0.047 A 
HETATM   17  C   UNL     1      43.667 -19.180   4.540  1.00  0.00     0.037 A 
HETATM   18  C   UNL     1      44.393 -20.147   3.835  1.00  0.00    -0.060 A 
HETATM   19  C   UNL     1      45.408 -21.005   4.535  1.00  0.00     0.048 C 
HETATM   20  C   UNL     1      44.191 -20.273   2.462  1.00  0.00     0.007 A 
HETATM   21  C   UNL     1      43.269 -19.452   1.809  1.00  0.00     0.009 A 
HETATM   22  C   UNL     1      42.539 -18.469   2.504  1.00  0.00    -0.035 A 
HETATM   23  C   UNL     1      41.632 -17.586   1.690  1.00  0.00     0.050 C 
ENDBRANCH  12  16
ENDBRANCH  10  11
ENDBRANCH   9  10
ENDBRANCH   1   9
BRANCH   4  24
HETATM   24  C   UNL     1      41.747  -9.930   7.505  1.00  0.00     0.130 C 
BRANCH  24  25
HETATM   25  N   UNL     1      42.194 -10.225   8.855  1.00  0.00    -0.342 N 
HETATM   26  C   UNL     1      43.263 -11.039   9.085  1.00  0.00     0.320 C 
HETATM   27  N   UNL     1      43.680 -11.176  10.375  1.00  0.00    -0.309 N 
HETATM   28  O   UNL     1      43.890 -11.600   8.189  1.00  0.00    -0.247 OA
HETATM   29  H   UNL     1      44.583 -11.636  10.410  1.00  0.00     0.170 HD
HETATM   30  H   UNL     1      42.156  -9.446   9.495  1.00  0.00     0.164 HD
BRANCH  27  31
HETATM   31  C   UNL     1      43.104 -10.826  11.610  1.00  0.00     0.039 A 
HETATM   32  C   UNL     1      41.893 -11.328  12.088  1.00  0.00     0.071 A 
HETATM   33  C   UNL     1      41.403 -10.898  13.319  1.00  0.00     0.118 A 
HETATM   34  F   UNL     1      40.234 -11.377  13.762  1.00  0.00    -0.206 F 
HETATM   35  C   UNL     1      42.106  -9.988  14.100  1.00  0.00     0.042 A 
HETATM   36  C   UNL     1      43.332  -9.511  13.650  1.00  0.00     0.005 A 
HETATM   37  C   UNL     1      43.831  -9.936  12.414  1.00  0.00     0.030 A 
ENDBRANCH  27  31
ENDBRANCH  24  25
ENDBRANCH   4  24
TORSDOF 7
ENDMDL
MODEL 6
REMARK VINA RESULT:      -9.1      3.693      9.869
REMARK  7 active torsions:
REMARK  status: ('A' for Active; 'I' for Inactive)
REMARK    1  A    between atoms: C_4  and  N_5 
REMARK    2  A    between atoms: C_6  and  S_7 
REMARK    3  A    between atoms: S_7  and  C_8 
REMARK    4  A    between atoms: C_8  and  C_9 
REMARK       I    between atoms: C_9  and  N_10 
REMARK    5  A    between atoms: C_12  and  C_13 
REMARK    6  A    between atoms: C_13  and  N_14 
REMARK       I    between atoms: N_14  and  C_15 
REMARK       I    between atoms: C_15  and  N_16 
REMARK    7  A    between atoms: N_16  and  C_17 
ROOT
HETATM    1  C   UNL     1      40.659 -12.574   3.510  1.00  0.00     0.229 C 
HETATM    2  N   UNL     1      40.699 -13.838   2.900  1.00  0.00    -0.351 N 
HETATM    3  C   UNL     1      41.942 -14.558   2.638  1.00  0.00     0.132 C 
HETATM    4  C   UNL     1      41.775 -16.066   2.421  1.00  0.00     0.021 C 
HETATM    5  C   UNL     1      40.628 -16.362   1.446  1.00  0.00     0.009 C 
HETATM    6  C   UNL     1      39.351 -15.633   1.836  1.00  0.00     0.020 C 
HETATM    7  C   UNL     1      39.595 -14.137   1.986  1.00  0.00     0.126 C 
HETATM    8  O   UNL     1      39.645 -11.870   3.426  1.00  0.00    -0.273 OA
ENDROOT
BRANCH   1   9
HETATM    9  C   UNL     1      41.768 -12.137   4.461  1.00  0.00     0.185 C 
BRANCH   9  10
HETATM   10  S   UNL     1      41.393 -11.912   6.211  1.00  0.00    -0.082 SA
BRANCH  10  11
HETATM   11  C   UNL     1      41.433 -10.198   6.454  1.00  0.00     0.173 A 
HETATM   12  N   UNL     1      41.384  -9.584   7.704  1.00  0.00    -0.299 N 
HETATM   13  C   UNL     1      41.314  -8.230   7.433  1.00  0.00     0.118 A 
HETATM   14  C   UNL     1      41.321  -8.106   6.066  1.00  0.00     0.137 A 
HETATM   15  N   UNL     1      41.384  -9.330   5.471  1.00  0.00    -0.235 NA
BRANCH  12  16
HETATM   16  C   UNL     1      41.483 -10.153   9.011  1.00  0.00     0.047 A 
HETATM   17  C   UNL     1      42.758 -10.277   9.597  1.00  0.00     0.037 A 
HETATM   18  C   UNL     1      42.920 -10.767  10.897  1.00  0.00    -0.060 A 
HETATM   19  C   UNL     1      44.291 -10.923  11.491  1.00  0.00     0.048 C 
HETATM   20  C   UNL     1      41.791 -11.149  11.619  1.00  0.00     0.007 A 
HETATM   21  C   UNL     1      40.521 -11.032  11.051  1.00  0.00     0.009 A 
HETATM   22  C   UNL     1      40.344 -10.551   9.741  1.00  0.00    -0.035 A 
HETATM   23  C   UNL     1      38.940 -10.541   9.199  1.00  0.00     0.050 C 
ENDBRANCH  12  16
ENDBRANCH  10  11
ENDBRANCH   9  10
ENDBRANCH   1   9
BRANCH   4  24
HETATM   24  C   UNL     1      41.621 -16.770   3.782  1.00  0.00     0.130 C 
BRANCH  24  25
HETATM   25  N   UNL     1      42.560 -17.857   3.994  1.00  0.00    -0.342 N 
HETATM   26  C   UNL     1      43.647 -17.706   4.803  1.00  0.00     0.320 C 
HETATM   27  N   UNL     1      44.416 -18.808   5.030  1.00  0.00    -0.309 N 
HETATM   28  O   UNL     1      43.925 -16.653   5.371  1.00  0.00    -0.247 OA
HETATM   29  H   UNL     1      45.069 -18.635   5.786  1.00  0.00     0.170 HD
HETATM   30  H   UNL     1      42.141 -18.772   4.074  1.00  0.00     0.164 HD
BRANCH  27  31
HETATM   31  C   UNL     1      44.476 -20.076   4.424  1.00  0.00     0.039 A 
HETATM   32  C   UNL     1      44.333 -20.305   3.054  1.00  0.00     0.071 A 
HETATM   33  C   UNL     1      44.390 -21.606   2.561  1.00  0.00     0.118 A 
HETATM   34  F   UNL     1      44.239 -21.814   1.246  1.00  0.00    -0.206 F 
HETATM   35  C   UNL     1      44.607 -22.691   3.401  1.00  0.00     0.042 A 
HETATM   36  C   UNL     1      44.789 -22.470   4.762  1.00  0.00     0.005 A 
HETATM   37  C   UNL     1      44.733 -21.166   5.267  1.00  0.00     0.030 A 
ENDBRANCH  27  31
ENDBRANCH  24  25
ENDBRANCH   4  24
TORSDOF 7
ENDMDL
MODEL 7
REMARK VINA RESULT:      -9.1      4.736      8.845
REMARK  7 active torsions:
REMARK  status: ('A' for Active; 'I' for Inactive)
REMARK    1  A    between atoms: C_4  and  N_5 
REMARK    2  A    between atoms: C_6  and  S_7 
REMARK    3  A    between atoms: S_7  and  C_8 
REMARK    4  A    between atoms: C_8  and  C_9 
REMARK       I    between atoms: C_9  and  N_10 
REMARK    5  A    between atoms: C_12  and  C_13 
REMARK    6  A    between atoms: C_13  and  N_14 
REMARK       I    between atoms: N_14  and  C_15 
REMARK       I    between atoms: C_15  and  N_16 
REMARK    7  A    between atoms: N_16  and  C_17 
ROOT
HETATM    1  C   UNL     1      43.487 -13.847   5.424  1.00  0.00     0.229 C 
HETATM    2  N   UNL     1      43.068 -15.101   5.896  1.00  0.00    -0.351 N 
HETATM    3  C   UNL     1      41.688 -15.391   6.271  1.00  0.00     0.132 C 
HETATM    4  C   UNL     1      41.330 -16.882   6.297  1.00  0.00     0.021 C 
HETATM    5  C   UNL     1      42.397 -17.694   7.044  1.00  0.00     0.009 C 
HETATM    6  C   UNL     1      43.798 -17.388   6.537  1.00  0.00     0.020 C 
HETATM    7  C   UNL     1      44.087 -15.893   6.587  1.00  0.00     0.126 C 
HETATM    8  O   UNL     1      44.689 -13.548   5.422  1.00  0.00    -0.273 OA
ENDROOT
BRANCH   1   9
HETATM    9  C   UNL     1      42.509 -12.920   4.712  1.00  0.00     0.185 C 
BRANCH   9  10
HETATM   10  S   UNL     1      42.322 -13.041   2.921  1.00  0.00    -0.082 SA
BRANCH  10  11
HETATM   11  C   UNL     1      40.656 -12.678   2.626  1.00  0.00     0.173 A 
HETATM   12  N   UNL     1      39.989 -12.976   1.440  1.00  0.00    -0.299 N 
HETATM   13  C   UNL     1      38.736 -12.409   1.583  1.00  0.00     0.118 A 
HETATM   14  C   UNL     1      38.719 -11.809   2.818  1.00  0.00     0.137 A 
HETATM   15  N   UNL     1      39.915 -11.973   3.450  1.00  0.00    -0.235 NA
BRANCH  12  16
HETATM   16  C   UNL     1      40.404 -13.771   0.327  1.00  0.00     0.047 A 
HETATM   17  C   UNL     1      40.774 -13.119  -0.865  1.00  0.00     0.037 A 
HETATM   18  C   UNL     1      41.248 -13.832  -1.971  1.00  0.00    -0.060 A 
HETATM   19  C   UNL     1      41.607 -13.121  -3.244  1.00  0.00     0.048 C 
HETATM   20  C   UNL     1      41.343 -15.220  -1.889  1.00  0.00     0.007 A 
HETATM   21  C   UNL     1      40.979 -15.880  -0.713  1.00  0.00     0.009 A 
HETATM   22  C   UNL     1      40.490 -15.177   0.404  1.00  0.00    -0.035 A 
HETATM   23  C   UNL     1      40.052 -15.993   1.589  1.00  0.00     0.050 C 
ENDBRANCH  12  16
ENDBRANCH  10  11
ENDBRANCH   9  10
ENDBRANCH   1   9
BRANCH   4  24
HETATM   24  C   UNL     1      41.073 -17.377   4.862  1.00  0.00     0.130 C 
BRANCH  24  25
HETATM   25  N   UNL     1      42.129 -18.221   4.331  1.00  0.00    -0.342 N 
HETATM   26  C   UNL     1      43.040 -17.738   3.439  1.00  0.00     0.320 C 
HETATM   27  N   UNL     1      44.059 -18.566   3.074  1.00  0.00    -0.309 N 
HETATM   28  O   UNL     1      43.014 -16.590   3.001  1.00  0.00    -0.247 OA
HETATM   29  H   UNL     1      44.773 -18.051   2.572  1.00  0.00     0.170 HD
HETATM   30  H   UNL     1      42.539 -18.859   4.997  1.00  0.00     0.164 HD
BRANCH  27  31
HETATM   31  C   UNL     1      44.282 -19.944   3.248  1.00  0.00     0.039 A 
HETATM   32  C   UNL     1      44.746 -20.528   4.427  1.00  0.00     0.071 A 
HETATM   33  C   UNL     1      44.951 -21.905   4.484  1.00  0.00     0.118 A 
HETATM   34  F   UNL     1      45.408 -22.452   5.618  1.00  0.00    -0.206 F 
HETATM   35  C   UNL     1      44.683 -22.723   3.393  1.00  0.00     0.042 A 
HETATM   36  C   UNL     1      44.185 -22.156   2.226  1.00  0.00     0.005 A 
HETATM   37  C   UNL     1      43.977 -20.774   2.159  1.00  0.00     0.030 A 
ENDBRANCH  27  31
ENDBRANCH  24  25
ENDBRANCH   4  24
TORSDOF 7
ENDMDL
MODEL 8
REMARK VINA RESULT:      -9.1      2.938      4.496
REMARK  7 active torsions:
REMARK  status: ('A' for Active; 'I' for Inactive)
REMARK    1  A    between atoms: C_4  and  N_5 
REMARK    2  A    between atoms: C_6  and  S_7 
REMARK    3  A    between atoms: S_7  and  C_8 
REMARK    4  A    between atoms: C_8  and  C_9 
REMARK       I    between atoms: C_9  and  N_10 
REMARK    5  A    between atoms: C_12  and  C_13 
REMARK    6  A    between atoms: C_13  and  N_14 
REMARK       I    between atoms: N_14  and  C_15 
REMARK       I    between atoms: C_15  and  N_16 
REMARK    7  A    between atoms: N_16  and  C_17 
ROOT
HETATM    1  C   UNL     1      40.920 -11.571   4.741  1.00  0.00     0.229 C 
HETATM    2  N   UNL     1      40.316 -10.806   5.751  1.00  0.00    -0.351 N 
HETATM    3  C   UNL     1      40.147 -11.283   7.120  1.00  0.00     0.132 C 
HETATM    4  C   UNL     1      39.921 -10.179   8.160  1.00  0.00     0.021 C 
HETATM    5  C   UNL     1      38.865  -9.175   7.681  1.00  0.00     0.009 C 
HETATM    6  C   UNL     1      39.160  -8.670   6.277  1.00  0.00     0.020 C 
HETATM    7  C   UNL     1      39.325  -9.827   5.299  1.00  0.00     0.126 C 
HETATM    8  O   UNL     1      40.761 -11.274   3.550  1.00  0.00    -0.273 OA
ENDROOT
BRANCH   1   9
HETATM    9  C   UNL     1      41.948 -12.642   5.090  1.00  0.00     0.185 C 
BRANCH   9  10
HETATM   10  S   UNL     1      42.892 -13.424   3.766  1.00  0.00    -0.082 SA
BRANCH  10  11
HETATM   11  C   UNL     1      41.797 -14.559   3.053  1.00  0.00     0.173 A 
HETATM   12  N   UNL     1      41.650 -15.878   3.477  1.00  0.00    -0.299 N 
HETATM   13  C   UNL     1      40.781 -16.451   2.567  1.00  0.00     0.118 A 
HETATM   14  C   UNL     1      40.461 -15.469   1.663  1.00  0.00     0.137 A 
HETATM   15  N   UNL     1      41.103 -14.306   1.967  1.00  0.00    -0.235 NA
BRANCH  12  16
HETATM   16  C   UNL     1      42.168 -16.532   4.637  1.00  0.00     0.047 A 
HETATM   17  C   UNL     1      43.305 -17.351   4.497  1.00  0.00     0.037 A 
HETATM   18  C   UNL     1      43.900 -17.972   5.601  1.00  0.00    -0.060 A 
HETATM   19  C   UNL     1      45.092 -18.869   5.426  1.00  0.00     0.048 C 
HETATM   20  C   UNL     1      43.342 -17.780   6.864  1.00  0.00     0.007 A 
HETATM   21  C   UNL     1      42.215 -16.971   7.018  1.00  0.00     0.009 A 
HETATM   22  C   UNL     1      41.600 -16.348   5.915  1.00  0.00    -0.035 A 
HETATM   23  C   UNL     1      40.344 -15.564   6.183  1.00  0.00     0.050 C 
ENDBRANCH  12  16
ENDBRANCH  10  11
ENDBRANCH   9  10
ENDBRANCH   1   9
BRANCH   4  24
HETATM   24  C   UNL     1      41.269  -9.529   8.524  1.00  0.00     0.130 C 
BRANCH  24  25
HETATM   25  N   UNL     1      42.369 -10.471   8.633  1.00  0.00    -0.342 N 
HETATM   26  C   UNL     1      42.785 -10.936   9.845  1.00  0.00     0.320 C 
HETATM   27  N   UNL     1      43.751 -11.897   9.848  1.00  0.00    -0.309 N 
HETATM   28  O   UNL     1      42.296 -10.573  10.912  1.00  0.00    -0.247 OA
HETATM   29  H   UNL     1      43.843 -12.304  10.772  1.00  0.00     0.170 HD
HETATM   30  H   UNL     1      42.393 -11.181   7.916  1.00  0.00     0.164 HD
BRANCH  27  31
HETATM   31  C   UNL     1      44.613 -12.392   8.853  1.00  0.00     0.039 A 
HETATM   32  C   UNL     1      44.280 -13.403   7.950  1.00  0.00     0.071 A 
HETATM   33  C   UNL     1      45.219 -13.832   7.015  1.00  0.00     0.118 A 
HETATM   34  F   UNL     1      44.892 -14.812   6.162  1.00  0.00    -0.206 F 
HETATM   35  C   UNL     1      46.484 -13.261   6.943  1.00  0.00     0.042 A 
HETATM   36  C   UNL     1      46.812 -12.227   7.813  1.00  0.00     0.005 A 
HETATM   37  C   UNL     1      45.876 -11.790   8.756  1.00  0.00     0.030 A 
ENDBRANCH  27  31
ENDBRANCH  24  25
ENDBRANCH   4  24
TORSDOF 7
ENDMDL
MODEL 9
REMARK VINA RESULT:      -8.9      5.001      8.575
REMARK  7 active torsions:
REMARK  status: ('A' for Active; 'I' for Inactive)
REMARK    1  A    between atoms: C_4  and  N_5 
REMARK    2  A    between atoms: C_6  and  S_7 
REMARK    3  A    between atoms: S_7  and  C_8 
REMARK    4  A    between atoms: C_8  and  C_9 
REMARK       I    between atoms: C_9  and  N_10 
REMARK    5  A    between atoms: C_12  and  C_13 
REMARK    6  A    between atoms: C_13  and  N_14 
REMARK       I    between atoms: N_14  and  C_15 
REMARK       I    between atoms: C_15  and  N_16 
REMARK    7  A    between atoms: N_16  and  C_17 
ROOT
HETATM    1  C   UNL     1      42.538 -12.969   4.210  1.00  0.00     0.229 C 
HETATM    2  N   UNL     1      41.295 -12.325   4.101  1.00  0.00    -0.351 N 
HETATM    3  C   UNL     1      40.843 -11.667   2.879  1.00  0.00     0.132 C 
HETATM    4  C   UNL     1      39.327 -11.452   2.791  1.00  0.00     0.021 C 
HETATM    5  C   UNL     1      38.775 -10.863   4.095  1.00  0.00     0.009 C 
HETATM    6  C   UNL     1      39.231 -11.655   5.312  1.00  0.00     0.020 C 
HETATM    7  C   UNL     1      40.749 -11.783   5.346  1.00  0.00     0.126 C 
HETATM    8  O   UNL     1      43.014 -13.228   5.323  1.00  0.00    -0.273 OA
ENDROOT
BRANCH   1   9
HETATM    9  C   UNL     1      43.220 -13.551   2.977  1.00  0.00     0.185 C 
BRANCH   9  10
HETATM   10  S   UNL     1      43.587 -15.316   2.920  1.00  0.00    -0.082 SA
BRANCH  10  11
HETATM   11  C   UNL     1      42.063 -16.074   2.603  1.00  0.00     0.173 A 
HETATM   12  N   UNL     1      41.848 -17.449   2.652  1.00  0.00    -0.299 N 
HETATM   13  C   UNL     1      40.547 -17.622   2.214  1.00  0.00     0.118 A 
HETATM   14  C   UNL     1      40.063 -16.370   1.928  1.00  0.00     0.137 A 
HETATM   15  N   UNL     1      41.013 -15.421   2.162  1.00  0.00    -0.235 NA
BRANCH  12  16
HETATM   16  C   UNL     1      42.695 -18.495   3.132  1.00  0.00     0.047 A 
HETATM   17  C   UNL     1      43.154 -19.462   2.217  1.00  0.00     0.037 A 
HETATM   18  C   UNL     1      44.035 -20.477   2.607  1.00  0.00    -0.060 A 
HETATM   19  C   UNL     1      44.487 -21.519   1.623  1.00  0.00     0.048 C 
HETATM   20  C   UNL     1      44.455 -20.532   3.934  1.00  0.00     0.007 A 
HETATM   21  C   UNL     1      44.007 -19.580   4.853  1.00  0.00     0.009 A 
HETATM   22  C   UNL     1      43.113 -18.560   4.477  1.00  0.00    -0.035 A 
HETATM   23  C   UNL     1      42.633 -17.636   5.563  1.00  0.00     0.050 C 
ENDBRANCH  12  16
ENDBRANCH  10  11
ENDBRANCH   9  10
ENDBRANCH   1   9
BRANCH   4  24
HETATM   24  C   UNL     1      38.642 -12.765   2.370  1.00  0.00     0.130 C 
BRANCH  24  25
HETATM   25  N   UNL     1      38.833 -13.109   0.972  1.00  0.00    -0.342 N 
HETATM   26  C   UNL     1      37.972 -13.943   0.323  1.00  0.00     0.320 C 
HETATM   27  N   UNL     1      38.164 -14.127  -1.013  1.00  0.00    -0.309 N 
HETATM   28  O   UNL     1      37.013 -14.482   0.871  1.00  0.00    -0.247 OA
HETATM   29  H   UNL     1      37.367 -14.598  -1.425  1.00  0.00     0.170 HD
HETATM   30  H   UNL     1      39.152 -12.350   0.387  1.00  0.00     0.164 HD
BRANCH  27  31
HETATM   31  C   UNL     1      39.226 -13.809  -1.880  1.00  0.00     0.039 A 
HETATM   32  C   UNL     1      39.254 -12.695  -2.720  1.00  0.00     0.071 A 
HETATM   33  C   UNL     1      40.349 -12.485  -3.555  1.00  0.00     0.118 A 
HETATM   34  F   UNL     1      40.358 -11.419  -4.366  1.00  0.00    -0.206 F 
HETATM   35  C   UNL     1      41.434 -13.354  -3.559  1.00  0.00     0.042 A 
HETATM   36  C   UNL     1      41.432 -14.446  -2.698  1.00  0.00     0.005 A 
HETATM   37  C   UNL     1      40.337 -14.665  -1.857  1.00  0.00     0.030 A 
ENDBRANCH  27  31
ENDBRANCH  24  25
ENDBRANCH   4  24
TORSDOF 7
ENDMDL
MODEL 10
REMARK VINA RESULT:      -8.9      2.058      3.849
REMARK  7 active torsions:
REMARK  status: ('A' for Active; 'I' for Inactive)
REMARK    1  A    between atoms: C_4  and  N_5 
REMARK    2  A    between atoms: C_6  and  S_7 
REMARK    3  A    between atoms: S_7  and  C_8 
REMARK    4  A    between atoms: C_8  and  C_9 
REMARK       I    between atoms: C_9  and  N_10 
REMARK    5  A    between atoms: C_12  and  C_13 
REMARK    6  A    between atoms: C_13  and  N_14 
REMARK       I    between atoms: N_14  and  C_15 
REMARK       I    between atoms: C_15  and  N_16 
REMARK    7  A    between atoms: N_16  and  C_17 
ROOT
HETATM    1  C   UNL     1      40.830 -14.994   2.414  1.00  0.00     0.229 C 
HETATM    2  N   UNL     1      40.366 -14.068   3.362  1.00  0.00    -0.351 N 
HETATM    3  C   UNL     1      40.360 -14.332   4.797  1.00  0.00     0.132 C 
HETATM    4  C   UNL     1      40.279 -13.080   5.679  1.00  0.00     0.021 C 
HETATM    5  C   UNL     1      39.187 -12.123   5.183  1.00  0.00     0.009 C 
HETATM    6  C   UNL     1      39.314 -11.841   3.694  1.00  0.00     0.020 C 
HETATM    7  C   UNL     1      39.342 -13.135   2.889  1.00  0.00     0.126 C 
HETATM    8  O   UNL     1      40.530 -14.871   1.219  1.00  0.00    -0.273 OA
ENDROOT
BRANCH   1   9
HETATM    9  C   UNL     1      41.877 -16.034   2.795  1.00  0.00     0.185 C 
BRANCH   9  10
HETATM   10  S   UNL     1      41.343 -17.618   3.475  1.00  0.00    -0.082 SA
BRANCH  10  11
HETATM   11  C   UNL     1      42.714 -18.659   3.298  1.00  0.00     0.173 A 
HETATM   12  N   UNL     1      43.732 -18.780   4.241  1.00  0.00    -0.299 N 
HETATM   13  C   UNL     1      44.670 -19.606   3.650  1.00  0.00     0.118 A 
HETATM   14  C   UNL     1      44.179 -19.928   2.409  1.00  0.00     0.137 A 
HETATM   15  N   UNL     1      42.973 -19.328   2.198  1.00  0.00    -0.235 NA
BRANCH  12  16
HETATM   16  C   UNL     1      43.812 -18.276   5.576  1.00  0.00     0.047 A 
HETATM   17  C   UNL     1      43.946 -16.887   5.765  1.00  0.00     0.037 A 
HETATM   18  C   UNL     1      43.968 -16.322   7.045  1.00  0.00    -0.060 A 
HETATM   19  C   UNL     1      44.145 -14.841   7.225  1.00  0.00     0.048 C 
HETATM   20  C   UNL     1      43.866 -17.160   8.153  1.00  0.00     0.007 A 
HETATM   21  C   UNL     1      43.733 -18.539   7.981  1.00  0.00     0.009 A 
HETATM   22  C   UNL     1      43.720 -19.122   6.700  1.00  0.00    -0.035 A 
HETATM   23  C   UNL     1      43.653 -20.624   6.632  1.00  0.00     0.050 C 
ENDBRANCH  12  16
ENDBRANCH  10  11
ENDBRANCH   9  10
ENDBRANCH   1   9
BRANCH   4  24
HETATM   24  C   UNL     1      41.671 -12.427   5.777  1.00  0.00     0.130 C 
BRANCH  24  25
HETATM   25  N   UNL     1      41.962 -11.852   7.078  1.00  0.00    -0.342 N 
HETATM   26  C   UNL     1      41.814 -10.517   7.311  1.00  0.00     0.320 C 
HETATM   27  N   UNL     1      42.006 -10.078   8.587  1.00  0.00    -0.309 N 
HETATM   28  O   UNL     1      41.467  -9.715   6.447  1.00  0.00    -0.247 OA
HETATM   29  H   UNL     1      41.685  -9.122   8.687  1.00  0.00     0.170 HD
HETATM   30  H   UNL     1      41.679 -12.416   7.866  1.00  0.00     0.164 HD
BRANCH  27  31
HETATM   31  C   UNL     1      42.557 -10.680   9.733  1.00  0.00     0.039 A 
HETATM   32  C   UNL     1      43.851 -11.197   9.810  1.00  0.00     0.071 A 
HETATM   33  C   UNL     1      44.290 -11.791  10.991  1.00  0.00     0.118 A 
HETATM   34  F   UNL     1      45.530 -12.295  11.048  1.00  0.00    -0.206 F 
HETATM   35  C   UNL     1      43.473 -11.864  12.113  1.00  0.00     0.042 A 
HETATM   36  C   UNL     1      42.196 -11.317  12.059  1.00  0.00     0.005 A 
HETATM   37  C   UNL     1      41.746 -10.720  10.876  1.00  0.00     0.030 A 
ENDBRANCH  27  31
ENDBRANCH  24  25
ENDBRANCH   4  24
TORSDOF 7
ENDMDL
