MODEL 1
REMARK VINA RESULT:      -8.9      0.000      0.000
REMARK  9 active torsions:
REMARK  status: ('A' for Active; 'I' for Inactive)
REMARK    1  A    between atoms: N_4  and  C_5 
REMARK    2  A    between atoms: C_13  and  C_14 
REMARK    3  A    between atoms: C_15  and  C_16 
REMARK       I    between atoms: C_16  and  N_17 
REMARK    4  A    between atoms: N_17  and  C_18 
REMARK    5  A    between atoms: C_18  and  C_19 
REMARK    6  A    between atoms: C_19  and  N_20 
REMARK    7  A    between atoms: C_21  and  O_22 
REMARK    8  A    between atoms: C_21  and  C_23 
REMARK    9  A    between atoms: C_28  and  O_29 
ROOT
HETATM    1  C   UNL     1      39.415 -12.710   6.013  1.00  0.00     0.241 C 
HETATM    2  N   UNL     1      40.083 -12.371   7.159  1.00  0.00    -0.356 N 
HETATM    3  O   UNL     1      38.601 -11.985   5.453  1.00  0.00    -0.269 OA
HETATM    4  H   UNL     1      40.862 -12.921   7.498  1.00  0.00     0.162 HD
ENDROOT
BRANCH   1   5
HETATM    5  C   UNL     1      39.763 -14.059   5.501  1.00  0.00     0.075 C 
HETATM    6  C   UNL     1      40.811 -14.181   4.671  1.00  0.00     0.021 C 
BRANCH   6   7
HETATM    7  C   UNL     1      41.269 -15.372   4.031  1.00  0.00     0.014 C 
HETATM    8  C   UNL     1      40.779 -16.067   2.904  1.00  0.00     0.063 C 
HETATM    9  C   UNL     1      39.605 -15.769   2.045  1.00  0.00     0.073 C 
HETATM   10  N   UNL     1      41.535 -17.129   2.620  1.00  0.00    -0.171 NA
HETATM   11  N   UNL     1      42.440 -17.219   3.633  1.00  0.00    -0.237 N 
HETATM   12  C   UNL     1      42.382 -16.088   4.445  1.00  0.00     0.045 C 
HETATM   13  C   UNL     1      43.389 -15.725   5.481  1.00  0.00     0.071 C 
BRANCH  11  14
HETATM   14  C   UNL     1      43.266 -18.384   3.718  1.00  0.00     0.058 A 
HETATM   15  C   UNL     1      43.694 -19.001   2.530  1.00  0.00     0.031 A 
HETATM   16  C   UNL     1      44.502 -20.142   2.571  1.00  0.00     0.002 A 
HETATM   17  C   UNL     1      44.876 -20.689   3.796  1.00  0.00     0.000 A 
HETATM   18  C   UNL     1      44.434 -20.103   4.978  1.00  0.00     0.002 A 
HETATM   19  C   UNL     1      43.627 -18.959   4.943  1.00  0.00     0.031 A 
ENDBRANCH  11  14
ENDBRANCH   6   7
ENDBRANCH   1   5
BRANCH   2  20
HETATM   20  C   UNL     1      39.940 -11.053   7.748  1.00  0.00     0.144 C 
BRANCH  20  21
HETATM   21  C   UNL     1      39.396 -11.129   9.176  1.00  0.00     0.171 C 
BRANCH  21  22
HETATM   22  N   UNL     1      40.384 -10.572  10.096  1.00  0.00    -0.263 NA
HETATM   23  C   UNL     1      40.519 -11.048  11.282  1.00  0.00     0.189 C 
BRANCH  23  24
HETATM   24  O   UNL     1      39.819 -12.113  11.733  1.00  0.00    -0.343 OA
HETATM   25  H   UNL     1      40.330 -12.665  12.336  1.00  0.00     0.219 HD
ENDBRANCH  23  24
BRANCH  23  26
HETATM   26  C   UNL     1      41.441 -10.514  12.340  1.00  0.00     0.141 A 
HETATM   27  N   UNL     1      40.939 -10.519  13.612  1.00  0.00    -0.254 NA
HETATM   28  C   UNL     1      41.717 -10.024  14.595  1.00  0.00     0.117 A 
HETATM   29  C   UNL     1      42.987  -9.517  14.386  1.00  0.00     0.022 A 
HETATM   30  C   UNL     1      43.494  -9.519  13.089  1.00  0.00     0.040 A 
HETATM   31  C   UNL     1      42.717 -10.023  12.045  1.00  0.00     0.098 A 
BRANCH  31  32
HETATM   32  O   UNL     1      43.233 -10.012  10.780  1.00  0.00    -0.358 OA
HETATM   33  H   UNL     1      44.198  -9.915  10.818  1.00  0.00     0.218 HD
ENDBRANCH  31  32
ENDBRANCH  23  26
ENDBRANCH  21  22
ENDBRANCH  20  21
ENDBRANCH   2  20
TORSDOF 9
ENDMDL
MODEL 2
REMARK VINA RESULT:      -8.7      1.271      2.053
REMARK  9 active torsions:
REMARK  status: ('A' for Active; 'I' for Inactive)
REMARK    1  A    between atoms: N_4  and  C_5 
REMARK    2  A    between atoms: C_13  and  C_14 
REMARK    3  A    between atoms: C_15  and  C_16 
REMARK       I    between atoms: C_16  and  N_17 
REMARK    4  A    between atoms: N_17  and  C_18 
REMARK    5  A    between atoms: C_18  and  C_19 
REMARK    6  A    between atoms: C_19  and  N_20 
REMARK    7  A    between atoms: C_21  and  O_22 
REMARK    8  A    between atoms: C_21  and  C_23 
REMARK    9  A    between atoms: C_28  and  O_29 
ROOT
HETATM    1  C   UNL     1      40.387 -12.677   5.932  1.00  0.00     0.241 C 
HETATM    2  N   UNL     1      40.594 -12.026   7.119  1.00  0.00    -0.356 N 
HETATM    3  O   UNL     1      39.388 -12.536   5.237  1.00  0.00    -0.269 OA
HETATM    4  H   UNL     1      41.495 -12.042   7.579  1.00  0.00     0.162 HD
ENDROOT
BRANCH   1   5
HETATM    5  C   UNL     1      41.495 -13.590   5.556  1.00  0.00     0.075 C 
HETATM    6  C   UNL     1      41.501 -14.834   6.061  1.00  0.00     0.021 C 
BRANCH   6   7
HETATM    7  C   UNL     1      42.498 -15.838   5.868  1.00  0.00     0.014 C 
HETATM    8  C   UNL     1      43.848 -15.894   6.278  1.00  0.00     0.063 C 
HETATM    9  C   UNL     1      44.652 -14.896   7.028  1.00  0.00     0.073 C 
HETATM   10  N   UNL     1      44.421 -17.042   5.913  1.00  0.00    -0.171 NA
HETATM   11  N   UNL     1      43.498 -17.687   5.146  1.00  0.00    -0.237 N 
HETATM   12  C   UNL     1      42.269 -17.033   5.203  1.00  0.00     0.045 C 
HETATM   13  C   UNL     1      40.980 -17.588   4.705  1.00  0.00     0.071 C 
BRANCH  11  14
HETATM   14  C   UNL     1      43.894 -18.863   4.435  1.00  0.00     0.058 A 
HETATM   15  C   UNL     1      43.619 -18.951   3.060  1.00  0.00     0.031 A 
HETATM   16  C   UNL     1      43.990 -20.084   2.329  1.00  0.00     0.002 A 
HETATM   17  C   UNL     1      44.624 -21.148   2.966  1.00  0.00     0.000 A 
HETATM   18  C   UNL     1      44.876 -21.084   4.334  1.00  0.00     0.002 A 
HETATM   19  C   UNL     1      44.509 -19.951   5.068  1.00  0.00     0.031 A 
ENDBRANCH  11  14
ENDBRANCH   6   7
ENDBRANCH   1   5
BRANCH   2  20
HETATM   20  C   UNL     1      39.661 -11.023   7.596  1.00  0.00     0.144 C 
BRANCH  20  21
HETATM   21  C   UNL     1      39.277 -11.261   9.058  1.00  0.00     0.171 C 
BRANCH  21  22
HETATM   22  N   UNL     1      40.318 -10.711   9.923  1.00  0.00    -0.263 NA
HETATM   23  C   UNL     1      40.476 -11.147  11.121  1.00  0.00     0.189 C 
BRANCH  23  24
HETATM   24  O   UNL     1      39.751 -12.166  11.636  1.00  0.00    -0.343 OA
HETATM   25  H   UNL     1      39.010 -11.861  12.172  1.00  0.00     0.219 HD
ENDBRANCH  23  24
BRANCH  23  26
HETATM   26  C   UNL     1      41.454 -10.613  12.126  1.00  0.00     0.141 A 
HETATM   27  N   UNL     1      41.026 -10.622  13.425  1.00  0.00    -0.254 NA
HETATM   28  C   UNL     1      41.857 -10.126  14.363  1.00  0.00     0.117 A 
HETATM   29  C   UNL     1      43.111  -9.615  14.083  1.00  0.00     0.022 A 
HETATM   30  C   UNL     1      43.543  -9.612  12.760  1.00  0.00     0.040 A 
HETATM   31  C   UNL     1      42.710 -10.117  11.761  1.00  0.00     0.098 A 
BRANCH  31  32
HETATM   32  O   UNL     1      43.154 -10.101  10.469  1.00  0.00    -0.358 OA
HETATM   33  H   UNL     1      42.715 -10.801   9.960  1.00  0.00     0.218 HD
ENDBRANCH  31  32
ENDBRANCH  23  26
ENDBRANCH  21  22
ENDBRANCH  20  21
ENDBRANCH   2  20
TORSDOF 9
ENDMDL
MODEL 3
REMARK VINA RESULT:      -8.7      1.633      2.023
REMARK  9 active torsions:
REMARK  status: ('A' for Active; 'I' for Inactive)
REMARK    1  A    between atoms: N_4  and  C_5 
REMARK    2  A    between atoms: C_13  and  C_14 
REMARK    3  A    between atoms: C_15  and  C_16 
REMARK       I    between atoms: C_16  and  N_17 
REMARK    4  A    between atoms: N_17  and  C_18 
REMARK    5  A    between atoms: C_18  and  C_19 
REMARK    6  A    between atoms: C_19  and  N_20 
REMARK    7  A    between atoms: C_21  and  O_22 
REMARK    8  A    between atoms: C_21  and  C_23 
REMARK    9  A    between atoms: C_28  and  O_29 
ROOT
HETATM    1  C   UNL     1      39.641 -12.648   6.252  1.00  0.00     0.241 C 
HETATM    2  N   UNL     1      40.266 -11.602   5.627  1.00  0.00    -0.356 N 
HETATM    3  O   UNL     1      38.998 -12.541   7.289  1.00  0.00    -0.269 OA
HETATM    4  H   UNL     1      40.646 -11.696   4.693  1.00  0.00     0.162 HD
ENDROOT
BRANCH   1   5
HETATM    5  C   UNL     1      39.820 -13.946   5.555  1.00  0.00     0.075 C 
HETATM    6  C   UNL     1      40.907 -14.119   4.787  1.00  0.00     0.021 C 
BRANCH   6   7
HETATM    7  C   UNL     1      41.231 -15.263   3.997  1.00  0.00     0.014 C 
HETATM    8  C   UNL     1      40.611 -15.803   2.849  1.00  0.00     0.063 C 
HETATM    9  C   UNL     1      39.400 -15.343   2.123  1.00  0.00     0.073 C 
HETATM   10  N   UNL     1      41.265 -16.876   2.401  1.00  0.00    -0.171 NA
HETATM   11  N   UNL     1      42.235 -17.128   3.323  1.00  0.00    -0.237 N 
HETATM   12  C   UNL     1      42.318 -16.087   4.245  1.00  0.00     0.045 C 
HETATM   13  C   UNL     1      43.422 -15.900   5.228  1.00  0.00     0.071 C 
BRANCH  11  14
HETATM   14  C   UNL     1      42.979 -18.346   3.224  1.00  0.00     0.058 A 
HETATM   15  C   UNL     1      42.903 -19.094   2.037  1.00  0.00     0.031 A 
HETATM   16  C   UNL     1      43.615 -20.289   1.900  1.00  0.00     0.002 A 
HETATM   17  C   UNL     1      44.396 -20.760   2.953  1.00  0.00     0.000 A 
HETATM   18  C   UNL     1      44.457 -20.042   4.144  1.00  0.00     0.002 A 
HETATM   19  C   UNL     1      43.748 -18.843   4.284  1.00  0.00     0.031 A 
ENDBRANCH  11  14
ENDBRANCH   6   7
ENDBRANCH   1   5
BRANCH   2  20
HETATM   20  C   UNL     1      40.120 -10.243   6.113  1.00  0.00     0.144 C 
BRANCH  20  21
HETATM   21  C   UNL     1      41.478  -9.565   6.306  1.00  0.00     0.171 C 
BRANCH  21  22
HETATM   22  N   UNL     1      41.805  -9.542   7.730  1.00  0.00    -0.263 NA
HETATM   23  C   UNL     1      42.332 -10.566   8.299  1.00  0.00     0.189 C 
BRANCH  23  24
HETATM   24  O   UNL     1      42.674 -11.688   7.627  1.00  0.00    -0.343 OA
HETATM   25  H   UNL     1      43.359 -12.196   8.076  1.00  0.00     0.219 HD
ENDBRANCH  23  24
BRANCH  23  26
HETATM   26  C   UNL     1      42.641 -10.692   9.763  1.00  0.00     0.141 A 
HETATM   27  N   UNL     1      41.554 -10.805  10.584  1.00  0.00    -0.254 NA
HETATM   28  C   UNL     1      41.776 -10.892  11.911  1.00  0.00     0.117 A 
HETATM   29  C   UNL     1      43.036 -10.875  12.479  1.00  0.00     0.022 A 
HETATM   30  C   UNL     1      44.140 -10.764  11.638  1.00  0.00     0.040 A 
HETATM   31  C   UNL     1      43.949 -10.671  10.258  1.00  0.00     0.098 A 
BRANCH  31  32
HETATM   32  O   UNL     1      45.046 -10.559   9.452  1.00  0.00    -0.358 OA
HETATM   33  H   UNL     1      45.844 -10.811   9.943  1.00  0.00     0.218 HD
ENDBRANCH  31  32
ENDBRANCH  23  26
ENDBRANCH  21  22
ENDBRANCH  20  21
ENDBRANCH   2  20
TORSDOF 9
ENDMDL
MODEL 4
REMARK VINA RESULT:      -8.4      5.965      9.862
REMARK  9 active torsions:
REMARK  status: ('A' for Active; 'I' for Inactive)
REMARK    1  A    between atoms: N_4  and  C_5 
REMARK    2  A    between atoms: C_13  and  C_14 
REMARK    3  A    between atoms: C_15  and  C_16 
REMARK       I    between atoms: C_16  and  N_17 
REMARK    4  A    between atoms: N_17  and  C_18 
REMARK    5  A    between atoms: C_18  and  C_19 
REMARK    6  A    between atoms: C_19  and  N_20 
REMARK    7  A    between atoms: C_21  and  O_22 
REMARK    8  A    between atoms: C_21  and  C_23 
REMARK    9  A    between atoms: C_28  and  O_29 
ROOT
HETATM    1  C   UNL     1      41.076 -12.301   1.973  1.00  0.00     0.241 C 
HETATM    2  N   UNL     1      42.156 -11.939   1.213  1.00  0.00    -0.356 N 
HETATM    3  O   UNL     1      40.036 -11.656   2.038  1.00  0.00    -0.269 OA
HETATM    4  H   UNL     1      42.927 -12.575   1.056  1.00  0.00     0.162 HD
ENDROOT
BRANCH   1   5
HETATM    5  C   UNL     1      41.280 -13.561   2.730  1.00  0.00     0.075 C 
HETATM    6  C   UNL     1      42.437 -14.224   2.573  1.00  0.00     0.021 C 
BRANCH   6   7
HETATM    7  C   UNL     1      42.802 -15.472   3.163  1.00  0.00     0.014 C 
HETATM    8  C   UNL     1      43.221 -15.791   4.473  1.00  0.00     0.063 C 
HETATM    9  C   UNL     1      43.432 -14.901   5.643  1.00  0.00     0.073 C 
HETATM   10  N   UNL     1      43.432 -17.101   4.611  1.00  0.00    -0.171 NA
HETATM   11  N   UNL     1      43.287 -17.631   3.365  1.00  0.00    -0.237 N 
HETATM   12  C   UNL     1      42.780 -16.680   2.483  1.00  0.00     0.045 C 
HETATM   13  C   UNL     1      42.256 -16.970   1.119  1.00  0.00     0.071 C 
BRANCH  11  14
HETATM   14  C   UNL     1      43.653 -18.998   3.151  1.00  0.00     0.058 A 
HETATM   15  C   UNL     1      44.435 -19.651   4.120  1.00  0.00     0.031 A 
HETATM   16  C   UNL     1      44.814 -20.986   3.948  1.00  0.00     0.002 A 
HETATM   17  C   UNL     1      44.432 -21.677   2.801  1.00  0.00     0.000 A 
HETATM   18  C   UNL     1      43.682 -21.032   1.822  1.00  0.00     0.002 A 
HETATM   19  C   UNL     1      43.298 -19.696   1.991  1.00  0.00     0.031 A 
ENDBRANCH  11  14
ENDBRANCH   6   7
ENDBRANCH   1   5
BRANCH   2  20
HETATM   20  C   UNL     1      42.101 -10.786   0.333  1.00  0.00     0.144 C 
BRANCH  20  21
HETATM   21  C   UNL     1      42.497 -11.152  -1.099  1.00  0.00     0.171 C 
BRANCH  21  22
HETATM   22  N   UNL     1      41.379 -11.833  -1.747  1.00  0.00    -0.263 NA
HETATM   23  C   UNL     1      41.314 -13.116  -1.766  1.00  0.00     0.189 C 
BRANCH  23  24
HETATM   24  O   UNL     1      42.218 -13.909  -1.149  1.00  0.00    -0.343 OA
HETATM   25  H   UNL     1      41.845 -14.754  -0.873  1.00  0.00     0.219 HD
ENDBRANCH  23  24
BRANCH  23  26
HETATM   26  C   UNL     1      40.261 -13.929  -2.463  1.00  0.00     0.141 A 
HETATM   27  N   UNL     1      38.969 -13.589  -2.171  1.00  0.00    -0.254 NA
HETATM   28  C   UNL     1      37.986 -14.307  -2.749  1.00  0.00     0.117 A 
HETATM   29  C   UNL     1      38.214 -15.360  -3.616  1.00  0.00     0.022 A 
HETATM   30  C   UNL     1      39.531 -15.699  -3.912  1.00  0.00     0.040 A 
HETATM   31  C   UNL     1      40.576 -14.978  -3.332  1.00  0.00     0.098 A 
BRANCH  31  32
HETATM   32  O   UNL     1      41.862 -15.331  -3.635  1.00  0.00    -0.358 OA
HETATM   33  H   UNL     1      42.457 -15.050  -2.922  1.00  0.00     0.218 HD
ENDBRANCH  31  32
ENDBRANCH  23  26
ENDBRANCH  21  22
ENDBRANCH  20  21
ENDBRANCH   2  20
TORSDOF 9
ENDMDL
MODEL 5
REMARK VINA RESULT:      -8.4      4.605      7.551
REMARK  9 active torsions:
REMARK  status: ('A' for Active; 'I' for Inactive)
REMARK    1  A    between atoms: N_4  and  C_5 
REMARK    2  A    between atoms: C_13  and  C_14 
REMARK    3  A    between atoms: C_15  and  C_16 
REMARK       I    between atoms: C_16  and  N_17 
REMARK    4  A    between atoms: N_17  and  C_18 
REMARK    5  A    between atoms: C_18  and  C_19 
REMARK    6  A    between atoms: C_19  and  N_20 
REMARK    7  A    between atoms: C_21  and  O_22 
REMARK    8  A    between atoms: C_21  and  C_23 
REMARK    9  A    between atoms: C_28  and  O_29 
ROOT
HETATM    1  C   UNL     1      39.874 -12.906   5.466  1.00  0.00     0.241 C 
HETATM    2  N   UNL     1      40.511 -12.305   4.414  1.00  0.00    -0.356 N 
HETATM    3  O   UNL     1      38.755 -12.596   5.857  1.00  0.00    -0.269 OA
HETATM    4  H   UNL     1      41.358 -12.694   4.019  1.00  0.00     0.162 HD
ENDROOT
BRANCH   1   5
HETATM    5  C   UNL     1      40.674 -13.978   6.109  1.00  0.00     0.075 C 
HETATM    6  C   UNL     1      41.707 -14.503   5.431  1.00  0.00     0.021 C 
BRANCH   6   7
HETATM    7  C   UNL     1      42.557 -15.572   5.847  1.00  0.00     0.014 C 
HETATM    8  C   UNL     1      43.707 -15.576   6.667  1.00  0.00     0.063 C 
HETATM    9  C   UNL     1      44.399 -14.444   7.333  1.00  0.00     0.073 C 
HETATM   10  N   UNL     1      44.184 -16.812   6.830  1.00  0.00    -0.171 NA
HETATM   11  N   UNL     1      43.436 -17.606   6.014  1.00  0.00    -0.237 N 
HETATM   12  C   UNL     1      42.355 -16.898   5.495  1.00  0.00     0.045 C 
HETATM   13  C   UNL     1      41.196 -17.505   4.782  1.00  0.00     0.071 C 
BRANCH  11  14
HETATM   14  C   UNL     1      43.841 -18.964   5.816  1.00  0.00     0.058 A 
HETATM   15  C   UNL     1      43.618 -19.897   6.843  1.00  0.00     0.031 A 
HETATM   16  C   UNL     1      43.999 -21.233   6.687  1.00  0.00     0.002 A 
HETATM   17  C   UNL     1      44.623 -21.648   5.513  1.00  0.00     0.000 A 
HETATM   18  C   UNL     1      44.875 -20.727   4.501  1.00  0.00     0.002 A 
HETATM   19  C   UNL     1      44.492 -19.389   4.651  1.00  0.00     0.031 A 
ENDBRANCH  11  14
ENDBRANCH   6   7
ENDBRANCH   1   5
BRANCH   2  20
HETATM   20  C   UNL     1      39.843 -11.301   3.606  1.00  0.00     0.144 C 
BRANCH  20  21
HETATM   21  C   UNL     1      39.895 -11.650   2.117  1.00  0.00     0.171 C 
BRANCH  21  22
HETATM   22  N   UNL     1      40.302 -13.046   1.966  1.00  0.00    -0.263 NA
HETATM   23  C   UNL     1      41.539 -13.355   1.810  1.00  0.00     0.189 C 
BRANCH  23  24
HETATM   24  O   UNL     1      42.536 -12.444   1.839  1.00  0.00    -0.343 OA
HETATM   25  H   UNL     1      42.910 -12.328   2.720  1.00  0.00     0.219 HD
ENDBRANCH  23  24
BRANCH  23  26
HETATM   26  C   UNL     1      42.071 -14.738   1.570  1.00  0.00     0.141 A 
HETATM   27  N   UNL     1      41.318 -15.521   0.739  1.00  0.00    -0.254 NA
HETATM   28  C   UNL     1      41.738 -16.781   0.512  1.00  0.00     0.117 A 
HETATM   29  C   UNL     1      42.882 -17.320   1.071  1.00  0.00     0.022 A 
HETATM   30  C   UNL     1      43.648 -16.517   1.912  1.00  0.00     0.040 A 
HETATM   31  C   UNL     1      43.244 -15.206   2.171  1.00  0.00     0.098 A 
BRANCH  31  32
HETATM   32  O   UNL     1      44.009 -14.438   3.003  1.00  0.00    -0.358 OA
HETATM   33  H   UNL     1      44.699 -13.985   2.492  1.00  0.00     0.218 HD
ENDBRANCH  31  32
ENDBRANCH  23  26
ENDBRANCH  21  22
ENDBRANCH  20  21
ENDBRANCH   2  20
TORSDOF 9
ENDMDL
MODEL 6
REMARK VINA RESULT:      -8.4      2.717      4.570
REMARK  9 active torsions:
REMARK  status: ('A' for Active; 'I' for Inactive)
REMARK    1  A    between atoms: N_4  and  C_5 
REMARK    2  A    between atoms: C_13  and  C_14 
REMARK    3  A    between atoms: C_15  and  C_16 
REMARK       I    between atoms: C_16  and  N_17 
REMARK    4  A    between atoms: N_17  and  C_18 
REMARK    5  A    between atoms: C_18  and  C_19 
REMARK    6  A    between atoms: C_19  and  N_20 
REMARK    7  A    between atoms: C_21  and  O_22 
REMARK    8  A    between atoms: C_21  and  C_23 
REMARK    9  A    between atoms: C_28  and  O_29 
ROOT
HETATM    1  C   UNL     1      46.120 -12.547   7.920  1.00  0.00     0.241 C 
HETATM    2  N   UNL     1      45.200 -12.114   8.838  1.00  0.00    -0.356 N 
HETATM    3  O   UNL     1      47.263 -12.113   7.838  1.00  0.00    -0.269 OA
HETATM    4  H   UNL     1      44.328 -12.606   8.982  1.00  0.00     0.162 HD
ENDROOT
BRANCH   1   5
HETATM    5  C   UNL     1      45.601 -13.599   7.012  1.00  0.00     0.075 C 
HETATM    6  C   UNL     1      44.314 -13.967   7.125  1.00  0.00     0.021 C 
BRANCH   6   7
HETATM    7  C   UNL     1      43.644 -14.992   6.390  1.00  0.00     0.014 C 
HETATM    8  C   UNL     1      43.226 -16.285   6.772  1.00  0.00     0.063 C 
HETATM    9  C   UNL     1      43.383 -16.985   8.072  1.00  0.00     0.073 C 
HETATM   10  N   UNL     1      42.598 -16.909   5.774  1.00  0.00    -0.171 NA
HETATM   11  N   UNL     1      42.718 -16.089   4.693  1.00  0.00    -0.237 N 
HETATM   12  C   UNL     1      43.244 -14.855   5.069  1.00  0.00     0.045 C 
HETATM   13  C   UNL     1      43.272 -13.638   4.210  1.00  0.00     0.071 C 
BRANCH  11  14
HETATM   14  C   UNL     1      42.318 -16.578   3.410  1.00  0.00     0.058 A 
HETATM   15  C   UNL     1      43.309 -16.979   2.497  1.00  0.00     0.031 A 
HETATM   16  C   UNL     1      42.959 -17.463   1.232  1.00  0.00     0.002 A 
HETATM   17  C   UNL     1      41.619 -17.536   0.860  1.00  0.00     0.000 A 
HETATM   18  C   UNL     1      40.631 -17.115   1.745  1.00  0.00     0.002 A 
HETATM   19  C   UNL     1      40.977 -16.632   3.013  1.00  0.00     0.031 A 
ENDBRANCH  11  14
ENDBRANCH   6   7
ENDBRANCH   1   5
BRANCH   2  20
HETATM   20  C   UNL     1      45.561 -11.157   9.868  1.00  0.00     0.144 C 
BRANCH  20  21
HETATM   21  C   UNL     1      44.584 -11.201  11.044  1.00  0.00     0.171 C 
BRANCH  21  22
HETATM   22  N   UNL     1      43.317 -10.598  10.637  1.00  0.00    -0.263 NA
HETATM   23  C   UNL     1      42.211 -10.962  11.181  1.00  0.00     0.189 C 
BRANCH  23  24
HETATM   24  O   UNL     1      42.147 -11.860  12.189  1.00  0.00    -0.343 OA
HETATM   25  H   UNL     1      42.542 -12.708  11.957  1.00  0.00     0.219 HD
ENDBRANCH  23  24
BRANCH  23  26
HETATM   26  C   UNL     1      40.844 -10.475  10.797  1.00  0.00     0.141 A 
HETATM   27  N   UNL     1      40.142  -9.852  11.792  1.00  0.00    -0.254 NA
HETATM   28  C   UNL     1      38.898  -9.421  11.506  1.00  0.00     0.117 A 
HETATM   29  C   UNL     1      38.299  -9.573  10.269  1.00  0.00     0.022 A 
HETATM   30  C   UNL     1      39.020 -10.204   9.259  1.00  0.00     0.040 A 
HETATM   31  C   UNL     1      40.312 -10.664   9.518  1.00  0.00     0.098 A 
BRANCH  31  32
HETATM   32  O   UNL     1      40.999 -11.284   8.513  1.00  0.00    -0.358 OA
HETATM   33  H   UNL     1      40.615 -12.158   8.340  1.00  0.00     0.218 HD
ENDBRANCH  31  32
ENDBRANCH  23  26
ENDBRANCH  21  22
ENDBRANCH  20  21
ENDBRANCH   2  20
TORSDOF 9
ENDMDL
MODEL 7
REMARK VINA RESULT:      -8.3      5.554      9.231
REMARK  9 active torsions:
REMARK  status: ('A' for Active; 'I' for Inactive)
REMARK    1  A    between atoms: N_4  and  C_5 
REMARK    2  A    between atoms: C_13  and  C_14 
REMARK    3  A    between atoms: C_15  and  C_16 
REMARK       I    between atoms: C_16  and  N_17 
REMARK    4  A    between atoms: N_17  and  C_18 
REMARK    5  A    between atoms: C_18  and  C_19 
REMARK    6  A    between atoms: C_19  and  N_20 
REMARK    7  A    between atoms: C_21  and  O_22 
REMARK    8  A    between atoms: C_21  and  C_23 
REMARK    9  A    between atoms: C_28  and  O_29 
ROOT
HETATM    1  C   UNL     1      41.923 -16.475   6.196  1.00  0.00     0.241 C 
HETATM    2  N   UNL     1      43.108 -16.717   6.840  1.00  0.00    -0.356 N 
HETATM    3  O   UNL     1      40.835 -16.883   6.585  1.00  0.00    -0.269 OA
HETATM    4  H   UNL     1      43.957 -16.231   6.583  1.00  0.00     0.162 HD
ENDROOT
BRANCH   1   5
HETATM    5  C   UNL     1      42.076 -15.669   4.959  1.00  0.00     0.075 C 
HETATM    6  C   UNL     1      41.079 -15.677   4.061  1.00  0.00     0.021 C 
BRANCH   6   7
HETATM    7  C   UNL     1      41.055 -15.019   2.793  1.00  0.00     0.014 C 
HETATM    8  C   UNL     1      41.222 -13.659   2.452  1.00  0.00     0.063 C 
HETATM    9  C   UNL     1      41.453 -12.484   3.330  1.00  0.00     0.073 C 
HETATM   10  N   UNL     1      41.159 -13.477   1.132  1.00  0.00    -0.171 NA
HETATM   11  N   UNL     1      40.817 -14.687   0.609  1.00  0.00    -0.237 N 
HETATM   12  C   UNL     1      40.868 -15.677   1.588  1.00  0.00     0.045 C 
HETATM   13  C   UNL     1      40.811 -17.143   1.327  1.00  0.00     0.071 C 
BRANCH  11  14
HETATM   14  C   UNL     1      40.474 -14.766  -0.777  1.00  0.00     0.058 A 
HETATM   15  C   UNL     1      39.365 -14.040  -1.245  1.00  0.00     0.031 A 
HETATM   16  C   UNL     1      38.996 -14.090  -2.593  1.00  0.00     0.002 A 
HETATM   17  C   UNL     1      39.719 -14.878  -3.484  1.00  0.00     0.000 A 
HETATM   18  C   UNL     1      40.802 -15.624  -3.027  1.00  0.00     0.002 A 
HETATM   19  C   UNL     1      41.176 -15.575  -1.679  1.00  0.00     0.031 A 
ENDBRANCH  11  14
ENDBRANCH   6   7
ENDBRANCH   1   5
BRANCH   2  20
HETATM   20  C   UNL     1      43.139 -17.407   8.116  1.00  0.00     0.144 C 
BRANCH  20  21
HETATM   21  C   UNL     1      44.185 -18.524   8.126  1.00  0.00     0.171 C 
BRANCH  21  22
HETATM   22  N   UNL     1      43.962 -19.400   6.978  1.00  0.00    -0.263 NA
HETATM   23  C   UNL     1      44.653 -19.263   5.904  1.00  0.00     0.189 C 
BRANCH  23  24
HETATM   24  O   UNL     1      45.654 -18.364   5.781  1.00  0.00    -0.343 OA
HETATM   25  H   UNL     1      45.499 -17.562   6.292  1.00  0.00     0.219 HD
ENDBRANCH  23  24
BRANCH  23  26
HETATM   26  C   UNL     1      44.466 -20.046   4.637  1.00  0.00     0.141 A 
HETATM   27  N   UNL     1      44.711 -21.388   4.735  1.00  0.00    -0.254 NA
HETATM   28  C   UNL     1      44.584 -22.133   3.619  1.00  0.00     0.117 A 
HETATM   29  C   UNL     1      44.221 -21.614   2.389  1.00  0.00     0.022 A 
HETATM   30  C   UNL     1      43.969 -20.249   2.296  1.00  0.00     0.040 A 
HETATM   31  C   UNL     1      44.090 -19.445   3.431  1.00  0.00     0.098 A 
BRANCH  31  32
HETATM   32  O   UNL     1      43.841 -18.107   3.315  1.00  0.00    -0.358 OA
HETATM   33  H   UNL     1      43.268 -17.814   4.041  1.00  0.00     0.218 HD
ENDBRANCH  31  32
ENDBRANCH  23  26
ENDBRANCH  21  22
ENDBRANCH  20  21
ENDBRANCH   2  20
TORSDOF 9
ENDMDL
MODEL 8
REMARK VINA RESULT:      -8.3      2.864      5.291
REMARK  9 active torsions:
REMARK  status: ('A' for Active; 'I' for Inactive)
REMARK    1  A    between atoms: N_4  and  C_5 
REMARK    2  A    between atoms: C_13  and  C_14 
REMARK    3  A    between atoms: C_15  and  C_16 
REMARK       I    between atoms: C_16  and  N_17 
REMARK    4  A    between atoms: N_17  and  C_18 
REMARK    5  A    between atoms: C_18  and  C_19 
REMARK    6  A    between atoms: C_19  and  N_20 
REMARK    7  A    between atoms: C_21  and  O_22 
REMARK    8  A    between atoms: C_21  and  C_23 
REMARK    9  A    between atoms: C_28  and  O_29 
ROOT
HETATM    1  C   UNL     1      45.463 -12.639   8.454  1.00  0.00     0.241 C 
HETATM    2  N   UNL     1      44.501 -12.599   9.428  1.00  0.00    -0.356 N 
HETATM    3  O   UNL     1      46.457 -11.922   8.442  1.00  0.00    -0.269 OA
HETATM    4  H   UNL     1      43.786 -13.312   9.493  1.00  0.00     0.162 HD
ENDROOT
BRANCH   1   5
HETATM    5  C   UNL     1      45.189 -13.638   7.392  1.00  0.00     0.075 C 
HETATM    6  C   UNL     1      44.025 -14.306   7.424  1.00  0.00     0.021 C 
BRANCH   6   7
HETATM    7  C   UNL     1      43.599 -15.339   6.534  1.00  0.00     0.014 C 
HETATM    8  C   UNL     1      43.362 -16.713   6.754  1.00  0.00     0.063 C 
HETATM    9  C   UNL     1      43.510 -17.512   7.996  1.00  0.00     0.073 C 
HETATM   10  N   UNL     1      42.939 -17.318   5.642  1.00  0.00    -0.171 NA
HETATM   11  N   UNL     1      43.024 -16.381   4.658  1.00  0.00    -0.237 N 
HETATM   12  C   UNL     1      43.306 -15.128   5.195  1.00  0.00     0.045 C 
HETATM   13  C   UNL     1      43.216 -13.838   4.454  1.00  0.00     0.071 C 
BRANCH  11  14
HETATM   14  C   UNL     1      42.828 -16.790   3.301  1.00  0.00     0.058 A 
HETATM   15  C   UNL     1      43.953 -17.079   2.509  1.00  0.00     0.031 A 
HETATM   16  C   UNL     1      43.805 -17.481   1.178  1.00  0.00     0.002 A 
HETATM   17  C   UNL     1      42.534 -17.583   0.619  1.00  0.00     0.000 A 
HETATM   18  C   UNL     1      41.414 -17.272   1.384  1.00  0.00     0.002 A 
HETATM   19  C   UNL     1      41.558 -16.871   2.718  1.00  0.00     0.031 A 
ENDBRANCH  11  14
ENDBRANCH   6   7
ENDBRANCH   1   5
BRANCH   2  20
HETATM   20  C   UNL     1      44.651 -11.750  10.596  1.00  0.00     0.144 C 
BRANCH  20  21
HETATM   21  C   UNL     1      43.572 -10.666  10.647  1.00  0.00     0.171 C 
BRANCH  21  22
HETATM   22  N   UNL     1      43.258 -10.238   9.285  1.00  0.00    -0.263 NA
HETATM   23  C   UNL     1      42.119 -10.512   8.757  1.00  0.00     0.189 C 
BRANCH  23  24
HETATM   24  O   UNL     1      41.129 -11.144   9.426  1.00  0.00    -0.343 OA
HETATM   25  H   UNL     1      41.305 -12.083   9.551  1.00  0.00     0.219 HD
ENDBRANCH  23  24
BRANCH  23  26
HETATM   26  C   UNL     1      41.709 -10.195   7.348  1.00  0.00     0.141 A 
HETATM   27  N   UNL     1      41.857  -8.888   6.974  1.00  0.00    -0.254 NA
HETATM   28  C   UNL     1      41.477  -8.546   5.727  1.00  0.00     0.117 A 
HETATM   29  C   UNL     1      40.950  -9.440   4.814  1.00  0.00     0.022 A 
HETATM   30  C   UNL     1      40.805 -10.770   5.199  1.00  0.00     0.040 A 
HETATM   31  C   UNL     1      41.188 -11.162   6.482  1.00  0.00     0.098 A 
BRANCH  31  32
HETATM   32  O   UNL     1      41.033 -12.472   6.840  1.00  0.00    -0.358 OA
HETATM   33  H   UNL     1      41.183 -13.044   6.071  1.00  0.00     0.218 HD
ENDBRANCH  31  32
ENDBRANCH  23  26
ENDBRANCH  21  22
ENDBRANCH  20  21
ENDBRANCH   2  20
TORSDOF 9
ENDMDL
MODEL 9
REMARK VINA RESULT:      -8.1      2.926      3.507
REMARK  9 active torsions:
REMARK  status: ('A' for Active; 'I' for Inactive)
REMARK    1  A    between atoms: N_4  and  C_5 
REMARK    2  A    between atoms: C_13  and  C_14 
REMARK    3  A    between atoms: C_15  and  C_16 
REMARK       I    between atoms: C_16  and  N_17 
REMARK    4  A    between atoms: N_17  and  C_18 
REMARK    5  A    between atoms: C_18  and  C_19 
REMARK    6  A    between atoms: C_19  and  N_20 
REMARK    7  A    between atoms: C_21  and  O_22 
REMARK    8  A    between atoms: C_21  and  C_23 
REMARK    9  A    between atoms: C_28  and  O_29 
ROOT
HETATM    1  C   UNL     1      45.012 -13.269   7.732  1.00  0.00     0.241 C 
HETATM    2  N   UNL     1      44.024 -12.746   8.522  1.00  0.00    -0.356 N 
HETATM    3  O   UNL     1      46.187 -12.925   7.785  1.00  0.00    -0.269 OA
HETATM    4  H   UNL     1      43.105 -13.167   8.565  1.00  0.00     0.162 HD
ENDROOT
BRANCH   1   5
HETATM    5  C   UNL     1      44.527 -14.302   6.782  1.00  0.00     0.075 C 
HETATM    6  C   UNL     1      44.183 -15.507   7.265  1.00  0.00     0.021 C 
BRANCH   6   7
HETATM    7  C   UNL     1      43.750 -16.643   6.515  1.00  0.00     0.014 C 
HETATM    8  C   UNL     1      42.477 -16.993   6.015  1.00  0.00     0.063 C 
HETATM    9  C   UNL     1      41.181 -16.280   6.142  1.00  0.00     0.073 C 
HETATM   10  N   UNL     1      42.521 -18.139   5.333  1.00  0.00    -0.171 NA
HETATM   11  N   UNL     1      43.786 -18.616   5.494  1.00  0.00    -0.237 N 
HETATM   12  C   UNL     1      44.595 -17.663   6.108  1.00  0.00     0.045 C 
HETATM   13  C   UNL     1      46.080 -17.737   6.208  1.00  0.00     0.071 C 
BRANCH  11  14
HETATM   14  C   UNL     1      44.084 -19.941   5.044  1.00  0.00     0.058 A 
HETATM   15  C   UNL     1      44.229 -20.174   3.665  1.00  0.00     0.031 A 
HETATM   16  C   UNL     1      44.520 -21.454   3.185  1.00  0.00     0.002 A 
HETATM   17  C   UNL     1      44.654 -22.518   4.074  1.00  0.00     0.000 A 
HETATM   18  C   UNL     1      44.485 -22.305   5.439  1.00  0.00     0.002 A 
HETATM   19  C   UNL     1      44.195 -21.024   5.924  1.00  0.00     0.031 A 
ENDBRANCH  11  14
ENDBRANCH   6   7
ENDBRANCH   1   5
BRANCH   2  20
HETATM   20  C   UNL     1      44.330 -11.795   9.574  1.00  0.00     0.144 C 
BRANCH  20  21
HETATM   21  C   UNL     1      43.948 -12.337  10.953  1.00  0.00     0.171 C 
BRANCH  21  22
HETATM   22  N   UNL     1      43.778 -11.219  11.878  1.00  0.00    -0.263 NA
HETATM   23  C   UNL     1      42.695 -11.085  12.555  1.00  0.00     0.189 C 
BRANCH  23  24
HETATM   24  O   UNL     1      41.683 -11.981  12.511  1.00  0.00    -0.343 OA
HETATM   25  H   UNL     1      40.858 -11.595  12.197  1.00  0.00     0.219 HD
ENDBRANCH  23  24
BRANCH  23  26
HETATM   26  C   UNL     1      42.372  -9.944  13.475  1.00  0.00     0.141 A 
HETATM   27  N   UNL     1      42.021 -10.298  14.749  1.00  0.00    -0.254 NA
HETATM   28  C   UNL     1      41.696  -9.310  15.607  1.00  0.00     0.117 A 
HETATM   29  C   UNL     1      41.699  -7.970  15.269  1.00  0.00     0.022 A 
HETATM   30  C   UNL     1      42.061  -7.615  13.973  1.00  0.00     0.040 A 
HETATM   31  C   UNL     1      42.405  -8.610  13.056  1.00  0.00     0.098 A 
BRANCH  31  32
HETATM   32  O   UNL     1      42.753  -8.239  11.788  1.00  0.00    -0.358 OA
HETATM   33  H   UNL     1      42.765  -9.017  11.208  1.00  0.00     0.218 HD
ENDBRANCH  31  32
ENDBRANCH  23  26
ENDBRANCH  21  22
ENDBRANCH  20  21
ENDBRANCH   2  20
TORSDOF 9
ENDMDL
MODEL 10
REMARK VINA RESULT:      -8.1      5.680      9.833
REMARK  9 active torsions:
REMARK  status: ('A' for Active; 'I' for Inactive)
REMARK    1  A    between atoms: N_4  and  C_5 
REMARK    2  A    between atoms: C_13  and  C_14 
REMARK    3  A    between atoms: C_15  and  C_16 
REMARK       I    between atoms: C_16  and  N_17 
REMARK    4  A    between atoms: N_17  and  C_18 
REMARK    5  A    between atoms: C_18  and  C_19 
REMARK    6  A    between atoms: C_19  and  N_20 
REMARK    7  A    between atoms: C_21  and  O_22 
REMARK    8  A    between atoms: C_21  and  C_23 
REMARK    9  A    between atoms: C_28  and  O_29 
ROOT
HETATM    1  C   UNL     1      43.542 -14.551   5.054  1.00  0.00     0.241 C 
HETATM    2  N   UNL     1      43.797 -15.854   5.390  1.00  0.00    -0.356 N 
HETATM    3  O   UNL     1      43.457 -13.638   5.867  1.00  0.00    -0.269 OA
HETATM    4  H   UNL     1      44.023 -16.545   4.687  1.00  0.00     0.162 HD
ENDROOT
BRANCH   1   5
HETATM    5  C   UNL     1      43.368 -14.339   3.596  1.00  0.00     0.075 C 
HETATM    6  C   UNL     1      42.253 -14.801   3.009  1.00  0.00     0.021 C 
BRANCH   6   7
HETATM    7  C   UNL     1      41.925 -14.748   1.620  1.00  0.00     0.014 C 
HETATM    8  C   UNL     1      41.687 -15.777   0.683  1.00  0.00     0.063 C 
HETATM    9  C   UNL     1      41.729 -17.251   0.865  1.00  0.00     0.073 C 
HETATM   10  N   UNL     1      41.376 -15.282  -0.516  1.00  0.00    -0.171 NA
HETATM   11  N   UNL     1      41.539 -13.934  -0.412  1.00  0.00    -0.237 N 
HETATM   12  C   UNL     1      41.754 -13.567   0.914  1.00  0.00     0.045 C 
HETATM   13  C   UNL     1      41.716 -12.170   1.433  1.00  0.00     0.071 C 
BRANCH  11  14
HETATM   14  C   UNL     1      41.476 -13.140  -1.600  1.00  0.00     0.058 A 
HETATM   15  C   UNL     1      40.216 -12.788  -2.115  1.00  0.00     0.031 A 
HETATM   16  C   UNL     1      40.111 -12.012  -3.274  1.00  0.00     0.002 A 
HETATM   17  C   UNL     1      41.261 -11.594  -3.940  1.00  0.00     0.000 A 
HETATM   18  C   UNL     1      42.513 -11.960  -3.454  1.00  0.00     0.002 A 
HETATM   19  C   UNL     1      42.622 -12.735  -2.293  1.00  0.00     0.031 A 
ENDBRANCH  11  14
ENDBRANCH   6   7
ENDBRANCH   1   5
BRANCH   2  20
HETATM   20  C   UNL     1      44.090 -16.231   6.761  1.00  0.00     0.144 C 
BRANCH  20  21
HETATM   21  C   UNL     1      44.825 -17.572   6.831  1.00  0.00     0.171 C 
BRANCH  21  22
HETATM   22  N   UNL     1      44.725 -18.241   5.536  1.00  0.00    -0.263 NA
HETATM   23  C   UNL     1      44.346 -19.467   5.458  1.00  0.00     0.189 C 
BRANCH  23  24
HETATM   24  O   UNL     1      43.961 -20.189   6.534  1.00  0.00    -0.343 OA
HETATM   25  H   UNL     1      43.564 -21.033   6.292  1.00  0.00     0.219 HD
ENDBRANCH  23  24
BRANCH  23  26
HETATM   26  C   UNL     1      44.277 -20.283   4.200  1.00  0.00     0.141 A 
HETATM   27  N   UNL     1      43.748 -19.643   3.114  1.00  0.00    -0.254 NA
HETATM   28  C   UNL     1      43.638 -20.342   1.966  1.00  0.00     0.117 A 
HETATM   29  C   UNL     1      44.030 -21.661   1.832  1.00  0.00     0.022 A 
HETATM   30  C   UNL     1      44.571 -22.307   2.940  1.00  0.00     0.040 A 
HETATM   31  C   UNL     1      44.701 -21.615   4.146  1.00  0.00     0.098 A 
BRANCH  31  32
HETATM   32  O   UNL     1      45.231 -22.269   5.222  1.00  0.00    -0.358 OA
HETATM   33  H   UNL     1      44.899 -23.180   5.252  1.00  0.00     0.218 HD
ENDBRANCH  31  32
ENDBRANCH  23  26
ENDBRANCH  21  22
ENDBRANCH  20  21
ENDBRANCH   2  20
TORSDOF 9
ENDMDL
