MODEL 1
REMARK VINA RESULT:      -7.2      0.000      0.000
REMARK  6 active torsions:
REMARK  status: ('A' for Active; 'I' for Inactive)
REMARK    1  A    between atoms: C_2  and  C_3 
REMARK    2  A    between atoms: C_3  and  N_4 
REMARK    3  A    between atoms: C_3  and  C_15 
REMARK       I    between atoms: N_4  and  C_5 
REMARK       I    between atoms: C_5  and  N_6 
REMARK    4  A    between atoms: N_6  and  C_7 
REMARK    5  A    between atoms: C_16  and  O_17 
REMARK    6  A    between atoms: O_17  and  C_18 
ROOT
HETATM    1  N   UNL     1      42.659 -18.198   5.331  1.00  0.00    -0.334 N 
HETATM    2  C   UNL     1      41.925 -17.056   5.199  1.00  0.00     0.321 C 
HETATM    3  N   UNL     1      42.316 -16.244   4.171  1.00  0.00    -0.307 N 
HETATM    4  O   UNL     1      40.975 -16.871   5.952  1.00  0.00    -0.247 OA
HETATM    5  H   UNL     1      42.315 -18.799   6.066  1.00  0.00     0.165 HD
HETATM    6  H   UNL     1      42.580 -16.785   3.356  1.00  0.00     0.170 HD
ENDROOT
BRANCH   1   7
HETATM    7  C   UNL     1      44.027 -18.434   4.868  1.00  0.00     0.122 C 
BRANCH   7   8
HETATM    8  C   UNL     1      45.007 -18.319   6.061  1.00  0.00     0.026 C 
HETATM    9  C   UNL     1      44.380 -18.498   7.443  1.00  0.00     0.007 C 
ENDBRANCH   7   8
BRANCH   7  10
HETATM   10  C   UNL     1      44.091 -19.688   4.001  1.00  0.00    -0.002 A 
HETATM   11  C   UNL     1      43.537 -19.666   2.700  1.00  0.00     0.077 A 
HETATM   12  C   UNL     1      43.623 -20.791   1.870  1.00  0.00     0.037 A 
HETATM   13  C   UNL     1      44.243 -21.954   2.322  1.00  0.00     0.003 A 
HETATM   14  C   UNL     1      44.794 -21.992   3.596  1.00  0.00     0.001 A 
HETATM   15  C   UNL     1      44.726 -20.869   4.425  1.00  0.00     0.012 A 
BRANCH  11  16
HETATM   16  O   UNL     1      42.983 -18.480   2.274  1.00  0.00    -0.351 OA
BRANCH  16  17
HETATM   17  C   UNL     1      43.651 -17.861   1.171  1.00  0.00     0.171 C 
HETATM   18  C   UNL     1      42.731 -16.799   0.596  1.00  0.00     0.034 C 
ENDBRANCH  16  17
ENDBRANCH  11  16
ENDBRANCH   7  10
ENDBRANCH   1   7
BRANCH   3  19
HETATM   19  C   UNL     1      41.877 -14.925   3.921  1.00  0.00     0.059 A 
HETATM   20  C   UNL     1      40.774 -14.561   3.134  1.00  0.00    -0.032 A 
HETATM   21  C   UNL     1      39.852 -15.534   2.455  1.00  0.00     0.050 C 
HETATM   22  C   UNL     1      40.489 -13.192   2.983  1.00  0.00     0.028 A 
HETATM   23  C   UNL     1      41.257 -12.253   3.655  1.00  0.00     0.117 A 
HETATM   24  N   UNL     1      42.283 -12.572   4.464  1.00  0.00    -0.271 NA
HETATM   25  C   UNL     1      42.562 -13.894   4.575  1.00  0.00     0.146 A 
ENDBRANCH   3  19
TORSDOF 6
ENDMDL
MODEL 2
REMARK VINA RESULT:      -7.0      0.933      1.546
REMARK  6 active torsions:
REMARK  status: ('A' for Active; 'I' for Inactive)
REMARK    1  A    between atoms: C_2  and  C_3 
REMARK    2  A    between atoms: C_3  and  N_4 
REMARK    3  A    between atoms: C_3  and  C_15 
REMARK       I    between atoms: N_4  and  C_5 
REMARK       I    between atoms: C_5  and  N_6 
REMARK    4  A    between atoms: N_6  and  C_7 
REMARK    5  A    between atoms: C_16  and  O_17 
REMARK    6  A    between atoms: O_17  and  C_18 
ROOT
HETATM    1  N   UNL     1      42.545 -18.148   5.770  1.00  0.00    -0.334 N 
HETATM    2  C   UNL     1      41.663 -17.126   5.579  1.00  0.00     0.321 C 
HETATM    3  N   UNL     1      41.906 -16.365   4.469  1.00  0.00    -0.307 N 
HETATM    4  O   UNL     1      40.726 -16.997   6.358  1.00  0.00    -0.247 OA
HETATM    5  H   UNL     1      42.310 -18.720   6.569  1.00  0.00     0.165 HD
HETATM    6  H   UNL     1      42.210 -16.938   3.691  1.00  0.00     0.170 HD
ENDROOT
BRANCH   1   7
HETATM    7  C   UNL     1      43.915 -18.248   5.264  1.00  0.00     0.122 C 
BRANCH   7   8
HETATM    8  C   UNL     1      44.914 -18.141   6.442  1.00  0.00     0.026 C 
HETATM    9  C   UNL     1      44.356 -18.527   7.811  1.00  0.00     0.007 C 
ENDBRANCH   7   8
BRANCH   7  10
HETATM   10  C   UNL     1      44.049 -19.432   4.310  1.00  0.00    -0.002 A 
HETATM   11  C   UNL     1      43.659 -19.286   2.958  1.00  0.00     0.077 A 
HETATM   12  C   UNL     1      43.815 -20.345   2.054  1.00  0.00     0.037 A 
HETATM   13  C   UNL     1      44.341 -21.563   2.480  1.00  0.00     0.003 A 
HETATM   14  C   UNL     1      44.730 -21.722   3.803  1.00  0.00     0.001 A 
HETATM   15  C   UNL     1      44.592 -20.666   4.708  1.00  0.00     0.012 A 
BRANCH  11  16
HETATM   16  O   UNL     1      43.197 -18.050   2.569  1.00  0.00    -0.351 OA
BRANCH  16  17
HETATM   17  C   UNL     1      43.517 -17.678   1.224  1.00  0.00     0.171 C 
HETATM   18  C   UNL     1      42.296 -17.015   0.612  1.00  0.00     0.034 C 
ENDBRANCH  16  17
ENDBRANCH  11  16
ENDBRANCH   7  10
ENDBRANCH   1   7
BRANCH   3  19
HETATM   19  C   UNL     1      41.290 -15.140   4.131  1.00  0.00     0.059 A 
HETATM   20  C   UNL     1      41.678 -13.871   4.587  1.00  0.00    -0.032 A 
HETATM   21  C   UNL     1      42.850 -13.612   5.490  1.00  0.00     0.050 C 
HETATM   22  C   UNL     1      40.939 -12.756   4.155  1.00  0.00     0.028 A 
HETATM   23  C   UNL     1      39.899 -12.929   3.255  1.00  0.00     0.117 A 
HETATM   24  N   UNL     1      39.541 -14.124   2.752  1.00  0.00    -0.271 NA
HETATM   25  C   UNL     1      40.244 -15.191   3.202  1.00  0.00     0.146 A 
ENDBRANCH   3  19
TORSDOF 6
ENDMDL
MODEL 3
REMARK VINA RESULT:      -6.9      1.942      3.535
REMARK  6 active torsions:
REMARK  status: ('A' for Active; 'I' for Inactive)
REMARK    1  A    between atoms: C_2  and  C_3 
REMARK    2  A    between atoms: C_3  and  N_4 
REMARK    3  A    between atoms: C_3  and  C_15 
REMARK       I    between atoms: N_4  and  C_5 
REMARK       I    between atoms: C_5  and  N_6 
REMARK    4  A    between atoms: N_6  and  C_7 
REMARK    5  A    between atoms: C_16  and  O_17 
REMARK    6  A    between atoms: O_17  and  C_18 
ROOT
HETATM    1  N   UNL     1      43.672 -16.003   2.927  1.00  0.00    -0.334 N 
HETATM    2  C   UNL     1      43.174 -14.806   3.349  1.00  0.00     0.321 C 
HETATM    3  N   UNL     1      42.028 -14.896   4.090  1.00  0.00    -0.307 N 
HETATM    4  O   UNL     1      43.791 -13.780   3.085  1.00  0.00    -0.247 OA
HETATM    5  H   UNL     1      44.544 -15.907   2.425  1.00  0.00     0.165 HD
HETATM    6  H   UNL     1      42.057 -15.693   4.715  1.00  0.00     0.170 HD
ENDROOT
BRANCH   1   7
HETATM    7  C   UNL     1      42.940 -17.258   2.748  1.00  0.00     0.122 C 
BRANCH   7   8
HETATM    8  C   UNL     1      42.423 -17.355   1.292  1.00  0.00     0.026 C 
HETATM    9  C   UNL     1      40.905 -17.451   1.142  1.00  0.00     0.007 C 
ENDBRANCH   7   8
BRANCH   7  10
HETATM   10  C   UNL     1      43.741 -18.430   3.308  1.00  0.00    -0.002 A 
HETATM   11  C   UNL     1      44.052 -18.467   4.687  1.00  0.00     0.077 A 
HETATM   12  C   UNL     1      44.747 -19.555   5.232  1.00  0.00     0.037 A 
HETATM   13  C   UNL     1      45.156 -20.608   4.417  1.00  0.00     0.003 A 
HETATM   14  C   UNL     1      44.857 -20.589   3.061  1.00  0.00     0.001 A 
HETATM   15  C   UNL     1      44.151 -19.515   2.513  1.00  0.00     0.012 A 
BRANCH  11  16
HETATM   16  O   UNL     1      43.581 -17.433   5.464  1.00  0.00    -0.351 OA
BRANCH  16  17
HETATM   17  C   UNL     1      44.431 -17.057   6.553  1.00  0.00     0.171 C 
HETATM   18  C   UNL     1      44.076 -15.638   6.962  1.00  0.00     0.034 C 
ENDBRANCH  16  17
ENDBRANCH  11  16
ENDBRANCH   7  10
ENDBRANCH   1   7
BRANCH   3  19
HETATM   19  C   UNL     1      41.191 -13.830   4.487  1.00  0.00     0.059 A 
HETATM   20  C   UNL     1      40.049 -13.385   3.803  1.00  0.00    -0.032 A 
HETATM   21  C   UNL     1      39.511 -14.006   2.545  1.00  0.00     0.050 C 
HETATM   22  C   UNL     1      39.338 -12.296   4.339  1.00  0.00     0.028 A 
HETATM   23  C   UNL     1      39.741 -11.738   5.542  1.00  0.00     0.117 A 
HETATM   24  N   UNL     1      40.794 -12.181   6.251  1.00  0.00    -0.271 NA
HETATM   25  C   UNL     1      41.486 -13.211   5.706  1.00  0.00     0.146 A 
ENDBRANCH   3  19
TORSDOF 6
ENDMDL
MODEL 4
REMARK VINA RESULT:      -6.5      1.918      3.855
REMARK  6 active torsions:
REMARK  status: ('A' for Active; 'I' for Inactive)
REMARK    1  A    between atoms: C_2  and  C_3 
REMARK    2  A    between atoms: C_3  and  N_4 
REMARK    3  A    between atoms: C_3  and  C_15 
REMARK       I    between atoms: N_4  and  C_5 
REMARK       I    between atoms: C_5  and  N_6 
REMARK    4  A    between atoms: N_6  and  C_7 
REMARK    5  A    between atoms: C_16  and  O_17 
REMARK    6  A    between atoms: O_17  and  C_18 
ROOT
HETATM    1  N   UNL     1      43.520 -15.804   2.706  1.00  0.00    -0.334 N 
HETATM    2  C   UNL     1      42.898 -14.623   2.986  1.00  0.00     0.321 C 
HETATM    3  N   UNL     1      41.592 -14.746   3.373  1.00  0.00    -0.307 N 
HETATM    4  O   UNL     1      43.542 -13.582   2.920  1.00  0.00    -0.247 OA
HETATM    5  H   UNL     1      44.496 -15.683   2.471  1.00  0.00     0.165 HD
HETATM    6  H   UNL     1      41.461 -15.554   3.970  1.00  0.00     0.170 HD
ENDROOT
BRANCH   1   7
HETATM    7  C   UNL     1      42.895 -17.067   2.311  1.00  0.00     0.122 C 
BRANCH   7   8
HETATM    8  C   UNL     1      42.812 -17.146   0.767  1.00  0.00     0.026 C 
HETATM    9  C   UNL     1      41.558 -16.534   0.146  1.00  0.00     0.007 C 
ENDBRANCH   7   8
BRANCH   7  10
HETATM   10  C   UNL     1      43.529 -18.236   3.060  1.00  0.00    -0.002 A 
HETATM   11  C   UNL     1      43.408 -18.310   4.467  1.00  0.00     0.077 A 
HETATM   12  C   UNL     1      43.942 -19.397   5.171  1.00  0.00     0.037 A 
HETATM   13  C   UNL     1      44.617 -20.411   4.495  1.00  0.00     0.003 A 
HETATM   14  C   UNL     1      44.743 -20.354   3.113  1.00  0.00     0.001 A 
HETATM   15  C   UNL     1      44.199 -19.282   2.402  1.00  0.00     0.012 A 
BRANCH  11  16
HETATM   16  O   UNL     1      42.687 -17.316   5.088  1.00  0.00    -0.351 OA
BRANCH  16  17
HETATM   17  C   UNL     1      41.349 -17.672   5.450  1.00  0.00     0.171 C 
HETATM   18  C   UNL     1      40.778 -16.557   6.308  1.00  0.00     0.034 C 
ENDBRANCH  16  17
ENDBRANCH  11  16
ENDBRANCH   7  10
ENDBRANCH   1   7
BRANCH   3  19
HETATM   19  C   UNL     1      40.654 -13.701   3.531  1.00  0.00     0.059 A 
HETATM   20  C   UNL     1      40.559 -12.845   4.638  1.00  0.00    -0.032 A 
HETATM   21  C   UNL     1      41.476 -12.881   5.828  1.00  0.00     0.050 C 
HETATM   22  C   UNL     1      39.551 -11.863   4.633  1.00  0.00     0.028 A 
HETATM   23  C   UNL     1      38.730 -11.730   3.524  1.00  0.00     0.117 A 
HETATM   24  N   UNL     1      38.835 -12.496   2.423  1.00  0.00    -0.271 NA
HETATM   25  C   UNL     1      39.791 -13.455   2.458  1.00  0.00     0.146 A 
ENDBRANCH   3  19
TORSDOF 6
ENDMDL
MODEL 5
REMARK VINA RESULT:      -6.5      1.682      3.122
REMARK  6 active torsions:
REMARK  status: ('A' for Active; 'I' for Inactive)
REMARK    1  A    between atoms: C_2  and  C_3 
REMARK    2  A    between atoms: C_3  and  N_4 
REMARK    3  A    between atoms: C_3  and  C_15 
REMARK       I    between atoms: N_4  and  C_5 
REMARK       I    between atoms: C_5  and  N_6 
REMARK    4  A    between atoms: N_6  and  C_7 
REMARK    5  A    between atoms: C_16  and  O_17 
REMARK    6  A    between atoms: O_17  and  C_18 
ROOT
HETATM    1  N   UNL     1      42.592 -18.382   5.193  1.00  0.00    -0.334 N 
HETATM    2  C   UNL     1      41.583 -17.502   4.934  1.00  0.00     0.321 C 
HETATM    3  N   UNL     1      41.650 -16.904   3.706  1.00  0.00    -0.307 N 
HETATM    4  O   UNL     1      40.698 -17.351   5.769  1.00  0.00    -0.247 OA
HETATM    5  H   UNL     1      42.487 -18.843   6.086  1.00  0.00     0.165 HD
HETATM    6  H   UNL     1      41.960 -17.557   2.997  1.00  0.00     0.170 HD
ENDROOT
BRANCH   1   7
HETATM    7  C   UNL     1      43.922 -18.416   4.583  1.00  0.00     0.122 C 
BRANCH   7   8
HETATM    8  C   UNL     1      44.996 -18.140   5.662  1.00  0.00     0.026 C 
HETATM    9  C   UNL     1      44.631 -17.072   6.692  1.00  0.00     0.007 C 
ENDBRANCH   7   8
BRANCH   7  10
HETATM   10  C   UNL     1      44.080 -19.657   3.709  1.00  0.00    -0.002 A 
HETATM   11  C   UNL     1      44.529 -20.866   4.290  1.00  0.00     0.077 A 
HETATM   12  C   UNL     1      44.639 -22.029   3.517  1.00  0.00     0.037 A 
HETATM   13  C   UNL     1      44.324 -22.006   2.160  1.00  0.00     0.003 A 
HETATM   14  C   UNL     1      43.881 -20.828   1.574  1.00  0.00     0.001 A 
HETATM   15  C   UNL     1      43.753 -19.667   2.342  1.00  0.00     0.012 A 
BRANCH  11  16
HETATM   16  O   UNL     1      44.775 -20.858   5.644  1.00  0.00    -0.351 OA
BRANCH  16  17
HETATM   17  C   UNL     1      43.889 -21.663   6.427  1.00  0.00     0.171 C 
HETATM   18  C   UNL     1      43.537 -20.892   7.687  1.00  0.00     0.034 C 
ENDBRANCH  16  17
ENDBRANCH  11  16
ENDBRANCH   7  10
ENDBRANCH   1   7
BRANCH   3  19
HETATM   19  C   UNL     1      40.870 -15.819   3.249  1.00  0.00     0.059 A 
HETATM   20  C   UNL     1      41.009 -14.481   3.648  1.00  0.00    -0.032 A 
HETATM   21  C   UNL     1      42.050 -13.981   4.609  1.00  0.00     0.050 C 
HETATM   22  C   UNL     1      40.132 -13.530   3.096  1.00  0.00     0.028 A 
HETATM   23  C   UNL     1      39.207 -13.922   2.141  1.00  0.00     0.117 A 
HETATM   24  N   UNL     1      39.089 -15.185   1.693  1.00  0.00    -0.271 NA
HETATM   25  C   UNL     1      39.921 -16.094   2.257  1.00  0.00     0.146 A 
ENDBRANCH   3  19
TORSDOF 6
ENDMDL
MODEL 6
REMARK VINA RESULT:      -6.4      2.441      4.218
REMARK  6 active torsions:
REMARK  status: ('A' for Active; 'I' for Inactive)
REMARK    1  A    between atoms: C_2  and  C_3 
REMARK    2  A    between atoms: C_3  and  N_4 
REMARK    3  A    between atoms: C_3  and  C_15 
REMARK       I    between atoms: N_4  and  C_5 
REMARK       I    between atoms: C_5  and  N_6 
REMARK    4  A    between atoms: N_6  and  C_7 
REMARK    5  A    between atoms: C_16  and  O_17 
REMARK    6  A    between atoms: O_17  and  C_18 
ROOT
HETATM    1  N   UNL     1      42.767 -15.416   3.527  1.00  0.00    -0.334 N 
HETATM    2  C   UNL     1      41.867 -14.640   2.858  1.00  0.00     0.321 C 
HETATM    3  N   UNL     1      40.898 -15.339   2.192  1.00  0.00    -0.307 N 
HETATM    4  O   UNL     1      41.958 -13.420   2.938  1.00  0.00    -0.247 OA
HETATM    5  H   UNL     1      43.440 -14.870   4.047  1.00  0.00     0.165 HD
HETATM    6  H   UNL     1      40.591 -16.142   2.729  1.00  0.00     0.170 HD
ENDROOT
BRANCH   1   7
HETATM    7  C   UNL     1      43.116 -16.811   3.254  1.00  0.00     0.122 C 
BRANCH   7   8
HETATM    8  C   UNL     1      44.033 -16.883   2.009  1.00  0.00     0.026 C 
HETATM    9  C   UNL     1      43.404 -17.514   0.767  1.00  0.00     0.007 C 
ENDBRANCH   7   8
BRANCH   7  10
HETATM   10  C   UNL     1      43.577 -17.508   4.530  1.00  0.00    -0.002 A 
HETATM   11  C   UNL     1      43.710 -18.916   4.547  1.00  0.00     0.077 A 
HETATM   12  C   UNL     1      44.174 -19.574   5.693  1.00  0.00     0.037 A 
HETATM   13  C   UNL     1      44.494 -18.850   6.839  1.00  0.00     0.003 A 
HETATM   14  C   UNL     1      44.371 -17.467   6.840  1.00  0.00     0.001 A 
HETATM   15  C   UNL     1      43.923 -16.802   5.695  1.00  0.00     0.012 A 
BRANCH  11  16
HETATM   16  O   UNL     1      43.435 -19.586   3.376  1.00  0.00    -0.351 OA
BRANCH  16  17
HETATM   17  C   UNL     1      44.421 -20.545   2.980  1.00  0.00     0.171 C 
HETATM   18  C   UNL     1      43.867 -21.337   1.809  1.00  0.00     0.034 C 
ENDBRANCH  16  17
ENDBRANCH  11  16
ENDBRANCH   7  10
ENDBRANCH   1   7
BRANCH   3  19
HETATM   19  C   UNL     1      39.965 -14.821   1.267  1.00  0.00     0.059 A 
HETATM   20  C   UNL     1      40.244 -14.437  -0.053  1.00  0.00    -0.032 A 
HETATM   21  C   UNL     1      41.591 -14.554  -0.709  1.00  0.00     0.050 C 
HETATM   22  C   UNL     1      39.190 -13.928  -0.833  1.00  0.00     0.028 A 
HETATM   23  C   UNL     1      37.909 -13.876  -0.305  1.00  0.00     0.117 A 
HETATM   24  N   UNL     1      37.598 -14.292   0.935  1.00  0.00    -0.271 NA
HETATM   25  C   UNL     1      38.630 -14.752   1.683  1.00  0.00     0.146 A 
ENDBRANCH   3  19
TORSDOF 6
ENDMDL
MODEL 7
REMARK VINA RESULT:      -6.2      1.678      6.966
REMARK  6 active torsions:
REMARK  status: ('A' for Active; 'I' for Inactive)
REMARK    1  A    between atoms: C_2  and  C_3 
REMARK    2  A    between atoms: C_3  and  N_4 
REMARK    3  A    between atoms: C_3  and  C_15 
REMARK       I    between atoms: N_4  and  C_5 
REMARK       I    between atoms: C_5  and  N_6 
REMARK    4  A    between atoms: N_6  and  C_7 
REMARK    5  A    between atoms: C_16  and  O_17 
REMARK    6  A    between atoms: O_17  and  C_18 
ROOT
HETATM    1  N   UNL     1      40.621 -16.090   4.419  1.00  0.00    -0.334 N 
HETATM    2  C   UNL     1      41.265 -17.271   4.641  1.00  0.00     0.321 C 
HETATM    3  N   UNL     1      42.568 -17.295   4.225  1.00  0.00    -0.307 N 
HETATM    4  O   UNL     1      40.669 -18.174   5.217  1.00  0.00    -0.247 OA
HETATM    5  H   UNL     1      39.677 -16.087   4.781  1.00  0.00     0.165 HD
HETATM    6  H   UNL     1      43.028 -16.412   4.410  1.00  0.00     0.170 HD
ENDROOT
BRANCH   1   7
HETATM    7  C   UNL     1      40.950 -15.070   3.422  1.00  0.00     0.122 C 
BRANCH   7   8
HETATM    8  C   UNL     1      40.137 -15.325   2.129  1.00  0.00     0.026 C 
HETATM    9  C   UNL     1      40.907 -15.995   0.993  1.00  0.00     0.007 C 
ENDBRANCH   7   8
BRANCH   7  10
HETATM   10  C   UNL     1      40.898 -13.677   4.043  1.00  0.00    -0.002 A 
HETATM   11  C   UNL     1      41.711 -13.382   5.162  1.00  0.00     0.077 A 
HETATM   12  C   UNL     1      41.714 -12.097   5.721  1.00  0.00     0.037 A 
HETATM   13  C   UNL     1      40.902 -11.097   5.191  1.00  0.00     0.003 A 
HETATM   14  C   UNL     1      40.099 -11.369   4.091  1.00  0.00     0.001 A 
HETATM   15  C   UNL     1      40.103 -12.644   3.518  1.00  0.00     0.012 A 
BRANCH  11  16
HETATM   16  O   UNL     1      42.537 -14.383   5.619  1.00  0.00    -0.351 OA
BRANCH  16  17
HETATM   17  C   UNL     1      43.903 -14.001   5.814  1.00  0.00     0.171 C 
HETATM   18  C   UNL     1      44.494 -14.892   6.892  1.00  0.00     0.034 C 
ENDBRANCH  16  17
ENDBRANCH  11  16
ENDBRANCH   7  10
ENDBRANCH   1   7
BRANCH   3  19
HETATM   19  C   UNL     1      43.410 -18.426   4.144  1.00  0.00     0.059 A 
HETATM   20  C   UNL     1      43.856 -19.035   2.961  1.00  0.00    -0.032 A 
HETATM   21  C   UNL     1      43.534 -18.547   1.577  1.00  0.00     0.050 C 
HETATM   22  C   UNL     1      44.684 -20.166   3.069  1.00  0.00     0.028 A 
HETATM   23  C   UNL     1      45.081 -20.609   4.321  1.00  0.00     0.117 A 
HETATM   24  N   UNL     1      44.720 -20.012   5.470  1.00  0.00    -0.271 NA
HETATM   25  C   UNL     1      43.898 -18.941   5.350  1.00  0.00     0.146 A 
ENDBRANCH   3  19
TORSDOF 6
ENDMDL
MODEL 8
REMARK VINA RESULT:      -6.0      2.233      6.965
REMARK  6 active torsions:
REMARK  status: ('A' for Active; 'I' for Inactive)
REMARK    1  A    between atoms: C_2  and  C_3 
REMARK    2  A    between atoms: C_3  and  N_4 
REMARK    3  A    between atoms: C_3  and  C_15 
REMARK       I    between atoms: N_4  and  C_5 
REMARK       I    between atoms: C_5  and  N_6 
REMARK    4  A    between atoms: N_6  and  C_7 
REMARK    5  A    between atoms: C_16  and  O_17 
REMARK    6  A    between atoms: O_17  and  C_18 
ROOT
HETATM    1  N   UNL     1      40.029 -15.350   4.145  1.00  0.00    -0.334 N 
HETATM    2  C   UNL     1      40.882 -15.977   5.005  1.00  0.00     0.321 C 
HETATM    3  N   UNL     1      42.168 -16.085   4.554  1.00  0.00    -0.307 N 
HETATM    4  O   UNL     1      40.462 -16.341   6.098  1.00  0.00    -0.247 OA
HETATM    5  H   UNL     1      39.100 -15.243   4.527  1.00  0.00     0.165 HD
HETATM    6  H   UNL     1      42.455 -15.248   4.060  1.00  0.00     0.170 HD
ENDROOT
BRANCH   1   7
HETATM    7  C   UNL     1      40.167 -15.218   2.694  1.00  0.00     0.122 C 
BRANCH   7   8
HETATM    8  C   UNL     1      40.160 -16.622   2.041  1.00  0.00     0.026 C 
HETATM    9  C   UNL     1      41.194 -16.837   0.937  1.00  0.00     0.007 C 
ENDBRANCH   7   8
BRANCH   7  10
HETATM   10  C   UNL     1      39.200 -14.168   2.156  1.00  0.00    -0.002 A 
HETATM   11  C   UNL     1      39.292 -12.834   2.616  1.00  0.00     0.077 A 
HETATM   12  C   UNL     1      38.444 -11.844   2.104  1.00  0.00     0.037 A 
HETATM   13  C   UNL     1      37.485 -12.164   1.146  1.00  0.00     0.003 A 
HETATM   14  C   UNL     1      37.382 -13.469   0.682  1.00  0.00     0.001 A 
HETATM   15  C   UNL     1      38.235 -14.460   1.176  1.00  0.00     0.012 A 
BRANCH  11  16
HETATM   16  O   UNL     1      40.289 -12.550   3.522  1.00  0.00    -0.351 OA
BRANCH  16  17
HETATM   17  C   UNL     1      39.880 -11.771   4.650  1.00  0.00     0.171 C 
HETATM   18  C   UNL     1      40.712 -12.197   5.847  1.00  0.00     0.034 C 
ENDBRANCH  16  17
ENDBRANCH  11  16
ENDBRANCH   7  10
ENDBRANCH   1   7
BRANCH   3  19
HETATM   19  C   UNL     1      43.207 -16.847   5.131  1.00  0.00     0.059 A 
HETATM   20  C   UNL     1      43.684 -18.079   4.656  1.00  0.00    -0.032 A 
HETATM   21  C   UNL     1      43.182 -18.768   3.420  1.00  0.00     0.050 C 
HETATM   22  C   UNL     1      44.722 -18.707   5.368  1.00  0.00     0.028 A 
HETATM   23  C   UNL     1      45.280 -18.075   6.468  1.00  0.00     0.117 A 
HETATM   24  N   UNL     1      44.887 -16.868   6.912  1.00  0.00    -0.271 NA
HETATM   25  C   UNL     1      43.866 -16.290   6.233  1.00  0.00     0.146 A 
ENDBRANCH   3  19
TORSDOF 6
ENDMDL
MODEL 9
REMARK VINA RESULT:      -6.0      2.419      6.669
REMARK  6 active torsions:
REMARK  status: ('A' for Active; 'I' for Inactive)
REMARK    1  A    between atoms: C_2  and  C_3 
REMARK    2  A    between atoms: C_3  and  N_4 
REMARK    3  A    between atoms: C_3  and  C_15 
REMARK       I    between atoms: N_4  and  C_5 
REMARK       I    between atoms: C_5  and  N_6 
REMARK    4  A    between atoms: N_6  and  C_7 
REMARK    5  A    between atoms: C_16  and  O_17 
REMARK    6  A    between atoms: O_17  and  C_18 
ROOT
HETATM    1  N   UNL     1      42.112 -13.287   3.330  1.00  0.00    -0.334 N 
HETATM    2  C   UNL     1      43.086 -14.185   3.655  1.00  0.00     0.321 C 
HETATM    3  N   UNL     1      42.630 -15.327   4.253  1.00  0.00    -0.307 N 
HETATM    4  O   UNL     1      44.248 -13.935   3.356  1.00  0.00    -0.247 OA
HETATM    5  H   UNL     1      42.476 -12.477   2.846  1.00  0.00     0.165 HD
HETATM    6  H   UNL     1      41.759 -15.636   3.837  1.00  0.00     0.170 HD
ENDROOT
BRANCH   1   7
HETATM    7  C   UNL     1      40.784 -13.158   3.930  1.00  0.00     0.122 C 
BRANCH   7   8
HETATM    8  C   UNL     1      40.754 -11.926   4.867  1.00  0.00     0.026 C 
HETATM    9  C   UNL     1      40.485 -12.230   6.340  1.00  0.00     0.007 C 
ENDBRANCH   7   8
BRANCH   7  10
HETATM   10  C   UNL     1      39.699 -13.279   2.864  1.00  0.00    -0.002 A 
HETATM   11  C   UNL     1      39.405 -14.547   2.309  1.00  0.00     0.077 A 
HETATM   12  C   UNL     1      38.383 -14.689   1.361  1.00  0.00     0.037 A 
HETATM   13  C   UNL     1      37.654 -13.580   0.940  1.00  0.00     0.003 A 
HETATM   14  C   UNL     1      37.929 -12.328   1.475  1.00  0.00     0.001 A 
HETATM   15  C   UNL     1      38.936 -12.180   2.433  1.00  0.00     0.012 A 
BRANCH  11  16
HETATM   16  O   UNL     1      40.112 -15.623   2.794  1.00  0.00    -0.351 OA
BRANCH  16  17
HETATM   17  C   UNL     1      40.257 -16.716   1.881  1.00  0.00     0.171 C 
HETATM   18  C   UNL     1      41.496 -16.468   1.039  1.00  0.00     0.034 C 
ENDBRANCH  16  17
ENDBRANCH  11  16
ENDBRANCH   7  10
ENDBRANCH   1   7
BRANCH   3  19
HETATM   19  C   UNL     1      43.410 -16.329   4.870  1.00  0.00     0.059 A 
HETATM   20  C   UNL     1      44.019 -16.237   6.131  1.00  0.00    -0.032 A 
HETATM   21  C   UNL     1      43.902 -15.054   7.050  1.00  0.00     0.050 C 
HETATM   22  C   UNL     1      44.774 -17.333   6.585  1.00  0.00     0.028 A 
HETATM   23  C   UNL     1      44.846 -18.483   5.814  1.00  0.00     0.117 A 
HETATM   24  N   UNL     1      44.225 -18.625   4.630  1.00  0.00    -0.271 NA
HETATM   25  C   UNL     1      43.527 -17.549   4.193  1.00  0.00     0.146 A 
ENDBRANCH   3  19
TORSDOF 6
ENDMDL
MODEL 10
REMARK VINA RESULT:      -6.0      2.255      4.036
REMARK  6 active torsions:
REMARK  status: ('A' for Active; 'I' for Inactive)
REMARK    1  A    between atoms: C_2  and  C_3 
REMARK    2  A    between atoms: C_3  and  N_4 
REMARK    3  A    between atoms: C_3  and  C_15 
REMARK       I    between atoms: N_4  and  C_5 
REMARK       I    between atoms: C_5  and  N_6 
REMARK    4  A    between atoms: N_6  and  C_7 
REMARK    5  A    between atoms: C_16  and  O_17 
REMARK    6  A    between atoms: O_17  and  C_18 
ROOT
HETATM    1  N   UNL     1      40.959 -16.861   3.929  1.00  0.00    -0.334 N 
HETATM    2  C   UNL     1      40.504 -16.370   2.741  1.00  0.00     0.321 C 
HETATM    3  N   UNL     1      41.069 -15.183   2.363  1.00  0.00    -0.307 N 
HETATM    4  O   UNL     1      39.690 -17.025   2.100  1.00  0.00    -0.247 OA
HETATM    5  H   UNL     1      40.560 -17.761   4.156  1.00  0.00     0.165 HD
HETATM    6  H   UNL     1      42.056 -15.158   2.589  1.00  0.00     0.170 HD
ENDROOT
BRANCH   1   7
HETATM    7  C   UNL     1      41.566 -16.110   5.028  1.00  0.00     0.122 C 
BRANCH   7   8
HETATM    8  C   UNL     1      40.459 -15.418   5.860  1.00  0.00     0.026 C 
HETATM    9  C   UNL     1      40.354 -13.905   5.680  1.00  0.00     0.007 C 
ENDBRANCH   7   8
BRANCH   7  10
HETATM   10  C   UNL     1      42.589 -16.971   5.764  1.00  0.00    -0.002 A 
HETATM   11  C   UNL     1      43.673 -17.532   5.049  1.00  0.00     0.077 A 
HETATM   12  C   UNL     1      44.648 -18.288   5.712  1.00  0.00     0.037 A 
HETATM   13  C   UNL     1      44.554 -18.512   7.084  1.00  0.00     0.003 A 
HETATM   14  C   UNL     1      43.498 -17.967   7.802  1.00  0.00     0.001 A 
HETATM   15  C   UNL     1      42.529 -17.198   7.151  1.00  0.00     0.012 A 
BRANCH  11  16
HETATM   16  O   UNL     1      43.756 -17.241   3.707  1.00  0.00    -0.351 OA
BRANCH  16  17
HETATM   17  C   UNL     1      43.989 -18.366   2.854  1.00  0.00     0.171 C 
HETATM   18  C   UNL     1      43.731 -17.937   1.421  1.00  0.00     0.034 C 
ENDBRANCH  16  17
ENDBRANCH  11  16
ENDBRANCH   7  10
ENDBRANCH   1   7
BRANCH   3  19
HETATM   19  C   UNL     1      40.657 -14.351   1.299  1.00  0.00     0.059 A 
HETATM   20  C   UNL     1      40.817 -14.625  -0.068  1.00  0.00    -0.032 A 
HETATM   21  C   UNL     1      41.426 -15.883  -0.620  1.00  0.00     0.050 C 
HETATM   22  C   UNL     1      40.356 -13.673  -0.995  1.00  0.00     0.028 A 
HETATM   23  C   UNL     1      39.710 -12.533  -0.543  1.00  0.00     0.117 A 
HETATM   24  N   UNL     1      39.488 -12.269   0.757  1.00  0.00    -0.271 NA
HETATM   25  C   UNL     1      39.965 -13.182   1.637  1.00  0.00     0.146 A 
ENDBRANCH   3  19
TORSDOF 6
ENDMDL
