MODEL 1
REMARK VINA RESULT:      -9.1      0.000      0.000
REMARK  7 active torsions:
REMARK  status: ('A' for Active; 'I' for Inactive)
REMARK    1  A    between atoms: C_2  and  O_3 
REMARK    2  A    between atoms: O_3  and  C_4 
REMARK    3  A    between atoms: C_5  and  N_6 
REMARK       I    between atoms: N_6  and  C_7 
REMARK       I    between atoms: C_7  and  N_8 
REMARK    4  A    between atoms: N_8  and  C_9 
REMARK    5  A    between atoms: C_9  and  C_10 
REMARK       I    between atoms: C_10  and  N_11 
REMARK    6  A    between atoms: N_11  and  C_12 
REMARK    7  A    between atoms: C_25  and  C_26 
ROOT
HETATM    1  N   UNL     1      43.322 -16.619   5.230  1.00  0.00    -0.306 N 
HETATM    2  C   UNL     1      41.989 -16.502   5.569  1.00  0.00     0.321 C 
HETATM    3  N   UNL     1      41.697 -15.243   6.023  1.00  0.00    -0.334 N 
HETATM    4  O   UNL     1      41.126 -17.357   5.408  1.00  0.00    -0.247 OA
HETATM    5  H   UNL     1      43.609 -15.841   4.655  1.00  0.00     0.171 HD
HETATM    6  H   UNL     1      42.481 -14.669   6.302  1.00  0.00     0.164 HD
ENDROOT
BRANCH   3   7
HETATM    7  C   UNL     1      40.413 -14.593   5.812  1.00  0.00     0.227 C 
BRANCH   7   8
HETATM    8  C   UNL     1      40.040 -14.028   4.428  1.00  0.00     0.239 C 
HETATM    9  N   UNL     1      39.862 -14.992   3.458  1.00  0.00    -0.326 N 
HETATM   10  H   UNL     1      39.819 -15.957   3.794  1.00  0.00     0.169 HD
HETATM   11  O   UNL     1      40.088 -12.814   4.232  1.00  0.00    -0.271 OA
BRANCH   9  12
HETATM   12  C   UNL     1      39.846 -14.825   2.059  1.00  0.00     0.037 A 
HETATM   13  C   UNL     1      40.887 -15.233   1.217  1.00  0.00     0.061 A 
HETATM   14  C   UNL     1      40.694 -15.079  -0.138  1.00  0.00     0.065 A 
HETATM   15  C   UNL     1      39.530 -14.532  -0.670  1.00  0.00     0.063 A 
HETATM   16  N   UNL     1      41.528 -15.424  -1.197  1.00  0.00    -0.306 N 
HETATM   17  N   UNL     1      39.648 -14.540  -2.056  1.00  0.00    -0.307 N 
HETATM   18  C   UNL     1      38.497 -14.104   0.123  1.00  0.00     0.034 A 
HETATM   19  C   UNL     1      40.888 -15.098  -2.401  1.00  0.00     0.325 A 
HETATM   20  H   UNL     1      38.970 -14.223  -2.729  1.00  0.00     0.170 HD
HETATM   21  O   UNL     1      41.318 -15.271  -3.526  1.00  0.00    -0.247 OA
HETATM   22  C   UNL     1      38.665 -14.259   1.506  1.00  0.00     0.032 A 
HETATM   23  H   UNL     1      42.437 -15.854  -1.138  1.00  0.00     0.170 HD
ENDBRANCH   9  12
ENDBRANCH   7   8
ENDBRANCH   3   7
BRANCH   1  24
HETATM   24  C   UNL     1      43.826 -17.881   4.834  1.00  0.00     0.070 A 
HETATM   25  C   UNL     1      44.604 -18.663   5.708  1.00  0.00     0.095 A 
HETATM   26  C   UNL     1      45.079 -19.900   5.264  1.00  0.00     0.040 A 
HETATM   27  C   UNL     1      44.754 -20.366   3.986  1.00  0.00     0.019 A 
HETATM   28  C   UNL     1      43.970 -19.594   3.116  1.00  0.00     0.050 A 
HETATM   29  C   UNL     1      43.539 -18.329   3.539  1.00  0.00     0.048 A 
BRANCH  25  30
HETATM   30  O   UNL     1      44.895 -18.109   6.928  1.00  0.00    -0.349 OA
BRANCH  30  31
HETATM   31  C   UNL     1      44.131 -18.548   8.048  1.00  0.00     0.171 C 
HETATM   32  C   UNL     1      43.472 -17.328   8.667  1.00  0.00     0.034 C 
ENDBRANCH  30  31
ENDBRANCH  25  30
BRANCH  28  33
HETATM   33  C   UNL     1      43.577 -20.140   1.766  1.00  0.00     0.417 C 
HETATM   34  F   UNL     1      44.325 -21.210   1.374  1.00  0.00    -0.166 F 
HETATM   35  F   UNL     1      42.282 -20.557   1.728  1.00  0.00    -0.166 F 
HETATM   36  F   UNL     1      43.703 -19.214   0.776  1.00  0.00    -0.166 F 
ENDBRANCH  28  33
ENDBRANCH   1  24
TORSDOF 7
ENDMDL
MODEL 2
REMARK VINA RESULT:      -8.8      2.040      2.965
REMARK  7 active torsions:
REMARK  status: ('A' for Active; 'I' for Inactive)
REMARK    1  A    between atoms: C_2  and  O_3 
REMARK    2  A    between atoms: O_3  and  C_4 
REMARK    3  A    between atoms: C_5  and  N_6 
REMARK       I    between atoms: N_6  and  C_7 
REMARK       I    between atoms: C_7  and  N_8 
REMARK    4  A    between atoms: N_8  and  C_9 
REMARK    5  A    between atoms: C_9  and  C_10 
REMARK       I    between atoms: C_10  and  N_11 
REMARK    6  A    between atoms: N_11  and  C_12 
REMARK    7  A    between atoms: C_25  and  C_26 
ROOT
HETATM    1  N   UNL     1      43.348 -17.261   4.942  1.00  0.00    -0.306 N 
HETATM    2  C   UNL     1      42.003 -17.087   5.197  1.00  0.00     0.321 C 
HETATM    3  N   UNL     1      41.777 -15.952   5.929  1.00  0.00    -0.334 N 
HETATM    4  O   UNL     1      41.090 -17.778   4.760  1.00  0.00    -0.247 OA
HETATM    5  H   UNL     1      43.758 -16.403   4.604  1.00  0.00     0.171 HD
HETATM    6  H   UNL     1      42.575 -15.551   6.403  1.00  0.00     0.164 HD
ENDROOT
BRANCH   3   7
HETATM    7  C   UNL     1      40.581 -15.135   5.792  1.00  0.00     0.227 C 
BRANCH   7   8
HETATM    8  C   UNL     1      40.359 -14.280   4.530  1.00  0.00     0.239 C 
HETATM    9  N   UNL     1      39.867 -14.986   3.452  1.00  0.00    -0.326 N 
HETATM   10  H   UNL     1      39.541 -15.935   3.655  1.00  0.00     0.169 HD
HETATM   11  O   UNL     1      40.769 -13.120   4.499  1.00  0.00    -0.271 OA
BRANCH   9  12
HETATM   12  C   UNL     1      39.862 -14.610   2.095  1.00  0.00     0.037 A 
HETATM   13  C   UNL     1      41.019 -14.518   1.311  1.00  0.00     0.061 A 
HETATM   14  C   UNL     1      40.850 -14.218  -0.022  1.00  0.00     0.065 A 
HETATM   15  C   UNL     1      39.597 -13.999  -0.587  1.00  0.00     0.063 A 
HETATM   16  N   UNL     1      41.801 -14.099  -1.032  1.00  0.00    -0.306 N 
HETATM   17  N   UNL     1      39.776 -13.744  -1.943  1.00  0.00    -0.307 N 
HETATM   18  C   UNL     1      38.444 -14.062   0.152  1.00  0.00     0.034 A 
HETATM   19  C   UNL     1      41.146 -13.808  -2.236  1.00  0.00     0.325 A 
HETATM   20  H   UNL     1      39.064 -13.560  -2.630  1.00  0.00     0.170 HD
HETATM   21  O   UNL     1      41.663 -13.649  -3.327  1.00  0.00    -0.247 OA
HETATM   22  C   UNL     1      38.588 -14.375   1.510  1.00  0.00     0.032 A 
HETATM   23  H   UNL     1      42.797 -14.216  -0.942  1.00  0.00     0.170 HD
ENDBRANCH   9  12
ENDBRANCH   7   8
ENDBRANCH   3   7
BRANCH   1  24
HETATM   24  C   UNL     1      43.779 -18.437   4.279  1.00  0.00     0.070 A 
HETATM   25  C   UNL     1      44.012 -18.448   2.891  1.00  0.00     0.095 A 
HETATM   26  C   UNL     1      44.433 -19.635   2.288  1.00  0.00     0.040 A 
HETATM   27  C   UNL     1      44.655 -20.782   3.059  1.00  0.00     0.019 A 
HETATM   28  C   UNL     1      44.434 -20.771   4.444  1.00  0.00     0.050 A 
HETATM   29  C   UNL     1      43.957 -19.597   5.043  1.00  0.00     0.048 A 
BRANCH  25  30
HETATM   30  O   UNL     1      43.738 -17.286   2.217  1.00  0.00    -0.349 OA
BRANCH  30  31
HETATM   31  C   UNL     1      43.029 -17.394   0.984  1.00  0.00     0.171 C 
HETATM   32  C   UNL     1      41.615 -17.848   1.299  1.00  0.00     0.034 C 
ENDBRANCH  30  31
ENDBRANCH  25  30
BRANCH  28  33
HETATM   33  C   UNL     1      44.739 -21.998   5.268  1.00  0.00     0.417 C 
HETATM   34  F   UNL     1      44.389 -21.871   6.579  1.00  0.00    -0.166 F 
HETATM   35  F   UNL     1      44.091 -23.105   4.814  1.00  0.00    -0.166 F 
HETATM   36  F   UNL     1      46.064 -22.309   5.263  1.00  0.00    -0.166 F 
ENDBRANCH  28  33
ENDBRANCH   1  24
TORSDOF 7
ENDMDL
MODEL 3
REMARK VINA RESULT:      -8.8      5.320      8.825
REMARK  7 active torsions:
REMARK  status: ('A' for Active; 'I' for Inactive)
REMARK    1  A    between atoms: C_2  and  O_3 
REMARK    2  A    between atoms: O_3  and  C_4 
REMARK    3  A    between atoms: C_5  and  N_6 
REMARK       I    between atoms: N_6  and  C_7 
REMARK       I    between atoms: C_7  and  N_8 
REMARK    4  A    between atoms: N_8  and  C_9 
REMARK    5  A    between atoms: C_9  and  C_10 
REMARK       I    between atoms: C_10  and  N_11 
REMARK    6  A    between atoms: N_11  and  C_12 
REMARK    7  A    between atoms: C_25  and  C_26 
ROOT
HETATM    1  N   UNL     1      43.255 -15.791   6.384  1.00  0.00    -0.306 N 
HETATM    2  C   UNL     1      43.717 -14.490   6.404  1.00  0.00     0.321 C 
HETATM    3  N   UNL     1      44.118 -14.122   7.660  1.00  0.00    -0.334 N 
HETATM    4  O   UNL     1      43.858 -13.760   5.430  1.00  0.00    -0.247 OA
HETATM    5  H   UNL     1      43.901 -16.403   6.860  1.00  0.00     0.171 HD
HETATM    6  H   UNL     1      43.798 -14.699   8.426  1.00  0.00     0.164 HD
ENDROOT
BRANCH   3   7
HETATM    7  C   UNL     1      45.210 -13.195   7.912  1.00  0.00     0.227 C 
BRANCH   7   8
HETATM    8  C   UNL     1      45.048 -12.055   8.937  1.00  0.00     0.239 C 
HETATM    9  N   UNL     1      43.961 -12.202   9.773  1.00  0.00    -0.326 N 
HETATM   10  H   UNL     1      43.499 -13.115   9.744  1.00  0.00     0.169 HD
HETATM   11  O   UNL     1      45.752 -11.050   8.847  1.00  0.00    -0.271 OA
BRANCH   9  12
HETATM   12  C   UNL     1      43.341 -11.223  10.573  1.00  0.00     0.037 A 
HETATM   13  C   UNL     1      42.031 -10.770  10.369  1.00  0.00     0.061 A 
HETATM   14  C   UNL     1      41.532  -9.869  11.282  1.00  0.00     0.065 A 
HETATM   15  C   UNL     1      42.279  -9.402  12.361  1.00  0.00     0.063 A 
HETATM   16  N   UNL     1      40.270  -9.283  11.352  1.00  0.00    -0.306 N 
HETATM   17  N   UNL     1      41.479  -8.531  13.092  1.00  0.00    -0.307 N 
HETATM   18  C   UNL     1      43.569  -9.809  12.581  1.00  0.00     0.034 A 
HETATM   19  C   UNL     1      40.220  -8.450  12.478  1.00  0.00     0.325 A 
HETATM   20  H   UNL     1      41.723  -8.039  13.935  1.00  0.00     0.170 HD
HETATM   21  O   UNL     1      39.270  -7.790  12.855  1.00  0.00    -0.247 OA
HETATM   22  C   UNL     1      44.098 -10.733  11.671  1.00  0.00     0.032 A 
HETATM   23  H   UNL     1      39.499  -9.431  10.722  1.00  0.00     0.170 HD
ENDBRANCH   9  12
ENDBRANCH   7   8
ENDBRANCH   3   7
BRANCH   1  24
HETATM   24  C   UNL     1      42.705 -16.310   5.186  1.00  0.00     0.070 A 
HETATM   25  C   UNL     1      41.363 -16.072   4.837  1.00  0.00     0.095 A 
HETATM   26  C   UNL     1      40.871 -16.612   3.646  1.00  0.00     0.040 A 
HETATM   27  C   UNL     1      41.711 -17.343   2.799  1.00  0.00     0.019 A 
HETATM   28  C   UNL     1      43.052 -17.572   3.139  1.00  0.00     0.050 A 
HETATM   29  C   UNL     1      43.533 -17.080   4.360  1.00  0.00     0.048 A 
BRANCH  25  30
HETATM   30  O   UNL     1      40.611 -15.372   5.744  1.00  0.00    -0.349 OA
BRANCH  30  31
HETATM   31  C   UNL     1      39.836 -14.281   5.252  1.00  0.00     0.171 C 
HETATM   32  C   UNL     1      40.183 -13.055   6.077  1.00  0.00     0.034 C 
ENDBRANCH  30  31
ENDBRANCH  25  30
BRANCH  28  33
HETATM   33  C   UNL     1      43.959 -18.309   2.184  1.00  0.00     0.417 C 
HETATM   34  F   UNL     1      44.836 -19.146   2.805  1.00  0.00    -0.166 F 
HETATM   35  F   UNL     1      43.270 -19.081   1.300  1.00  0.00    -0.166 F 
HETATM   36  F   UNL     1      44.717 -17.463   1.433  1.00  0.00    -0.166 F 
ENDBRANCH  28  33
ENDBRANCH   1  24
TORSDOF 7
ENDMDL
MODEL 4
REMARK VINA RESULT:      -8.7      1.765      2.235
REMARK  7 active torsions:
REMARK  status: ('A' for Active; 'I' for Inactive)
REMARK    1  A    between atoms: C_2  and  O_3 
REMARK    2  A    between atoms: O_3  and  C_4 
REMARK    3  A    between atoms: C_5  and  N_6 
REMARK       I    between atoms: N_6  and  C_7 
REMARK       I    between atoms: C_7  and  N_8 
REMARK    4  A    between atoms: N_8  and  C_9 
REMARK    5  A    between atoms: C_9  and  C_10 
REMARK       I    between atoms: C_10  and  N_11 
REMARK    6  A    between atoms: N_11  and  C_12 
REMARK    7  A    between atoms: C_25  and  C_26 
ROOT
HETATM    1  N   UNL     1      43.495 -17.202   4.155  1.00  0.00    -0.306 N 
HETATM    2  C   UNL     1      42.179 -16.915   4.455  1.00  0.00     0.321 C 
HETATM    3  N   UNL     1      41.950 -15.565   4.457  1.00  0.00    -0.334 N 
HETATM    4  O   UNL     1      41.279 -17.733   4.609  1.00  0.00    -0.247 OA
HETATM    5  H   UNL     1      43.794 -16.682   3.343  1.00  0.00     0.171 HD
HETATM    6  H   UNL     1      42.764 -14.967   4.510  1.00  0.00     0.164 HD
ENDROOT
BRANCH   3   7
HETATM    7  C   UNL     1      40.686 -14.967   4.057  1.00  0.00     0.227 C 
BRANCH   7   8
HETATM    8  C   UNL     1      40.292 -14.888   2.570  1.00  0.00     0.239 C 
HETATM    9  N   UNL     1      41.366 -14.907   1.703  1.00  0.00    -0.326 N 
HETATM   10  H   UNL     1      42.268 -15.148   2.120  1.00  0.00     0.169 HD
HETATM   11  O   UNL     1      39.125 -14.653   2.260  1.00  0.00    -0.271 OA
BRANCH   9  12
HETATM   12  C   UNL     1      41.394 -14.528   0.347  1.00  0.00     0.037 A 
HETATM   13  C   UNL     1      41.832 -13.275  -0.099  1.00  0.00     0.061 A 
HETATM   14  C   UNL     1      41.882 -13.078  -1.461  1.00  0.00     0.065 A 
HETATM   15  C   UNL     1      41.507 -14.059  -2.374  1.00  0.00     0.063 A 
HETATM   16  N   UNL     1      42.303 -11.963  -2.181  1.00  0.00    -0.306 N 
HETATM   17  N   UNL     1      41.696 -13.549  -3.654  1.00  0.00    -0.307 N 
HETATM   18  C   UNL     1      41.056 -15.291  -1.975  1.00  0.00     0.034 A 
HETATM   19  C   UNL     1      42.198 -12.243  -3.550  1.00  0.00     0.325 A 
HETATM   20  H   UNL     1      41.529 -14.017  -4.530  1.00  0.00     0.170 HD
HETATM   21  O   UNL     1      42.490 -11.503  -4.471  1.00  0.00    -0.247 OA
HETATM   22  C   UNL     1      41.005 -15.520  -0.593  1.00  0.00     0.032 A 
HETATM   23  H   UNL     1      42.648 -11.095  -1.806  1.00  0.00     0.170 HD
ENDBRANCH   9  12
ENDBRANCH   7   8
ENDBRANCH   3   7
BRANCH   1  24
HETATM   24  C   UNL     1      43.938 -18.547   4.204  1.00  0.00     0.070 A 
HETATM   25  C   UNL     1      44.473 -19.095   5.385  1.00  0.00     0.095 A 
HETATM   26  C   UNL     1      44.899 -20.425   5.378  1.00  0.00     0.040 A 
HETATM   27  C   UNL     1      44.758 -21.208   4.226  1.00  0.00     0.019 A 
HETATM   28  C   UNL     1      44.215 -20.668   3.052  1.00  0.00     0.050 A 
HETATM   29  C   UNL     1      43.840 -19.317   3.040  1.00  0.00     0.048 A 
BRANCH  25  30
HETATM   30  O   UNL     1      44.600 -18.243   6.451  1.00  0.00    -0.349 OA
BRANCH  30  31
HETATM   31  C   UNL     1      43.757 -18.471   7.578  1.00  0.00     0.171 C 
HETATM   32  C   UNL     1      43.220 -17.127   8.037  1.00  0.00     0.034 C 
ENDBRANCH  30  31
ENDBRANCH  25  30
BRANCH  28  33
HETATM   33  C   UNL     1      44.012 -21.544   1.840  1.00  0.00     0.417 C 
HETATM   34  F   UNL     1      44.360 -20.939   0.669  1.00  0.00    -0.166 F 
HETATM   35  F   UNL     1      44.742 -22.691   1.898  1.00  0.00    -0.166 F 
HETATM   36  F   UNL     1      42.715 -21.929   1.690  1.00  0.00    -0.166 F 
ENDBRANCH  28  33
ENDBRANCH   1  24
TORSDOF 7
ENDMDL
MODEL 5
REMARK VINA RESULT:      -8.7      3.661      5.198
REMARK  7 active torsions:
REMARK  status: ('A' for Active; 'I' for Inactive)
REMARK    1  A    between atoms: C_2  and  O_3 
REMARK    2  A    between atoms: O_3  and  C_4 
REMARK    3  A    between atoms: C_5  and  N_6 
REMARK       I    between atoms: N_6  and  C_7 
REMARK       I    between atoms: C_7  and  N_8 
REMARK    4  A    between atoms: N_8  and  C_9 
REMARK    5  A    between atoms: C_9  and  C_10 
REMARK       I    between atoms: C_10  and  N_11 
REMARK    6  A    between atoms: N_11  and  C_12 
REMARK    7  A    between atoms: C_25  and  C_26 
ROOT
HETATM    1  N   UNL     1      43.435 -17.017   1.054  1.00  0.00    -0.306 N 
HETATM    2  C   UNL     1      42.131 -16.755   0.687  1.00  0.00     0.321 C 
HETATM    3  N   UNL     1      42.063 -15.733  -0.222  1.00  0.00    -0.334 N 
HETATM    4  O   UNL     1      41.143 -17.393   1.031  1.00  0.00    -0.247 OA
HETATM    5  H   UNL     1      44.025 -17.084   0.238  1.00  0.00     0.171 HD
HETATM    6  H   UNL     1      42.881 -15.145  -0.306  1.00  0.00     0.164 HD
ENDROOT
BRANCH   3   7
HETATM    7  C   UNL     1      41.058 -15.660  -1.270  1.00  0.00     0.227 C 
BRANCH   7   8
HETATM    8  C   UNL     1      40.981 -14.431  -2.197  1.00  0.00     0.239 C 
HETATM    9  N   UNL     1      42.158 -13.717  -2.281  1.00  0.00    -0.326 N 
HETATM   10  H   UNL     1      42.981 -14.169  -1.876  1.00  0.00     0.169 HD
HETATM   11  O   UNL     1      39.893 -14.075  -2.648  1.00  0.00    -0.271 OA
BRANCH   9  12
HETATM   12  C   UNL     1      42.346 -12.402  -2.750  1.00  0.00     0.037 A 
HETATM   13  C   UNL     1      42.308 -12.049  -4.105  1.00  0.00     0.061 A 
HETATM   14  C   UNL     1      42.426 -10.711  -4.406  1.00  0.00     0.065 A 
HETATM   15  C   UNL     1      42.590  -9.734  -3.428  1.00  0.00     0.063 A 
HETATM   16  N   UNL     1      42.389 -10.074  -5.644  1.00  0.00    -0.306 N 
HETATM   17  N   UNL     1      42.653  -8.498  -4.062  1.00  0.00    -0.307 N 
HETATM   18  C   UNL     1      42.649 -10.044  -2.094  1.00  0.00     0.034 A 
HETATM   19  C   UNL     1      42.524  -8.693  -5.445  1.00  0.00     0.325 A 
HETATM   20  H   UNL     1      42.756  -7.594  -3.631  1.00  0.00     0.170 HD
HETATM   21  O   UNL     1      42.523  -7.829  -6.302  1.00  0.00    -0.247 OA
HETATM   22  C   UNL     1      42.522 -11.399  -1.760  1.00  0.00     0.032 A 
HETATM   23  H   UNL     1      42.267 -10.507  -6.545  1.00  0.00     0.170 HD
ENDBRANCH   9  12
ENDBRANCH   7   8
ENDBRANCH   3   7
BRANCH   1  24
HETATM   24  C   UNL     1      43.690 -17.978   2.063  1.00  0.00     0.070 A 
HETATM   25  C   UNL     1      43.792 -17.605   3.416  1.00  0.00     0.095 A 
HETATM   26  C   UNL     1      44.048 -18.593   4.370  1.00  0.00     0.040 A 
HETATM   27  C   UNL     1      44.163 -19.934   3.988  1.00  0.00     0.019 A 
HETATM   28  C   UNL     1      44.051 -20.310   2.641  1.00  0.00     0.050 A 
HETATM   29  C   UNL     1      43.850 -19.313   1.676  1.00  0.00     0.048 A 
BRANCH  25  30
HETATM   30  O   UNL     1      43.696 -16.265   3.690  1.00  0.00    -0.349 OA
BRANCH  30  31
HETATM   31  C   UNL     1      42.865 -15.875   4.781  1.00  0.00     0.171 C 
HETATM   32  C   UNL     1      41.427 -15.880   4.295  1.00  0.00     0.034 C 
ENDBRANCH  30  31
ENDBRANCH  25  30
BRANCH  28  33
HETATM   33  C   UNL     1      44.115 -21.767   2.255  1.00  0.00     0.417 C 
HETATM   34  F   UNL     1      44.138 -22.612   3.324  1.00  0.00    -0.166 F 
HETATM   35  F   UNL     1      43.052 -22.153   1.498  1.00  0.00    -0.166 F 
HETATM   36  F   UNL     1      45.224 -22.061   1.523  1.00  0.00    -0.166 F 
ENDBRANCH  28  33
ENDBRANCH   1  24
TORSDOF 7
ENDMDL
MODEL 6
REMARK VINA RESULT:      -8.5      4.180      7.762
REMARK  7 active torsions:
REMARK  status: ('A' for Active; 'I' for Inactive)
REMARK    1  A    between atoms: C_2  and  O_3 
REMARK    2  A    between atoms: O_3  and  C_4 
REMARK    3  A    between atoms: C_5  and  N_6 
REMARK       I    between atoms: N_6  and  C_7 
REMARK       I    between atoms: C_7  and  N_8 
REMARK    4  A    between atoms: N_8  and  C_9 
REMARK    5  A    between atoms: C_9  and  C_10 
REMARK       I    between atoms: C_10  and  N_11 
REMARK    6  A    between atoms: N_11  and  C_12 
REMARK    7  A    between atoms: C_25  and  C_26 
ROOT
HETATM    1  N   UNL     1      41.415 -12.972   2.146  1.00  0.00    -0.306 N 
HETATM    2  C   UNL     1      42.408 -13.285   3.052  1.00  0.00     0.321 C 
HETATM    3  N   UNL     1      41.947 -13.224   4.340  1.00  0.00    -0.334 N 
HETATM    4  O   UNL     1      43.539 -13.668   2.778  1.00  0.00    -0.247 OA
HETATM    5  H   UNL     1      40.569 -13.480   2.359  1.00  0.00     0.171 HD
HETATM    6  H   UNL     1      41.080 -12.726   4.488  1.00  0.00     0.164 HD
ENDROOT
BRANCH   3   7
HETATM    7  C   UNL     1      42.430 -14.088   5.405  1.00  0.00     0.227 C 
BRANCH   7   8
HETATM    8  C   UNL     1      42.292 -15.619   5.295  1.00  0.00     0.239 C 
HETATM    9  N   UNL     1      43.496 -16.287   5.215  1.00  0.00    -0.326 N 
HETATM   10  H   UNL     1      44.329 -15.726   5.414  1.00  0.00     0.169 HD
HETATM   11  O   UNL     1      41.182 -16.120   5.120  1.00  0.00    -0.271 OA
BRANCH   9  12
HETATM   12  C   UNL     1      43.731 -17.607   4.783  1.00  0.00     0.037 A 
HETATM   13  C   UNL     1      43.375 -18.084   3.516  1.00  0.00     0.061 A 
HETATM   14  C   UNL     1      43.743 -19.374   3.207  1.00  0.00     0.065 A 
HETATM   15  C   UNL     1      44.427 -20.193   4.101  1.00  0.00     0.063 A 
HETATM   16  N   UNL     1      43.557 -20.091   2.028  1.00  0.00    -0.306 N 
HETATM   17  N   UNL     1      44.661 -21.412   3.474  1.00  0.00    -0.307 N 
HETATM   18  C   UNL     1      44.776 -19.767   5.357  1.00  0.00     0.034 A 
HETATM   19  C   UNL     1      44.129 -21.362   2.177  1.00  0.00     0.325 A 
HETATM   20  H   UNL     1      45.145 -22.210   3.851  1.00  0.00     0.170 HD
HETATM   21  O   UNL     1      44.165 -22.249   1.344  1.00  0.00    -0.247 OA
HETATM   22  C   UNL     1      44.421 -18.454   5.693  1.00  0.00     0.032 A 
HETATM   23  H   UNL     1      43.108 -19.768   1.187  1.00  0.00     0.170 HD
ENDBRANCH   9  12
ENDBRANCH   7   8
ENDBRANCH   3   7
BRANCH   1  24
HETATM   24  C   UNL     1      41.736 -12.887   0.769  1.00  0.00     0.070 A 
HETATM   25  C   UNL     1      41.479 -13.959  -0.106  1.00  0.00     0.095 A 
HETATM   26  C   UNL     1      41.819 -13.824  -1.455  1.00  0.00     0.040 A 
HETATM   27  C   UNL     1      42.370 -12.628  -1.930  1.00  0.00     0.019 A 
HETATM   28  C   UNL     1      42.617 -11.555  -1.062  1.00  0.00     0.050 A 
HETATM   29  C   UNL     1      42.329 -11.709   0.301  1.00  0.00     0.048 A 
BRANCH  25  30
HETATM   30  O   UNL     1      40.965 -15.098   0.457  1.00  0.00    -0.349 OA
BRANCH  30  31
HETATM   31  C   UNL     1      41.759 -16.280   0.387  1.00  0.00     0.171 C 
HETATM   32  C   UNL     1      40.981 -17.402   1.052  1.00  0.00     0.034 C 
ENDBRANCH  30  31
ENDBRANCH  25  30
BRANCH  28  33
HETATM   33  C   UNL     1      43.154 -10.253  -1.603  1.00  0.00     0.417 C 
HETATM   34  F   UNL     1      43.208 -10.211  -2.964  1.00  0.00    -0.166 F 
HETATM   35  F   UNL     1      42.402  -9.183  -1.227  1.00  0.00    -0.166 F 
HETATM   36  F   UNL     1      44.418  -9.994  -1.171  1.00  0.00    -0.166 F 
ENDBRANCH  28  33
ENDBRANCH   1  24
TORSDOF 7
ENDMDL
MODEL 7
REMARK VINA RESULT:      -8.3      3.306      5.820
REMARK  7 active torsions:
REMARK  status: ('A' for Active; 'I' for Inactive)
REMARK    1  A    between atoms: C_2  and  O_3 
REMARK    2  A    between atoms: O_3  and  C_4 
REMARK    3  A    between atoms: C_5  and  N_6 
REMARK       I    between atoms: N_6  and  C_7 
REMARK       I    between atoms: C_7  and  N_8 
REMARK    4  A    between atoms: N_8  and  C_9 
REMARK    5  A    between atoms: C_9  and  C_10 
REMARK       I    between atoms: C_10  and  N_11 
REMARK    6  A    between atoms: N_11  and  C_12 
REMARK    7  A    between atoms: C_25  and  C_26 
ROOT
HETATM    1  N   UNL     1      42.448 -18.243   2.788  1.00  0.00    -0.306 N 
HETATM    2  C   UNL     1      42.799 -17.185   1.976  1.00  0.00     0.321 C 
HETATM    3  N   UNL     1      42.026 -17.144   0.847  1.00  0.00    -0.334 N 
HETATM    4  O   UNL     1      43.623 -16.316   2.239  1.00  0.00    -0.247 OA
HETATM    5  H   UNL     1      41.447 -18.277   2.912  1.00  0.00     0.171 HD
HETATM    6  H   UNL     1      41.514 -17.984   0.616  1.00  0.00     0.164 HD
ENDROOT
BRANCH   3   7
HETATM    7  C   UNL     1      41.645 -15.907   0.182  1.00  0.00     0.227 C 
BRANCH   7   8
HETATM    8  C   UNL     1      40.808 -14.846   0.921  1.00  0.00     0.239 C 
HETATM    9  N   UNL     1      41.476 -14.227   1.958  1.00  0.00    -0.326 N 
HETATM   10  H   UNL     1      42.482 -14.404   2.006  1.00  0.00     0.169 HD
HETATM   11  O   UNL     1      39.608 -14.736   0.675  1.00  0.00    -0.271 OA
BRANCH   9  12
HETATM   12  C   UNL     1      40.930 -13.479   3.019  1.00  0.00     0.037 A 
HETATM   13  C   UNL     1      40.551 -14.036   4.247  1.00  0.00     0.061 A 
HETATM   14  C   UNL     1      40.110 -13.166   5.219  1.00  0.00     0.065 A 
HETATM   15  C   UNL     1      40.023 -11.792   5.012  1.00  0.00     0.063 A 
HETATM   16  N   UNL     1      39.707 -13.427   6.526  1.00  0.00    -0.306 N 
HETATM   17  N   UNL     1      39.568 -11.209   6.189  1.00  0.00    -0.307 N 
HETATM   18  C   UNL     1      40.368 -11.213   3.818  1.00  0.00     0.034 A 
HETATM   19  C   UNL     1      39.371 -12.216   7.145  1.00  0.00     0.325 A 
HETATM   20  H   UNL     1      39.412 -10.230   6.366  1.00  0.00     0.170 HD
HETATM   21  O   UNL     1      38.989 -12.064   8.291  1.00  0.00    -0.247 OA
HETATM   22  C   UNL     1      40.829 -12.076   2.815  1.00  0.00     0.032 A 
HETATM   23  H   UNL     1      39.673 -14.325   6.981  1.00  0.00     0.170 HD
ENDBRANCH   9  12
ENDBRANCH   7   8
ENDBRANCH   3   7
BRANCH   1  24
HETATM   24  C   UNL     1      43.209 -18.502   3.955  1.00  0.00     0.070 A 
HETATM   25  C   UNL     1      44.295 -19.396   3.934  1.00  0.00     0.095 A 
HETATM   26  C   UNL     1      45.009 -19.617   5.114  1.00  0.00     0.040 A 
HETATM   27  C   UNL     1      44.671 -18.930   6.286  1.00  0.00     0.019 A 
HETATM   28  C   UNL     1      43.596 -18.030   6.307  1.00  0.00     0.050 A 
HETATM   29  C   UNL     1      42.843 -17.849   5.138  1.00  0.00     0.048 A 
BRANCH  25  30
HETATM   30  O   UNL     1      44.530 -20.045   2.749  1.00  0.00    -0.349 OA
BRANCH  30  31
HETATM   31  C   UNL     1      44.454 -21.468   2.753  1.00  0.00     0.171 C 
HETATM   32  C   UNL     1      43.869 -21.905   1.421  1.00  0.00     0.034 C 
ENDBRANCH  30  31
ENDBRANCH  25  30
BRANCH  28  33
HETATM   33  C   UNL     1      43.286 -17.251   7.562  1.00  0.00     0.417 C 
HETATM   34  F   UNL     1      43.641 -17.901   8.706  1.00  0.00    -0.166 F 
HETATM   35  F   UNL     1      43.925 -16.050   7.602  1.00  0.00    -0.166 F 
HETATM   36  F   UNL     1      41.959 -16.974   7.685  1.00  0.00    -0.166 F 
ENDBRANCH  28  33
ENDBRANCH   1  24
TORSDOF 7
ENDMDL
MODEL 8
REMARK VINA RESULT:      -8.2      3.315      4.406
REMARK  7 active torsions:
REMARK  status: ('A' for Active; 'I' for Inactive)
REMARK    1  A    between atoms: C_2  and  O_3 
REMARK    2  A    between atoms: O_3  and  C_4 
REMARK    3  A    between atoms: C_5  and  N_6 
REMARK       I    between atoms: N_6  and  C_7 
REMARK       I    between atoms: C_7  and  N_8 
REMARK    4  A    between atoms: N_8  and  C_9 
REMARK    5  A    between atoms: C_9  and  C_10 
REMARK       I    between atoms: C_10  and  N_11 
REMARK    6  A    between atoms: N_11  and  C_12 
REMARK    7  A    between atoms: C_25  and  C_26 
ROOT
HETATM    1  N   UNL     1      41.809 -17.611   2.426  1.00  0.00    -0.306 N 
HETATM    2  C   UNL     1      42.075 -16.978   1.229  1.00  0.00     0.321 C 
HETATM    3  N   UNL     1      40.979 -16.298   0.770  1.00  0.00    -0.334 N 
HETATM    4  O   UNL     1      43.163 -16.926   0.667  1.00  0.00    -0.247 OA
HETATM    5  H   UNL     1      41.356 -16.978   3.068  1.00  0.00     0.171 HD
HETATM    6  H   UNL     1      40.088 -16.543   1.180  1.00  0.00     0.164 HD
ENDROOT
BRANCH   3   7
HETATM    7  C   UNL     1      41.066 -15.061   0.010  1.00  0.00     0.227 C 
BRANCH   7   8
HETATM    8  C   UNL     1      39.790 -14.372  -0.513  1.00  0.00     0.239 C 
HETATM    9  N   UNL     1      39.435 -14.745  -1.792  1.00  0.00    -0.326 N 
HETATM   10  H   UNL     1      39.938 -15.550  -2.175  1.00  0.00     0.169 HD
HETATM   11  O   UNL     1      39.285 -13.454   0.132  1.00  0.00    -0.271 OA
BRANCH   9  12
HETATM   12  C   UNL     1      38.554 -14.092  -2.675  1.00  0.00     0.037 A 
HETATM   13  C   UNL     1      37.510 -14.737  -3.349  1.00  0.00     0.061 A 
HETATM   14  C   UNL     1      36.679 -13.951  -4.116  1.00  0.00     0.065 A 
HETATM   15  C   UNL     1      36.856 -12.576  -4.243  1.00  0.00     0.063 A 
HETATM   16  N   UNL     1      35.556 -14.308  -4.857  1.00  0.00    -0.306 N 
HETATM   17  N   UNL     1      35.843 -12.088  -5.061  1.00  0.00    -0.307 N 
HETATM   18  C   UNL     1      37.877 -11.913  -3.614  1.00  0.00     0.034 A 
HETATM   19  C   UNL     1      35.020 -13.156  -5.448  1.00  0.00     0.325 A 
HETATM   20  H   UNL     1      35.686 -11.132  -5.335  1.00  0.00     0.170 HD
HETATM   21  O   UNL     1      34.031 -13.090  -6.155  1.00  0.00    -0.247 OA
HETATM   22  C   UNL     1      38.731 -12.689  -2.819  1.00  0.00     0.032 A 
HETATM   23  H   UNL     1      35.161 -15.229  -4.953  1.00  0.00     0.170 HD
ENDBRANCH   9  12
ENDBRANCH   7   8
ENDBRANCH   3   7
BRANCH   1  24
HETATM   24  C   UNL     1      42.798 -18.446   3.002  1.00  0.00     0.070 A 
HETATM   25  C   UNL     1      43.462 -18.079   4.187  1.00  0.00     0.095 A 
HETATM   26  C   UNL     1      44.432 -18.938   4.710  1.00  0.00     0.040 A 
HETATM   27  C   UNL     1      44.709 -20.159   4.084  1.00  0.00     0.019 A 
HETATM   28  C   UNL     1      44.042 -20.531   2.909  1.00  0.00     0.050 A 
HETATM   29  C   UNL     1      43.109 -19.646   2.351  1.00  0.00     0.048 A 
BRANCH  25  30
HETATM   30  O   UNL     1      43.146 -16.852   4.710  1.00  0.00    -0.349 OA
BRANCH  30  31
HETATM   31  C   UNL     1      43.517 -16.599   6.063  1.00  0.00     0.171 C 
HETATM   32  C   UNL     1      42.338 -16.969   6.946  1.00  0.00     0.034 C 
ENDBRANCH  30  31
ENDBRANCH  25  30
BRANCH  28  33
HETATM   33  C   UNL     1      44.308 -21.879   2.283  1.00  0.00     0.417 C 
HETATM   34  F   UNL     1      45.450 -21.916   1.541  1.00  0.00    -0.166 F 
HETATM   35  F   UNL     1      44.431 -22.869   3.208  1.00  0.00    -0.166 F 
HETATM   36  F   UNL     1      43.306 -22.268   1.447  1.00  0.00    -0.166 F 
ENDBRANCH  28  33
ENDBRANCH   1  24
TORSDOF 7
ENDMDL
MODEL 9
REMARK VINA RESULT:      -8.2      3.409      6.406
REMARK  7 active torsions:
REMARK  status: ('A' for Active; 'I' for Inactive)
REMARK    1  A    between atoms: C_2  and  O_3 
REMARK    2  A    between atoms: O_3  and  C_4 
REMARK    3  A    between atoms: C_5  and  N_6 
REMARK       I    between atoms: N_6  and  C_7 
REMARK       I    between atoms: C_7  and  N_8 
REMARK    4  A    between atoms: N_8  and  C_9 
REMARK    5  A    between atoms: C_9  and  C_10 
REMARK       I    between atoms: C_10  and  N_11 
REMARK    6  A    between atoms: N_11  and  C_12 
REMARK    7  A    between atoms: C_25  and  C_26 
ROOT
HETATM    1  N   UNL     1      41.436 -16.843   4.760  1.00  0.00    -0.306 N 
HETATM    2  C   UNL     1      41.339 -15.937   3.724  1.00  0.00     0.321 C 
HETATM    3  N   UNL     1      40.083 -15.398   3.647  1.00  0.00    -0.334 N 
HETATM    4  O   UNL     1      42.258 -15.561   3.005  1.00  0.00    -0.247 OA
HETATM    5  H   UNL     1      41.047 -16.455   5.607  1.00  0.00     0.171 HD
HETATM    6  H   UNL     1      39.348 -15.889   4.139  1.00  0.00     0.164 HD
ENDROOT
BRANCH   3   7
HETATM    7  C   UNL     1      39.820 -14.037   3.207  1.00  0.00     0.227 C 
BRANCH   7   8
HETATM    8  C   UNL     1      40.256 -12.837   4.070  1.00  0.00     0.239 C 
HETATM    9  N   UNL     1      40.333 -13.114   5.419  1.00  0.00    -0.326 N 
HETATM   10  H   UNL     1      40.270 -14.103   5.673  1.00  0.00     0.169 HD
HETATM   11  O   UNL     1      40.341 -11.720   3.562  1.00  0.00    -0.271 OA
BRANCH   9  12
HETATM   12  C   UNL     1      40.371 -12.203   6.493  1.00  0.00     0.037 A 
HETATM   13  C   UNL     1      39.325 -12.042   7.410  1.00  0.00     0.061 A 
HETATM   14  C   UNL     1      39.539 -11.172   8.456  1.00  0.00     0.065 A 
HETATM   15  C   UNL     1      40.728 -10.463   8.610  1.00  0.00     0.063 A 
HETATM   16  N   UNL     1      38.706 -10.844   9.521  1.00  0.00    -0.306 N 
HETATM   17  N   UNL     1      40.626  -9.701   9.768  1.00  0.00    -0.307 N 
HETATM   18  C   UNL     1      41.766 -10.582   7.722  1.00  0.00     0.034 A 
HETATM   19  C   UNL     1      39.371  -9.931  10.351  1.00  0.00     0.325 A 
HETATM   20  H   UNL     1      41.323  -9.089  10.161  1.00  0.00     0.170 HD
HETATM   21  O   UNL     1      38.948  -9.438  11.381  1.00  0.00    -0.247 OA
HETATM   22  C   UNL     1      41.576 -11.469   6.653  1.00  0.00     0.032 A 
HETATM   23  H   UNL     1      37.782 -11.202   9.701  1.00  0.00     0.170 HD
ENDBRANCH   9  12
ENDBRANCH   7   8
ENDBRANCH   3   7
BRANCH   1  24
HETATM   24  C   UNL     1      42.638 -17.574   4.929  1.00  0.00     0.070 A 
HETATM   25  C   UNL     1      43.522 -17.289   5.986  1.00  0.00     0.095 A 
HETATM   26  C   UNL     1      44.695 -18.039   6.105  1.00  0.00     0.040 A 
HETATM   27  C   UNL     1      44.964 -19.079   5.208  1.00  0.00     0.019 A 
HETATM   28  C   UNL     1      44.080 -19.372   4.160  1.00  0.00     0.050 A 
HETATM   29  C   UNL     1      42.930 -18.585   4.006  1.00  0.00     0.048 A 
BRANCH  25  30
HETATM   30  O   UNL     1      43.188 -16.233   6.794  1.00  0.00    -0.349 OA
BRANCH  30  31
HETATM   31  C   UNL     1      44.163 -15.208   6.973  1.00  0.00     0.171 C 
HETATM   32  C   UNL     1      43.975 -14.190   5.862  1.00  0.00     0.034 C 
ENDBRANCH  30  31
ENDBRANCH  25  30
BRANCH  28  33
HETATM   33  C   UNL     1      44.355 -20.537   3.242  1.00  0.00     0.417 C 
HETATM   34  F   UNL     1      44.430 -21.734   3.890  1.00  0.00    -0.166 F 
HETATM   35  F   UNL     1      43.396 -20.688   2.288  1.00  0.00    -0.166 F 
HETATM   36  F   UNL     1      45.532 -20.402   2.571  1.00  0.00    -0.166 F 
ENDBRANCH  28  33
ENDBRANCH   1  24
TORSDOF 7
ENDMDL
MODEL 10
REMARK VINA RESULT:      -8.1      1.987      2.625
REMARK  7 active torsions:
REMARK  status: ('A' for Active; 'I' for Inactive)
REMARK    1  A    between atoms: C_2  and  O_3 
REMARK    2  A    between atoms: O_3  and  C_4 
REMARK    3  A    between atoms: C_5  and  N_6 
REMARK       I    between atoms: N_6  and  C_7 
REMARK       I    between atoms: C_7  and  N_8 
REMARK    4  A    between atoms: N_8  and  C_9 
REMARK    5  A    between atoms: C_9  and  C_10 
REMARK       I    between atoms: C_10  and  N_11 
REMARK    6  A    between atoms: N_11  and  C_12 
REMARK    7  A    between atoms: C_25  and  C_26 
ROOT
HETATM    1  N   UNL     1      43.431 -16.974   3.731  1.00  0.00    -0.306 N 
HETATM    2  C   UNL     1      42.128 -16.653   4.054  1.00  0.00     0.321 C 
HETATM    3  N   UNL     1      41.894 -15.312   3.912  1.00  0.00    -0.334 N 
HETATM    4  O   UNL     1      41.240 -17.447   4.341  1.00  0.00    -0.247 OA
HETATM    5  H   UNL     1      43.692 -16.549   2.853  1.00  0.00     0.171 HD
HETATM    6  H   UNL     1      42.706 -14.712   3.861  1.00  0.00     0.164 HD
ENDROOT
BRANCH   3   7
HETATM    7  C   UNL     1      40.611 -14.762   3.504  1.00  0.00     0.227 C 
BRANCH   7   8
HETATM    8  C   UNL     1      40.006 -15.121   2.133  1.00  0.00     0.239 C 
HETATM    9  N   UNL     1      40.498 -14.367   1.088  1.00  0.00    -0.326 N 
HETATM   10  H   UNL     1      41.318 -13.794   1.301  1.00  0.00     0.169 HD
HETATM   11  O   UNL     1      39.050 -15.893   2.071  1.00  0.00    -0.271 OA
BRANCH   9  12
HETATM   12  C   UNL     1      39.948 -14.200  -0.198  1.00  0.00     0.037 A 
HETATM   13  C   UNL     1      38.806 -13.433  -0.460  1.00  0.00     0.061 A 
HETATM   14  C   UNL     1      38.434 -13.295  -1.779  1.00  0.00     0.065 A 
HETATM   15  C   UNL     1      39.137 -13.891  -2.822  1.00  0.00     0.063 A 
HETATM   16  N   UNL     1      37.380 -12.573  -2.332  1.00  0.00    -0.306 N 
HETATM   17  N   UNL     1      38.516 -13.538  -4.015  1.00  0.00    -0.307 N 
HETATM   18  C   UNL     1      40.248 -14.663  -2.603  1.00  0.00     0.034 A 
HETATM   19  C   UNL     1      37.420 -12.711  -3.726  1.00  0.00     0.325 A 
HETATM   20  H   UNL     1      38.790 -13.797  -4.948  1.00  0.00     0.170 HD
HETATM   21  O   UNL     1      36.659 -12.206  -4.531  1.00  0.00    -0.247 OA
HETATM   22  C   UNL     1      40.653 -14.812  -1.270  1.00  0.00     0.032 A 
HETATM   23  H   UNL     1      36.699 -12.020  -1.837  1.00  0.00     0.170 HD
ENDBRANCH   9  12
ENDBRANCH   7   8
ENDBRANCH   3   7
BRANCH   1  24
HETATM   24  C   UNL     1      43.882 -18.304   3.914  1.00  0.00     0.070 A 
HETATM   25  C   UNL     1      44.413 -18.731   5.145  1.00  0.00     0.095 A 
HETATM   26  C   UNL     1      44.846 -20.053   5.270  1.00  0.00     0.040 A 
HETATM   27  C   UNL     1      44.717 -20.946   4.200  1.00  0.00     0.019 A 
HETATM   28  C   UNL     1      44.178 -20.526   2.976  1.00  0.00     0.050 A 
HETATM   29  C   UNL     1      43.795 -19.185   2.830  1.00  0.00     0.048 A 
BRANCH  25  30
HETATM   30  O   UNL     1      44.528 -17.778   6.124  1.00  0.00    -0.349 OA
BRANCH  30  31
HETATM   31  C   UNL     1      43.581 -17.813   7.189  1.00  0.00     0.171 C 
HETATM   32  C   UNL     1      44.236 -18.506   8.371  1.00  0.00     0.034 C 
ENDBRANCH  30  31
ENDBRANCH  25  30
BRANCH  28  33
HETATM   33  C   UNL     1      43.988 -21.517   1.853  1.00  0.00     0.417 C 
HETATM   34  F   UNL     1      44.389 -21.046   0.639  1.00  0.00    -0.166 F 
HETATM   35  F   UNL     1      44.681 -22.671   2.054  1.00  0.00    -0.166 F 
HETATM   36  F   UNL     1      42.685 -21.882   1.700  1.00  0.00    -0.166 F 
ENDBRANCH  28  33
ENDBRANCH   1  24
TORSDOF 7
ENDMDL
