MODEL 1
REMARK VINA RESULT:      -9.0      0.000      0.000
REMARK  6 active torsions:
REMARK  status: ('A' for Active; 'I' for Inactive)
REMARK    1  A    between atoms: C_6  and  C_7 
REMARK    2  A    between atoms: N_9  and  C_10 
REMARK    3  A    between atoms: C_10  and  C_11 
REMARK    4  A    between atoms: C_18  and  C_19 
REMARK       I    between atoms: C_19  and  N_20 
REMARK    5  A    between atoms: N_20  and  C_21 
REMARK    6  A    between atoms: C_24  and  O_25 
ROOT
HETATM    1  C   UNL     1      43.741 -15.829   6.563  1.00  0.00     0.104 A 
HETATM    2  N   UNL     1      44.714 -15.164   7.210  1.00  0.00    -0.171 NA
HETATM    3  N   UNL     1      44.299 -13.884   7.230  1.00  0.00    -0.275 N 
HETATM    4  C   UNL     1      43.085 -13.703   6.640  1.00  0.00     0.132 A 
HETATM    5  C   UNL     1      42.709 -14.934   6.137  1.00  0.00     0.080 A 
ENDROOT
BRANCH   5   6
HETATM    6  C   UNL     1      41.509 -15.168   5.355  1.00  0.00     0.255 C 
HETATM    7  N   UNL     1      41.727 -15.271   3.999  1.00  0.00    -0.352 N 
HETATM    8  H   UNL     1      42.667 -15.117   3.658  1.00  0.00     0.163 HD
HETATM    9  O   UNL     1      40.395 -15.226   5.865  1.00  0.00    -0.268 OA
BRANCH   7  10
HETATM   10  C   UNL     1      40.662 -15.531   3.042  1.00  0.00     0.084 C 
HETATM   11  C   UNL     1      40.699 -14.556   1.857  1.00  0.00     0.028 C 
HETATM   12  C   UNL     1      41.891 -14.800   0.931  1.00  0.00     0.034 C 
HETATM   13  C   UNL     1      41.990 -16.252   0.464  1.00  0.00     0.118 C 
HETATM   14  C   UNL     1      41.916 -17.244   1.624  1.00  0.00     0.034 C 
HETATM   15  C   UNL     1      40.726 -16.985   2.553  1.00  0.00     0.028 C 
BRANCH  13  16
HETATM   16  O   UNL     1      40.962 -16.538  -0.481  1.00  0.00    -0.396 OA
HETATM   17  H   UNL     1      41.366 -16.829  -1.315  1.00  0.00     0.210 HD
ENDBRANCH  13  16
ENDBRANCH   7  10
ENDBRANCH   5   6
BRANCH   1  18
HETATM   18  C   UNL     1      43.843 -17.279   6.379  1.00  0.00    -0.004 A 
HETATM   19  C   UNL     1      44.018 -17.839   5.106  1.00  0.00     0.021 A 
HETATM   20  C   UNL     1      44.164 -19.227   4.931  1.00  0.00    -0.055 A 
HETATM   21  C   UNL     1      44.081 -20.075   6.053  1.00  0.00    -0.056 A 
HETATM   22  C   UNL     1      44.363 -19.772   3.544  1.00  0.00     0.049 C 
HETATM   23  C   UNL     1      44.216 -21.568   5.924  1.00  0.00     0.049 C 
HETATM   24  C   UNL     1      43.890 -19.513   7.324  1.00  0.00     0.008 A 
HETATM   25  C   UNL     1      43.771 -18.131   7.484  1.00  0.00     0.014 A 
ENDBRANCH   1  18
BRANCH   3  26
HETATM   26  C   UNL     1      45.133 -12.858   7.845  1.00  0.00     0.189 C 
BRANCH  26  27
HETATM   27  C   UNL     1      44.468 -12.237   9.051  1.00  0.00    -0.038 A 
HETATM   28  C   UNL     1      44.741 -12.717  10.340  1.00  0.00     0.009 A 
HETATM   29  C   UNL     1      44.139 -12.130  11.456  1.00  0.00     0.001 A 
HETATM   30  C   UNL     1      43.264 -11.058  11.298  1.00  0.00     0.000 A 
HETATM   31  C   UNL     1      42.993 -10.565  10.024  1.00  0.00     0.001 A 
HETATM   32  C   UNL     1      43.595 -11.145   8.908  1.00  0.00     0.009 A 
ENDBRANCH  26  27
ENDBRANCH   3  26
TORSDOF 6
ENDMDL
MODEL 2
REMARK VINA RESULT:      -8.6      2.636      8.372
REMARK  6 active torsions:
REMARK  status: ('A' for Active; 'I' for Inactive)
REMARK    1  A    between atoms: C_6  and  C_7 
REMARK    2  A    between atoms: N_9  and  C_10 
REMARK    3  A    between atoms: C_10  and  C_11 
REMARK    4  A    between atoms: C_18  and  C_19 
REMARK       I    between atoms: C_19  and  N_20 
REMARK    5  A    between atoms: N_20  and  C_21 
REMARK    6  A    between atoms: C_24  and  O_25 
ROOT
HETATM    1  C   UNL     1      42.976 -14.825   5.875  1.00  0.00     0.104 A 
HETATM    2  N   UNL     1      42.583 -16.089   5.639  1.00  0.00    -0.171 NA
HETATM    3  N   UNL     1      43.294 -16.836   6.503  1.00  0.00    -0.275 N 
HETATM    4  C   UNL     1      44.114 -16.100   7.302  1.00  0.00     0.132 A 
HETATM    5  C   UNL     1      43.985 -14.787   6.889  1.00  0.00     0.080 A 
ENDROOT
BRANCH   5   6
HETATM    6  C   UNL     1      44.754 -13.679   7.426  1.00  0.00     0.255 C 
HETATM    7  N   UNL     1      44.093 -12.946   8.387  1.00  0.00    -0.352 N 
HETATM    8  H   UNL     1      43.133 -13.189   8.591  1.00  0.00     0.163 HD
HETATM    9  O   UNL     1      45.879 -13.404   7.023  1.00  0.00    -0.268 OA
BRANCH   7  10
HETATM   10  C   UNL     1      44.695 -11.812   9.072  1.00  0.00     0.084 C 
HETATM   11  C   UNL     1      43.694 -10.669   9.287  1.00  0.00     0.028 C 
HETATM   12  C   UNL     1      42.626 -11.011  10.327  1.00  0.00     0.034 C 
HETATM   13  C   UNL     1      43.221 -11.491  11.650  1.00  0.00     0.118 C 
HETATM   14  C   UNL     1      44.251 -12.603  11.458  1.00  0.00     0.034 C 
HETATM   15  C   UNL     1      45.310 -12.257  10.406  1.00  0.00     0.028 C 
BRANCH  13  16
HETATM   16  O   UNL     1      43.814 -10.399  12.350  1.00  0.00    -0.396 OA
HETATM   17  H   UNL     1      44.755 -10.345  12.121  1.00  0.00     0.210 HD
ENDBRANCH  13  16
ENDBRANCH   7  10
ENDBRANCH   5   6
BRANCH   1  18
HETATM   18  C   UNL     1      42.377 -13.719   5.124  1.00  0.00    -0.004 A 
HETATM   19  C   UNL     1      42.495 -13.639   3.730  1.00  0.00     0.021 A 
HETATM   20  C   UNL     1      41.881 -12.605   3.001  1.00  0.00    -0.055 A 
HETATM   21  C   UNL     1      41.175 -11.601   3.692  1.00  0.00    -0.056 A 
HETATM   22  C   UNL     1      42.029 -12.577   1.504  1.00  0.00     0.049 C 
HETATM   23  C   UNL     1      40.510 -10.464   2.966  1.00  0.00     0.049 C 
HETATM   24  C   UNL     1      41.072 -11.674   5.088  1.00  0.00     0.008 A 
HETATM   25  C   UNL     1      41.667 -12.720   5.796  1.00  0.00     0.014 A 
ENDBRANCH   1  18
BRANCH   3  26
HETATM   26  C   UNL     1      43.137 -18.286   6.512  1.00  0.00     0.189 C 
BRANCH  26  27
HETATM   27  C   UNL     1      43.627 -18.915   5.229  1.00  0.00    -0.038 A 
HETATM   28  C   UNL     1      44.661 -19.862   5.250  1.00  0.00     0.009 A 
HETATM   29  C   UNL     1      45.102 -20.458   4.065  1.00  0.00     0.001 A 
HETATM   30  C   UNL     1      44.513 -20.118   2.849  1.00  0.00     0.000 A 
HETATM   31  C   UNL     1      43.477 -19.187   2.815  1.00  0.00     0.001 A 
HETATM   32  C   UNL     1      43.032 -18.594   3.997  1.00  0.00     0.009 A 
ENDBRANCH  26  27
ENDBRANCH   3  26
TORSDOF 6
ENDMDL
MODEL 3
REMARK VINA RESULT:      -8.6      2.893      8.087
REMARK  6 active torsions:
REMARK  status: ('A' for Active; 'I' for Inactive)
REMARK    1  A    between atoms: C_6  and  C_7 
REMARK    2  A    between atoms: N_9  and  C_10 
REMARK    3  A    between atoms: C_10  and  C_11 
REMARK    4  A    between atoms: C_18  and  C_19 
REMARK       I    between atoms: C_19  and  N_20 
REMARK    5  A    between atoms: N_20  and  C_21 
REMARK    6  A    between atoms: C_24  and  O_25 
ROOT
HETATM    1  C   UNL     1      42.191 -16.255   1.328  1.00  0.00     0.104 A 
HETATM    2  N   UNL     1      42.324 -16.066   0.004  1.00  0.00    -0.171 NA
HETATM    3  N   UNL     1      41.674 -14.914  -0.245  1.00  0.00    -0.275 N 
HETATM    4  C   UNL     1      41.147 -14.342   0.873  1.00  0.00     0.132 A 
HETATM    5  C   UNL     1      41.407 -15.211   1.915  1.00  0.00     0.080 A 
ENDROOT
BRANCH   5   6
HETATM    6  C   UNL     1      40.942 -15.021   3.277  1.00  0.00     0.255 C 
HETATM    7  N   UNL     1      41.944 -15.010   4.221  1.00  0.00    -0.352 N 
HETATM    8  H   UNL     1      42.889 -15.193   3.911  1.00  0.00     0.163 HD
HETATM    9  O   UNL     1      39.752 -14.921   3.556  1.00  0.00    -0.268 OA
BRANCH   7  10
HETATM   10  C   UNL     1      41.694 -14.805   5.640  1.00  0.00     0.084 C 
HETATM   11  C   UNL     1      41.281 -16.104   6.347  1.00  0.00     0.028 C 
HETATM   12  C   UNL     1      42.436 -17.099   6.469  1.00  0.00     0.034 C 
HETATM   13  C   UNL     1      43.681 -16.486   7.107  1.00  0.00     0.118 C 
HETATM   14  C   UNL     1      44.089 -15.171   6.445  1.00  0.00     0.034 C 
HETATM   15  C   UNL     1      42.925 -14.184   6.317  1.00  0.00     0.028 C 
BRANCH  13  16
HETATM   16  O   UNL     1      43.471 -16.280   8.502  1.00  0.00    -0.396 OA
HETATM   17  H   UNL     1      43.825 -17.037   8.995  1.00  0.00     0.210 HD
ENDBRANCH  13  16
ENDBRANCH   7  10
ENDBRANCH   5   6
BRANCH   1  18
HETATM   18  C   UNL     1      42.811 -17.418   1.968  1.00  0.00    -0.004 A 
HETATM   19  C   UNL     1      42.539 -18.720   1.529  1.00  0.00     0.021 A 
HETATM   20  C   UNL     1      43.170 -19.835   2.110  1.00  0.00    -0.055 A 
HETATM   21  C   UNL     1      44.054 -19.642   3.189  1.00  0.00    -0.056 A 
HETATM   22  C   UNL     1      42.849 -21.210   1.588  1.00  0.00     0.049 C 
HETATM   23  C   UNL     1      44.746 -20.798   3.857  1.00  0.00     0.049 C 
HETATM   24  C   UNL     1      44.313 -18.339   3.637  1.00  0.00     0.008 A 
HETATM   25  C   UNL     1      43.698 -17.240   3.035  1.00  0.00     0.014 A 
ENDBRANCH   1  18
BRANCH   3  26
HETATM   26  C   UNL     1      41.593 -14.404  -1.609  1.00  0.00     0.189 C 
BRANCH  26  27
HETATM   27  C   UNL     1      40.309 -14.816  -2.291  1.00  0.00    -0.038 A 
HETATM   28  C   UNL     1      39.114 -14.131  -2.031  1.00  0.00     0.009 A 
HETATM   29  C   UNL     1      37.930 -14.500  -2.675  1.00  0.00     0.001 A 
HETATM   30  C   UNL     1      37.929 -15.553  -3.588  1.00  0.00     0.000 A 
HETATM   31  C   UNL     1      39.112 -16.236  -3.863  1.00  0.00     0.001 A 
HETATM   32  C   UNL     1      40.296 -15.866  -3.225  1.00  0.00     0.009 A 
ENDBRANCH  26  27
ENDBRANCH   3  26
TORSDOF 6
ENDMDL
MODEL 4
REMARK VINA RESULT:      -8.4      2.924      7.605
REMARK  6 active torsions:
REMARK  status: ('A' for Active; 'I' for Inactive)
REMARK    1  A    between atoms: C_6  and  C_7 
REMARK    2  A    between atoms: N_9  and  C_10 
REMARK    3  A    between atoms: C_10  and  C_11 
REMARK    4  A    between atoms: C_18  and  C_19 
REMARK       I    between atoms: C_19  and  N_20 
REMARK    5  A    between atoms: N_20  and  C_21 
REMARK    6  A    between atoms: C_24  and  O_25 
ROOT
HETATM    1  C   UNL     1      41.926 -16.581   1.318  1.00  0.00     0.104 A 
HETATM    2  N   UNL     1      41.914 -16.580  -0.026  1.00  0.00    -0.171 NA
HETATM    3  N   UNL     1      41.156 -15.519  -0.361  1.00  0.00    -0.275 N 
HETATM    4  C   UNL     1      40.699 -14.823   0.716  1.00  0.00     0.132 A 
HETATM    5  C   UNL     1      41.126 -15.513   1.835  1.00  0.00     0.080 A 
ENDROOT
BRANCH   5   6
HETATM    6  C   UNL     1      40.783 -15.155   3.200  1.00  0.00     0.255 C 
HETATM    7  N   UNL     1      41.844 -14.693   3.947  1.00  0.00    -0.352 N 
HETATM    8  H   UNL     1      42.762 -14.700   3.521  1.00  0.00     0.163 HD
HETATM    9  O   UNL     1      39.651 -15.293   3.650  1.00  0.00    -0.268 OA
BRANCH   7  10
HETATM   10  C   UNL     1      41.709 -14.256   5.328  1.00  0.00     0.084 C 
HETATM   11  C   UNL     1      41.599 -15.438   6.301  1.00  0.00     0.028 C 
HETATM   12  C   UNL     1      42.913 -16.208   6.441  1.00  0.00     0.034 C 
HETATM   13  C   UNL     1      44.094 -15.304   6.791  1.00  0.00     0.118 C 
HETATM   14  C   UNL     1      44.202 -14.098   5.860  1.00  0.00     0.034 C 
HETATM   15  C   UNL     1      42.878 -13.339   5.716  1.00  0.00     0.028 C 
BRANCH  13  16
HETATM   16  O   UNL     1      43.996 -14.864   8.143  1.00  0.00    -0.396 OA
HETATM   17  H   UNL     1      43.257 -15.320   8.576  1.00  0.00     0.210 HD
ENDBRANCH  13  16
ENDBRANCH   7  10
ENDBRANCH   5   6
BRANCH   1  18
HETATM   18  C   UNL     1      42.693 -17.598   2.043  1.00  0.00    -0.004 A 
HETATM   19  C   UNL     1      42.711 -18.933   1.620  1.00  0.00     0.021 A 
HETATM   20  C   UNL     1      43.485 -19.902   2.285  1.00  0.00    -0.055 A 
HETATM   21  C   UNL     1      44.215 -19.532   3.431  1.00  0.00    -0.056 A 
HETATM   22  C   UNL     1      43.477 -21.318   1.778  1.00  0.00     0.049 C 
HETATM   23  C   UNL     1      45.048 -20.527   4.190  1.00  0.00     0.049 C 
HETATM   24  C   UNL     1      44.183 -18.197   3.862  1.00  0.00     0.008 A 
HETATM   25  C   UNL     1      43.429 -17.242   3.177  1.00  0.00     0.014 A 
ENDBRANCH   1  18
BRANCH   3  26
HETATM   26  C   UNL     1      40.903 -15.220  -1.766  1.00  0.00     0.189 C 
BRANCH  26  27
HETATM   27  C   UNL     1      41.507 -13.899  -2.179  1.00  0.00    -0.038 A 
HETATM   28  C   UNL     1      41.255 -13.370  -3.453  1.00  0.00     0.009 A 
HETATM   29  C   UNL     1      41.799 -12.139  -3.830  1.00  0.00     0.001 A 
HETATM   30  C   UNL     1      42.595 -11.422  -2.939  1.00  0.00     0.000 A 
HETATM   31  C   UNL     1      42.845 -11.932  -1.666  1.00  0.00     0.001 A 
HETATM   32  C   UNL     1      42.300 -13.158  -1.286  1.00  0.00     0.009 A 
ENDBRANCH  26  27
ENDBRANCH   3  26
TORSDOF 6
ENDMDL
MODEL 5
REMARK VINA RESULT:      -8.3      3.521      7.994
REMARK  6 active torsions:
REMARK  status: ('A' for Active; 'I' for Inactive)
REMARK    1  A    between atoms: C_6  and  C_7 
REMARK    2  A    between atoms: N_9  and  C_10 
REMARK    3  A    between atoms: C_10  and  C_11 
REMARK    4  A    between atoms: C_18  and  C_19 
REMARK       I    between atoms: C_19  and  N_20 
REMARK    5  A    between atoms: N_20  and  C_21 
REMARK    6  A    between atoms: C_24  and  O_25 
ROOT
HETATM    1  C   UNL     1      42.180 -15.923   1.073  1.00  0.00     0.104 A 
HETATM    2  N   UNL     1      41.636 -16.206  -0.124  1.00  0.00    -0.171 NA
HETATM    3  N   UNL     1      41.223 -15.017  -0.601  1.00  0.00    -0.275 N 
HETATM    4  C   UNL     1      41.501 -13.977   0.232  1.00  0.00     0.132 A 
HETATM    5  C   UNL     1      42.071 -14.526   1.365  1.00  0.00     0.080 A 
ENDROOT
BRANCH   5   6
HETATM    6  C   UNL     1      42.444 -13.768   2.545  1.00  0.00     0.255 C 
HETATM    7  N   UNL     1      41.396 -13.105   3.145  1.00  0.00    -0.352 N 
HETATM    8  H   UNL     1      40.491 -13.143   2.695  1.00  0.00     0.163 HD
HETATM    9  O   UNL     1      43.602 -13.699   2.943  1.00  0.00    -0.268 OA
BRANCH   7  10
HETATM   10  C   UNL     1      41.550 -12.310   4.355  1.00  0.00     0.084 C 
HETATM   11  C   UNL     1      40.495 -11.201   4.456  1.00  0.00     0.028 C 
HETATM   12  C   UNL     1      39.092 -11.746   4.728  1.00  0.00     0.034 C 
HETATM   13  C   UNL     1      39.044 -12.676   5.940  1.00  0.00     0.118 C 
HETATM   14  C   UNL     1      40.112 -13.767   5.881  1.00  0.00     0.034 C 
HETATM   15  C   UNL     1      41.512 -13.213   5.596  1.00  0.00     0.028 C 
BRANCH  13  16
HETATM   16  O   UNL     1      39.185 -11.926   7.144  1.00  0.00    -0.396 OA
HETATM   17  H   UNL     1      38.994 -12.500   7.903  1.00  0.00     0.210 HD
ENDBRANCH  13  16
ENDBRANCH   7  10
ENDBRANCH   5   6
BRANCH   1  18
HETATM   18  C   UNL     1      42.771 -16.994   1.880  1.00  0.00    -0.004 A 
HETATM   19  C   UNL     1      42.433 -17.158   3.230  1.00  0.00     0.021 A 
HETATM   20  C   UNL     1      42.961 -18.214   3.994  1.00  0.00    -0.055 A 
HETATM   21  C   UNL     1      43.890 -19.093   3.404  1.00  0.00    -0.056 A 
HETATM   22  C   UNL     1      42.552 -18.350   5.435  1.00  0.00     0.049 C 
HETATM   23  C   UNL     1      44.499 -20.231   4.177  1.00  0.00     0.049 C 
HETATM   24  C   UNL     1      44.239 -18.918   2.057  1.00  0.00     0.008 A 
HETATM   25  C   UNL     1      43.688 -17.879   1.304  1.00  0.00     0.014 A 
ENDBRANCH   1  18
BRANCH   3  26
HETATM   26  C   UNL     1      40.554 -14.945  -1.895  1.00  0.00     0.189 C 
BRANCH  26  27
HETATM   27  C   UNL     1      40.774 -13.613  -2.572  1.00  0.00    -0.038 A 
HETATM   28  C   UNL     1      42.043 -13.262  -3.055  1.00  0.00     0.009 A 
HETATM   29  C   UNL     1      42.243 -12.037  -3.697  1.00  0.00     0.001 A 
HETATM   30  C   UNL     1      41.179 -11.154  -3.868  1.00  0.00     0.000 A 
HETATM   31  C   UNL     1      39.911 -11.495  -3.402  1.00  0.00     0.001 A 
HETATM   32  C   UNL     1      39.707 -12.719  -2.765  1.00  0.00     0.009 A 
ENDBRANCH  26  27
ENDBRANCH   3  26
TORSDOF 6
ENDMDL
MODEL 6
REMARK VINA RESULT:      -8.2      3.383      8.246
REMARK  6 active torsions:
REMARK  status: ('A' for Active; 'I' for Inactive)
REMARK    1  A    between atoms: C_6  and  C_7 
REMARK    2  A    between atoms: N_9  and  C_10 
REMARK    3  A    between atoms: C_10  and  C_11 
REMARK    4  A    between atoms: C_18  and  C_19 
REMARK       I    between atoms: C_19  and  N_20 
REMARK    5  A    between atoms: N_20  and  C_21 
REMARK    6  A    between atoms: C_24  and  O_25 
ROOT
HETATM    1  C   UNL     1      41.476 -15.984   0.413  1.00  0.00     0.104 A 
HETATM    2  N   UNL     1      41.818 -16.008  -0.888  1.00  0.00    -0.171 NA
HETATM    3  N   UNL     1      41.015 -15.099  -1.470  1.00  0.00    -0.275 N 
HETATM    4  C   UNL     1      40.186 -14.472  -0.591  1.00  0.00     0.132 A 
HETATM    5  C   UNL     1      40.408 -15.059   0.640  1.00  0.00     0.080 A 
ENDROOT
BRANCH   5   6
HETATM    6  C   UNL     1      39.665 -14.741   1.846  1.00  0.00     0.255 C 
HETATM    7  N   UNL     1      40.334 -13.915   2.722  1.00  0.00    -0.352 N 
HETATM    8  H   UNL     1      41.285 -13.656   2.495  1.00  0.00     0.163 HD
HETATM    9  O   UNL     1      38.553 -15.205   2.074  1.00  0.00    -0.268 OA
BRANCH   7  10
HETATM   10  C   UNL     1      39.757 -13.455   3.976  1.00  0.00     0.084 C 
HETATM   11  C   UNL     1      40.146 -14.354   5.157  1.00  0.00     0.028 C 
HETATM   12  C   UNL     1      41.623 -14.223   5.534  1.00  0.00     0.034 C 
HETATM   13  C   UNL     1      42.046 -12.775   5.771  1.00  0.00     0.118 C 
HETATM   14  C   UNL     1      41.635 -11.851   4.625  1.00  0.00     0.034 C 
HETATM   15  C   UNL     1      40.157 -11.997   4.246  1.00  0.00     0.028 C 
BRANCH  13  16
HETATM   16  O   UNL     1      41.501 -12.295   6.997  1.00  0.00    -0.396 OA
HETATM   17  H   UNL     1      42.216 -11.936   7.547  1.00  0.00     0.210 HD
ENDBRANCH  13  16
ENDBRANCH   7  10
ENDBRANCH   5   6
BRANCH   1  18
HETATM   18  C   UNL     1      42.177 -16.841   1.371  1.00  0.00    -0.004 A 
HETATM   19  C   UNL     1      41.689 -17.030   2.671  1.00  0.00     0.021 A 
HETATM   20  C   UNL     1      42.334 -17.891   3.577  1.00  0.00    -0.055 A 
HETATM   21  C   UNL     1      43.524 -18.536   3.187  1.00  0.00    -0.056 A 
HETATM   22  C   UNL     1      41.757 -18.066   4.955  1.00  0.00     0.049 C 
HETATM   23  C   UNL     1      44.264 -19.455   4.119  1.00  0.00     0.049 C 
HETATM   24  C   UNL     1      44.020 -18.333   1.891  1.00  0.00     0.008 A 
HETATM   25  C   UNL     1      43.355 -17.494   0.994  1.00  0.00     0.014 A 
ENDBRANCH   1  18
BRANCH   3  26
HETATM   26  C   UNL     1      41.097 -14.872  -2.908  1.00  0.00     0.189 C 
BRANCH  26  27
HETATM   27  C   UNL     1      41.295 -13.411  -3.240  1.00  0.00    -0.038 A 
HETATM   28  C   UNL     1      40.252 -12.662  -3.805  1.00  0.00     0.009 A 
HETATM   29  C   UNL     1      40.429 -11.307  -4.094  1.00  0.00     0.001 A 
HETATM   30  C   UNL     1      41.644 -10.684  -3.820  1.00  0.00     0.000 A 
HETATM   31  C   UNL     1      42.685 -11.414  -3.249  1.00  0.00     0.001 A 
HETATM   32  C   UNL     1      42.510 -12.766  -2.954  1.00  0.00     0.009 A 
ENDBRANCH  26  27
ENDBRANCH   3  26
TORSDOF 6
ENDMDL
MODEL 7
REMARK VINA RESULT:      -8.0      3.748      8.725
REMARK  6 active torsions:
REMARK  status: ('A' for Active; 'I' for Inactive)
REMARK    1  A    between atoms: C_6  and  C_7 
REMARK    2  A    between atoms: N_9  and  C_10 
REMARK    3  A    between atoms: C_10  and  C_11 
REMARK    4  A    between atoms: C_18  and  C_19 
REMARK       I    between atoms: C_19  and  N_20 
REMARK    5  A    between atoms: N_20  and  C_21 
REMARK    6  A    between atoms: C_24  and  O_25 
ROOT
HETATM    1  C   UNL     1      41.741 -15.674   0.241  1.00  0.00     0.104 A 
HETATM    2  N   UNL     1      41.345 -16.281  -0.891  1.00  0.00    -0.171 NA
HETATM    3  N   UNL     1      40.985 -15.275  -1.710  1.00  0.00    -0.275 N 
HETATM    4  C   UNL     1      41.156 -14.043  -1.157  1.00  0.00     0.132 A 
HETATM    5  C   UNL     1      41.591 -14.255   0.138  1.00  0.00     0.080 A 
ENDROOT
BRANCH   5   6
HETATM    6  C   UNL     1      41.817 -13.200   1.109  1.00  0.00     0.255 C 
HETATM    7  N   UNL     1      40.962 -13.233   2.189  1.00  0.00    -0.352 N 
HETATM    8  H   UNL     1      40.227 -13.928   2.190  1.00  0.00     0.163 HD
HETATM    9  O   UNL     1      42.671 -12.335   0.952  1.00  0.00    -0.268 OA
BRANCH   7  10
HETATM   10  C   UNL     1      41.037 -12.282   3.288  1.00  0.00     0.084 C 
HETATM   11  C   UNL     1      39.697 -12.141   4.023  1.00  0.00     0.028 C 
HETATM   12  C   UNL     1      39.337 -13.387   4.834  1.00  0.00     0.034 C 
HETATM   13  C   UNL     1      40.453 -13.817   5.785  1.00  0.00     0.118 C 
HETATM   14  C   UNL     1      41.807 -13.927   5.084  1.00  0.00     0.034 C 
HETATM   15  C   UNL     1      42.154 -12.680   4.264  1.00  0.00     0.028 C 
BRANCH  13  16
HETATM   16  O   UNL     1      40.548 -12.909   6.879  1.00  0.00    -0.396 OA
HETATM   17  H   UNL     1      40.981 -13.351   7.626  1.00  0.00     0.210 HD
ENDBRANCH  13  16
ENDBRANCH   7  10
ENDBRANCH   5   6
BRANCH   1  18
HETATM   18  C   UNL     1      42.238 -16.473   1.364  1.00  0.00    -0.004 A 
HETATM   19  C   UNL     1      41.496 -16.608   2.545  1.00  0.00     0.021 A 
HETATM   20  C   UNL     1      41.947 -17.413   3.606  1.00  0.00    -0.055 A 
HETATM   21  C   UNL     1      43.197 -18.055   3.500  1.00  0.00    -0.056 A 
HETATM   22  C   UNL     1      41.102 -17.533   4.844  1.00  0.00     0.049 C 
HETATM   23  C   UNL     1      43.737 -18.916   4.609  1.00  0.00     0.049 C 
HETATM   24  C   UNL     1      43.946 -17.905   2.324  1.00  0.00     0.008 A 
HETATM   25  C   UNL     1      43.473 -17.122   1.269  1.00  0.00     0.014 A 
ENDBRANCH   1  18
BRANCH   3  26
HETATM   26  C   UNL     1      40.473 -15.570  -3.044  1.00  0.00     0.189 C 
BRANCH  26  27
HETATM   27  C   UNL     1      39.228 -14.776  -3.359  1.00  0.00    -0.038 A 
HETATM   28  C   UNL     1      38.014 -15.429  -3.616  1.00  0.00     0.009 A 
HETATM   29  C   UNL     1      36.857 -14.694  -3.890  1.00  0.00     0.001 A 
HETATM   30  C   UNL     1      36.900 -13.302  -3.907  1.00  0.00     0.000 A 
HETATM   31  C   UNL     1      38.097 -12.640  -3.644  1.00  0.00     0.001 A 
HETATM   32  C   UNL     1      39.252 -13.371  -3.365  1.00  0.00     0.009 A 
ENDBRANCH  26  27
ENDBRANCH   3  26
TORSDOF 6
ENDMDL
MODEL 8
REMARK VINA RESULT:      -8.0      3.207      8.980
REMARK  6 active torsions:
REMARK  status: ('A' for Active; 'I' for Inactive)
REMARK    1  A    between atoms: C_6  and  C_7 
REMARK    2  A    between atoms: N_9  and  C_10 
REMARK    3  A    between atoms: C_10  and  C_11 
REMARK    4  A    between atoms: C_18  and  C_19 
REMARK       I    between atoms: C_19  and  N_20 
REMARK    5  A    between atoms: N_20  and  C_21 
REMARK    6  A    between atoms: C_24  and  O_25 
ROOT
HETATM    1  C   UNL     1      41.535 -14.495   1.352  1.00  0.00     0.104 A 
HETATM    2  N   UNL     1      41.472 -13.750   0.235  1.00  0.00    -0.171 NA
HETATM    3  N   UNL     1      41.421 -14.644  -0.770  1.00  0.00    -0.275 N 
HETATM    4  C   UNL     1      41.425 -15.936  -0.342  1.00  0.00     0.132 A 
HETATM    5  C   UNL     1      41.560 -15.890   1.033  1.00  0.00     0.080 A 
ENDROOT
BRANCH   5   6
HETATM    6  C   UNL     1      41.692 -17.059   1.883  1.00  0.00     0.255 C 
HETATM    7  N   UNL     1      42.113 -16.782   3.165  1.00  0.00    -0.352 N 
HETATM    8  H   UNL     1      42.351 -15.825   3.389  1.00  0.00     0.163 HD
HETATM    9  O   UNL     1      41.483 -18.196   1.473  1.00  0.00    -0.268 OA
BRANCH   7  10
HETATM   10  C   UNL     1      42.283 -17.808   4.182  1.00  0.00     0.084 C 
HETATM   11  C   UNL     1      43.635 -17.693   4.900  1.00  0.00     0.028 C 
HETATM   12  C   UNL     1      43.715 -16.466   5.809  1.00  0.00     0.034 C 
HETATM   13  C   UNL     1      42.550 -16.383   6.795  1.00  0.00     0.118 C 
HETATM   14  C   UNL     1      41.193 -16.535   6.109  1.00  0.00     0.034 C 
HETATM   15  C   UNL     1      41.126 -17.760   5.190  1.00  0.00     0.028 C 
BRANCH  13  16
HETATM   16  O   UNL     1      42.691 -17.373   7.811  1.00  0.00    -0.396 OA
HETATM   17  H   UNL     1      43.222 -18.110   7.469  1.00  0.00     0.210 HD
ENDBRANCH  13  16
ENDBRANCH   7  10
ENDBRANCH   5   6
BRANCH   1  18
HETATM   18  C   UNL     1      41.573 -13.846   2.664  1.00  0.00    -0.004 A 
HETATM   19  C   UNL     1      40.395 -13.460   3.319  1.00  0.00     0.021 A 
HETATM   20  C   UNL     1      40.426 -12.880   4.600  1.00  0.00    -0.055 A 
HETATM   21  C   UNL     1      41.669 -12.634   5.215  1.00  0.00    -0.056 A 
HETATM   22  C   UNL     1      39.130 -12.499   5.261  1.00  0.00     0.049 C 
HETATM   23  C   UNL     1      41.763 -12.004   6.577  1.00  0.00     0.049 C 
HETATM   24  C   UNL     1      42.847 -13.006   4.551  1.00  0.00     0.008 A 
HETATM   25  C   UNL     1      42.800 -13.603   3.290  1.00  0.00     0.014 A 
ENDBRANCH   1  18
BRANCH   3  26
HETATM   26  C   UNL     1      41.366 -14.182  -2.153  1.00  0.00     0.189 C 
BRANCH  26  27
HETATM   27  C   UNL     1      40.046 -14.514  -2.808  1.00  0.00    -0.038 A 
HETATM   28  C   UNL     1      39.924 -15.646  -3.627  1.00  0.00     0.009 A 
HETATM   29  C   UNL     1      38.698 -15.963  -4.219  1.00  0.00     0.001 A 
HETATM   30  C   UNL     1      37.584 -15.158  -3.996  1.00  0.00     0.000 A 
HETATM   31  C   UNL     1      37.689 -14.036  -3.176  1.00  0.00     0.001 A 
HETATM   32  C   UNL     1      38.910 -13.720  -2.580  1.00  0.00     0.009 A 
ENDBRANCH  26  27
ENDBRANCH   3  26
TORSDOF 6
ENDMDL
MODEL 9
REMARK VINA RESULT:      -7.9      3.443      7.921
REMARK  6 active torsions:
REMARK  status: ('A' for Active; 'I' for Inactive)
REMARK    1  A    between atoms: C_6  and  C_7 
REMARK    2  A    between atoms: N_9  and  C_10 
REMARK    3  A    between atoms: C_10  and  C_11 
REMARK    4  A    between atoms: C_18  and  C_19 
REMARK       I    between atoms: C_19  and  N_20 
REMARK    5  A    between atoms: N_20  and  C_21 
REMARK    6  A    between atoms: C_24  and  O_25 
ROOT
HETATM    1  C   UNL     1      42.160 -15.789   1.400  1.00  0.00     0.104 A 
HETATM    2  N   UNL     1      42.401 -17.064   1.047  1.00  0.00    -0.171 NA
HETATM    3  N   UNL     1      43.306 -17.501   1.941  1.00  0.00    -0.275 N 
HETATM    4  C   UNL     1      43.640 -16.565   2.872  1.00  0.00     0.132 A 
HETATM    5  C   UNL     1      42.962 -15.412   2.524  1.00  0.00     0.080 A 
ENDROOT
BRANCH   5   6
HETATM    6  C   UNL     1      43.102 -14.140   3.210  1.00  0.00     0.255 C 
HETATM    7  N   UNL     1      41.909 -13.574   3.602  1.00  0.00    -0.352 N 
HETATM    8  H   UNL     1      41.053 -14.042   3.333  1.00  0.00     0.163 HD
HETATM    9  O   UNL     1      44.191 -13.605   3.385  1.00  0.00    -0.268 OA
BRANCH   7  10
HETATM   10  C   UNL     1      41.829 -12.316   4.327  1.00  0.00     0.084 C 
HETATM   11  C   UNL     1      40.876 -11.319   3.653  1.00  0.00     0.028 C 
HETATM   12  C   UNL     1      39.409 -11.735   3.772  1.00  0.00     0.034 C 
HETATM   13  C   UNL     1      38.991 -12.020   5.213  1.00  0.00     0.118 C 
HETATM   14  C   UNL     1      39.947 -12.981   5.919  1.00  0.00     0.034 C 
HETATM   15  C   UNL     1      41.415 -12.563   5.785  1.00  0.00     0.028 C 
BRANCH  13  16
HETATM   16  O   UNL     1      38.896 -10.804   5.951  1.00  0.00    -0.396 OA
HETATM   17  H   UNL     1      38.041 -10.384   5.768  1.00  0.00     0.210 HD
ENDBRANCH  13  16
ENDBRANCH   7  10
ENDBRANCH   5   6
BRANCH   1  18
HETATM   18  C   UNL     1      41.184 -14.994   0.652  1.00  0.00    -0.004 A 
HETATM   19  C   UNL     1      39.844 -14.919   1.055  1.00  0.00     0.021 A 
HETATM   20  C   UNL     1      38.915 -14.117   0.367  1.00  0.00    -0.055 A 
HETATM   21  C   UNL     1      39.329 -13.417  -0.783  1.00  0.00    -0.056 A 
HETATM   22  C   UNL     1      37.493 -14.064   0.853  1.00  0.00     0.049 C 
HETATM   23  C   UNL     1      38.377 -12.557  -1.567  1.00  0.00     0.049 C 
HETATM   24  C   UNL     1      40.667 -13.506  -1.195  1.00  0.00     0.008 A 
HETATM   25  C   UNL     1      41.583 -14.287  -0.487  1.00  0.00     0.014 A 
ENDBRANCH   1  18
BRANCH   3  26
HETATM   26  C   UNL     1      43.823 -18.862   1.847  1.00  0.00     0.189 C 
BRANCH  26  27
HETATM   27  C   UNL     1      44.000 -19.495   3.207  1.00  0.00    -0.038 A 
HETATM   28  C   UNL     1      44.785 -20.647   3.359  1.00  0.00     0.009 A 
HETATM   29  C   UNL     1      44.963 -21.222   4.620  1.00  0.00     0.001 A 
HETATM   30  C   UNL     1      44.364 -20.652   5.741  1.00  0.00     0.000 A 
HETATM   31  C   UNL     1      43.589 -19.502   5.606  1.00  0.00     0.001 A 
HETATM   32  C   UNL     1      43.414 -18.922   4.349  1.00  0.00     0.009 A 
ENDBRANCH  26  27
ENDBRANCH   3  26
TORSDOF 6
ENDMDL
MODEL 10
REMARK VINA RESULT:      -7.9      4.643      7.961
REMARK  6 active torsions:
REMARK  status: ('A' for Active; 'I' for Inactive)
REMARK    1  A    between atoms: C_6  and  C_7 
REMARK    2  A    between atoms: N_9  and  C_10 
REMARK    3  A    between atoms: C_10  and  C_11 
REMARK    4  A    between atoms: C_18  and  C_19 
REMARK       I    between atoms: C_19  and  N_20 
REMARK    5  A    between atoms: N_20  and  C_21 
REMARK    6  A    between atoms: C_24  and  O_25 
ROOT
HETATM    1  C   UNL     1      42.035 -15.642   1.580  1.00  0.00     0.104 A 
HETATM    2  N   UNL     1      43.106 -16.416   1.829  1.00  0.00    -0.171 NA
HETATM    3  N   UNL     1      42.966 -16.791   3.114  1.00  0.00    -0.275 N 
HETATM    4  C   UNL     1      41.835 -16.306   3.696  1.00  0.00     0.132 A 
HETATM    5  C   UNL     1      41.225 -15.502   2.752  1.00  0.00     0.080 A 
ENDROOT
BRANCH   5   6
HETATM    6  C   UNL     1      40.026 -14.720   2.992  1.00  0.00     0.255 C 
HETATM    7  N   UNL     1      39.426 -14.239   1.850  1.00  0.00    -0.352 N 
HETATM    8  H   UNL     1      39.887 -14.407   0.965  1.00  0.00     0.163 HD
HETATM    9  O   UNL     1      39.614 -14.481   4.122  1.00  0.00    -0.268 OA
BRANCH   7  10
HETATM   10  C   UNL     1      38.199 -13.456   1.869  1.00  0.00     0.084 C 
HETATM   11  C   UNL     1      38.477 -11.946   1.893  1.00  0.00     0.028 C 
HETATM   12  C   UNL     1      39.045 -11.432   0.569  1.00  0.00     0.034 C 
HETATM   13  C   UNL     1      38.190 -11.824  -0.634  1.00  0.00     0.118 C 
HETATM   14  C   UNL     1      37.867 -13.318  -0.659  1.00  0.00     0.034 C 
HETATM   15  C   UNL     1      37.309 -13.827   0.674  1.00  0.00     0.028 C 
BRANCH  13  16
HETATM   16  O   UNL     1      36.981 -11.069  -0.649  1.00  0.00    -0.396 OA
HETATM   17  H   UNL     1      37.106 -10.275  -1.194  1.00  0.00     0.210 HD
ENDBRANCH  13  16
ENDBRANCH   7  10
ENDBRANCH   5   6
BRANCH   1  18
HETATM   18  C   UNL     1      41.837 -15.072   0.245  1.00  0.00    -0.004 A 
HETATM   19  C   UNL     1      41.256 -15.821  -0.787  1.00  0.00     0.021 A 
HETATM   20  C   UNL     1      41.020 -15.262  -2.055  1.00  0.00    -0.055 A 
HETATM   21  C   UNL     1      41.426 -13.937  -2.310  1.00  0.00    -0.056 A 
HETATM   22  C   UNL     1      40.380 -16.109  -3.121  1.00  0.00     0.049 C 
HETATM   23  C   UNL     1      41.213 -13.291  -3.651  1.00  0.00     0.049 C 
HETATM   24  C   UNL     1      42.022 -13.194  -1.280  1.00  0.00     0.008 A 
HETATM   25  C   UNL     1      42.227 -13.756  -0.019  1.00  0.00     0.014 A 
ENDBRANCH   1  18
BRANCH   3  26
HETATM   26  C   UNL     1      43.978 -17.635   3.739  1.00  0.00     0.189 C 
BRANCH  26  27
HETATM   27  C   UNL     1      43.945 -19.047   3.203  1.00  0.00    -0.038 A 
HETATM   28  C   UNL     1      44.704 -20.057   3.813  1.00  0.00     0.009 A 
HETATM   29  C   UNL     1      44.660 -21.367   3.328  1.00  0.00     0.001 A 
HETATM   30  C   UNL     1      43.857 -21.683   2.235  1.00  0.00     0.000 A 
HETATM   31  C   UNL     1      43.091 -20.691   1.626  1.00  0.00     0.001 A 
HETATM   32  C   UNL     1      43.129 -19.383   2.110  1.00  0.00     0.009 A 
ENDBRANCH  26  27
ENDBRANCH   3  26
TORSDOF 6
ENDMDL
