MODEL 1
REMARK VINA RESULT:      -8.4      0.000      0.000
REMARK  7 active torsions:
REMARK  status: ('A' for Active; 'I' for Inactive)
REMARK    1  A    between atoms: C_2  and  N_3 
REMARK    2  A    between atoms: C_2  and  C_12 
REMARK       I    between atoms: N_3  and  C_4 
REMARK    3  A    between atoms: C_4  and  C_5 
REMARK    4  A    between atoms: N_17  and  C_19 
REMARK    5  A    between atoms: C_19  and  C_20 
REMARK    6  A    between atoms: C_22  and  C_23 
REMARK    7  A    between atoms: C_23  and  N_24 
ROOT
HETATM    1  C   UNL     1      42.785 -16.979   3.337  1.00  0.00     0.152 A 
HETATM    2  N   UNL     1      42.718 -16.254   4.509  1.00  0.00    -0.317 N 
HETATM    3  C   UNL     1      42.425 -17.163   5.495  1.00  0.00     0.131 A 
HETATM    4  C   UNL     1      42.411 -16.901   6.956  1.00  0.00     0.108 C 
HETATM    5  C   UNL     1      43.684 -16.180   7.382  1.00  0.00     0.243 C 
HETATM    6  N   UNL     1      43.636 -14.672   7.130  1.00  0.00    -0.065 N 
HETATM    7  H   UNL     1      43.217 -14.272   7.981  1.00  0.00     0.280 HD
HETATM    8  C   UNL     1      42.718 -14.205   6.001  1.00  0.00     0.255 C 
HETATM    9  C   UNL     1      43.002 -14.843   4.640  1.00  0.00     0.159 C 
HETATM   10  N   UNL     1      42.256 -18.343   4.948  1.00  0.00    -0.135 NA
HETATM   11  N   UNL     1      42.475 -18.231   3.606  1.00  0.00    -0.133 NA
ENDROOT
BRANCH   6  12
HETATM   12  C   UNL     1      45.026 -14.049   7.047  1.00  0.00     0.280 C 
BRANCH  12  13
HETATM   13  C   UNL     1      45.262 -12.931   8.025  1.00  0.00     0.009 A 
HETATM   14  S   UNL     1      44.017 -12.457   9.110  1.00  0.00    -0.096 SA
HETATM   15  C   UNL     1      44.989 -11.243   9.833  1.00  0.00     0.009 A 
HETATM   16  C   UNL     1      46.246 -11.209   9.261  1.00  0.00     0.017 A 
HETATM   17  C   UNL     1      46.407 -12.187   8.231  1.00  0.00     0.017 A 
BRANCH  15  18
HETATM   18  C   UNL     1      44.435 -10.372  10.927  1.00  0.00     0.280 C 
BRANCH  18  19
HETATM   19  N   UNL     1      42.957 -10.585  11.189  1.00  0.00    -0.067 N 
HETATM   20  H   UNL     1      42.639 -11.285  10.508  1.00  0.00     0.280 HD
HETATM   21  C   UNL     1      42.680 -11.129  12.573  1.00  0.00     0.235 C 
HETATM   22  C   UNL     1      41.191 -11.412  12.724  1.00  0.00     0.028 C 
HETATM   23  C   UNL     1      40.350 -10.174  12.437  1.00  0.00     0.003 C 
HETATM   24  C   UNL     1      40.682  -9.594  11.068  1.00  0.00     0.028 C 
HETATM   25  C   UNL     1      42.172  -9.316  10.922  1.00  0.00     0.235 C 
ENDBRANCH  18  19
ENDBRANCH  15  18
ENDBRANCH  12  13
ENDBRANCH   6  12
BRANCH   1  26
HETATM   26  C   UNL     1      43.198 -16.441   2.003  1.00  0.00     0.152 C 
HETATM   27  C   UNL     1      44.159 -17.404   1.309  1.00  0.00     0.040 C 
BRANCH  26  28
HETATM   28  N   UNL     1      42.008 -16.229   1.209  1.00  0.00    -0.349 N 
HETATM   29  C   UNL     1      41.563 -14.952   0.946  1.00  0.00     0.222 C 
HETATM   30  O   UNL     1      42.044 -13.977   1.513  1.00  0.00    -0.273 OA
HETATM   31  H   UNL     1      41.704 -16.995   0.614  1.00  0.00     0.163 HD
BRANCH  29  32
HETATM   32  C   UNL     1      40.448 -14.873  -0.095  1.00  0.00     0.082 C 
HETATM   33  C   UNL     1      39.736 -13.516  -0.057  1.00  0.00     0.040 C 
HETATM   34  C   UNL     1      40.583 -12.429  -0.704  1.00  0.00     0.168 C 
HETATM   35  O   UNL     1      40.926 -12.792  -2.037  1.00  0.00    -0.391 OA
HETATM   36  C   UNL     1      41.725 -13.973  -2.091  1.00  0.00     0.168 C 
HETATM   37  C   UNL     1      40.972 -15.162  -1.507  1.00  0.00     0.040 C 
ENDBRANCH  29  32
ENDBRANCH  26  28
ENDBRANCH   1  26
TORSDOF 7
ENDMDL
MODEL 2
REMARK VINA RESULT:      -8.4      3.996      7.218
REMARK  7 active torsions:
REMARK  status: ('A' for Active; 'I' for Inactive)
REMARK    1  A    between atoms: C_2  and  N_3 
REMARK    2  A    between atoms: C_2  and  C_12 
REMARK       I    between atoms: N_3  and  C_4 
REMARK    3  A    between atoms: C_4  and  C_5 
REMARK    4  A    between atoms: N_17  and  C_19 
REMARK    5  A    between atoms: C_19  and  C_20 
REMARK    6  A    between atoms: C_22  and  C_23 
REMARK    7  A    between atoms: C_23  and  N_24 
ROOT
HETATM    1  C   UNL     1      41.066 -15.191   1.526  1.00  0.00     0.152 A 
HETATM    2  N   UNL     1      41.260 -14.400   2.639  1.00  0.00    -0.317 N 
HETATM    3  C   UNL     1      40.046 -14.347   3.277  1.00  0.00     0.131 A 
HETATM    4  C   UNL     1      39.778 -13.754   4.611  1.00  0.00     0.108 C 
HETATM    5  C   UNL     1      40.792 -14.254   5.632  1.00  0.00     0.243 C 
HETATM    6  N   UNL     1      42.120 -13.498   5.583  1.00  0.00    -0.065 N 
HETATM    7  H   UNL     1      41.995 -12.696   6.216  1.00  0.00     0.280 HD
HETATM    8  C   UNL     1      42.489 -12.866   4.241  1.00  0.00     0.255 C 
HETATM    9  C   UNL     1      42.524 -13.841   3.062  1.00  0.00     0.159 C 
HETATM   10  N   UNL     1      39.162 -15.001   2.562  1.00  0.00    -0.135 NA
HETATM   11  N   UNL     1      39.793 -15.523   1.470  1.00  0.00    -0.133 NA
ENDROOT
BRANCH   6  12
HETATM   12  C   UNL     1      43.271 -14.298   6.186  1.00  0.00     0.280 C 
BRANCH  12  13
HETATM   13  C   UNL     1      43.192 -15.779   5.937  1.00  0.00     0.009 A 
HETATM   14  S   UNL     1      44.559 -16.777   6.229  1.00  0.00    -0.096 SA
HETATM   15  C   UNL     1      43.730 -18.202   5.759  1.00  0.00     0.009 A 
HETATM   16  C   UNL     1      42.428 -17.920   5.396  1.00  0.00     0.017 A 
HETATM   17  C   UNL     1      42.114 -16.530   5.510  1.00  0.00     0.017 A 
BRANCH  15  18
HETATM   18  C   UNL     1      44.434 -19.532   5.761  1.00  0.00     0.280 C 
BRANCH  18  19
HETATM   19  N   UNL     1      44.113 -20.395   4.558  1.00  0.00    -0.067 N 
HETATM   20  H   UNL     1      43.126 -20.667   4.650  1.00  0.00     0.280 HD
HETATM   21  C   UNL     1      44.267 -19.655   3.247  1.00  0.00     0.235 C 
HETATM   22  C   UNL     1      43.830 -20.552   2.098  1.00  0.00     0.028 C 
HETATM   23  C   UNL     1      44.600 -21.867   2.084  1.00  0.00     0.003 C 
HETATM   24  C   UNL     1      44.494 -22.575   3.428  1.00  0.00     0.028 C 
HETATM   25  C   UNL     1      44.929 -21.673   4.575  1.00  0.00     0.235 C 
ENDBRANCH  18  19
ENDBRANCH  15  18
ENDBRANCH  12  13
ENDBRANCH   6  12
BRANCH   1  26
HETATM   26  C   UNL     1      42.136 -15.640   0.581  1.00  0.00     0.152 C 
HETATM   27  C   UNL     1      42.580 -17.064   0.909  1.00  0.00     0.040 C 
BRANCH  26  28
HETATM   28  N   UNL     1      41.619 -15.553  -0.767  1.00  0.00    -0.349 N 
HETATM   29  C   UNL     1      41.729 -14.381  -1.482  1.00  0.00     0.222 C 
HETATM   30  O   UNL     1      42.099 -13.339  -0.950  1.00  0.00    -0.273 OA
HETATM   31  H   UNL     1      41.465 -16.426  -1.263  1.00  0.00     0.163 HD
BRANCH  29  32
HETATM   32  C   UNL     1      41.363 -14.504  -2.960  1.00  0.00     0.082 C 
HETATM   33  C   UNL     1      40.120 -15.376  -3.163  1.00  0.00     0.040 C 
HETATM   34  C   UNL     1      38.850 -14.624  -2.787  1.00  0.00     0.168 C 
HETATM   35  O   UNL     1      38.753 -13.411  -3.524  1.00  0.00    -0.391 OA
HETATM   36  C   UNL     1      39.821 -12.511  -3.236  1.00  0.00     0.168 C 
HETATM   37  C   UNL     1      41.164 -13.129  -3.609  1.00  0.00     0.040 C 
ENDBRANCH  29  32
ENDBRANCH  26  28
ENDBRANCH   1  26
TORSDOF 7
ENDMDL
MODEL 3
REMARK VINA RESULT:      -8.3      4.156      7.631
REMARK  7 active torsions:
REMARK  status: ('A' for Active; 'I' for Inactive)
REMARK    1  A    between atoms: C_2  and  N_3 
REMARK    2  A    between atoms: C_2  and  C_12 
REMARK       I    between atoms: N_3  and  C_4 
REMARK    3  A    between atoms: C_4  and  C_5 
REMARK    4  A    between atoms: N_17  and  C_19 
REMARK    5  A    between atoms: C_19  and  C_20 
REMARK    6  A    between atoms: C_22  and  C_23 
REMARK    7  A    between atoms: C_23  and  N_24 
ROOT
HETATM    1  C   UNL     1      39.097 -13.032   1.984  1.00  0.00     0.152 A 
HETATM    2  N   UNL     1      40.108 -13.102   2.919  1.00  0.00    -0.317 N 
HETATM    3  C   UNL     1      39.970 -11.985   3.705  1.00  0.00     0.131 A 
HETATM    4  C   UNL     1      40.718 -11.688   4.952  1.00  0.00     0.108 C 
HETATM    5  C   UNL     1      40.698 -12.892   5.886  1.00  0.00     0.243 C 
HETATM    6  N   UNL     1      41.745 -13.948   5.531  1.00  0.00    -0.065 N 
HETATM    7  H   UNL     1      42.594 -13.665   6.040  1.00  0.00     0.280 HD
HETATM    8  C   UNL     1      42.182 -14.001   4.067  1.00  0.00     0.255 C 
HETATM    9  C   UNL     1      41.042 -14.195   3.066  1.00  0.00     0.159 C 
HETATM   10  N   UNL     1      38.987 -11.254   3.235  1.00  0.00    -0.135 NA
HETATM   11  N   UNL     1      38.445 -11.902   2.162  1.00  0.00    -0.133 NA
ENDROOT
BRANCH   6  12
HETATM   12  C   UNL     1      41.397 -15.326   6.085  1.00  0.00     0.280 C 
BRANCH  12  13
HETATM   13  C   UNL     1      42.568 -16.263   6.196  1.00  0.00     0.009 A 
HETATM   14  S   UNL     1      42.411 -17.902   5.708  1.00  0.00    -0.096 SA
HETATM   15  C   UNL     1      44.040 -18.267   6.098  1.00  0.00     0.009 A 
HETATM   16  C   UNL     1      44.695 -17.151   6.583  1.00  0.00     0.017 A 
HETATM   17  C   UNL     1      43.853 -15.996   6.628  1.00  0.00     0.017 A 
BRANCH  15  18
HETATM   18  C   UNL     1      44.576 -19.660   5.916  1.00  0.00     0.280 C 
BRANCH  18  19
HETATM   19  N   UNL     1      44.150 -20.315   4.617  1.00  0.00    -0.067 N 
HETATM   20  H   UNL     1      43.149 -20.527   4.713  1.00  0.00     0.280 HD
HETATM   21  C   UNL     1      44.314 -19.404   3.420  1.00  0.00     0.235 C 
HETATM   22  C   UNL     1      43.772 -20.091   2.175  1.00  0.00     0.028 C 
HETATM   23  C   UNL     1      44.438 -21.441   1.939  1.00  0.00     0.003 C 
HETATM   24  C   UNL     1      44.325 -22.328   3.172  1.00  0.00     0.028 C 
HETATM   25  C   UNL     1      44.866 -21.635   4.415  1.00  0.00     0.235 C 
ENDBRANCH  18  19
ENDBRANCH  15  18
ENDBRANCH  12  13
ENDBRANCH   6  12
BRANCH   1  26
HETATM   26  C   UNL     1      38.764 -14.092   0.982  1.00  0.00     0.152 C 
HETATM   27  C   UNL     1      37.253 -14.302   0.902  1.00  0.00     0.040 C 
BRANCH  26  28
HETATM   28  N   UNL     1      39.304 -13.693  -0.300  1.00  0.00    -0.349 N 
HETATM   29  C   UNL     1      40.292 -14.439  -0.904  1.00  0.00     0.222 C 
HETATM   30  O   UNL     1      40.864 -15.346  -0.308  1.00  0.00    -0.273 OA
HETATM   31  H   UNL     1      38.744 -13.059  -0.863  1.00  0.00     0.163 HD
BRANCH  29  32
HETATM   32  C   UNL     1      40.592 -14.041  -2.348  1.00  0.00     0.082 C 
HETATM   33  C   UNL     1      41.178 -15.211  -3.145  1.00  0.00     0.040 C 
HETATM   34  C   UNL     1      40.099 -16.219  -3.520  1.00  0.00     0.168 C 
HETATM   35  O   UNL     1      39.049 -15.581  -4.238  1.00  0.00    -0.391 OA
HETATM   36  C   UNL     1      38.381 -14.589  -3.461  1.00  0.00     0.168 C 
HETATM   37  C   UNL     1      39.348 -13.484  -3.050  1.00  0.00     0.040 C 
ENDBRANCH  29  32
ENDBRANCH  26  28
ENDBRANCH   1  26
TORSDOF 7
ENDMDL
MODEL 4
REMARK VINA RESULT:      -8.3      4.360      7.743
REMARK  7 active torsions:
REMARK  status: ('A' for Active; 'I' for Inactive)
REMARK    1  A    between atoms: C_2  and  N_3 
REMARK    2  A    between atoms: C_2  and  C_12 
REMARK       I    between atoms: N_3  and  C_4 
REMARK    3  A    between atoms: C_4  and  C_5 
REMARK    4  A    between atoms: N_17  and  C_19 
REMARK    5  A    between atoms: C_19  and  C_20 
REMARK    6  A    between atoms: C_22  and  C_23 
REMARK    7  A    between atoms: C_23  and  N_24 
ROOT
HETATM    1  C   UNL     1      39.127 -12.781   2.299  1.00  0.00     0.152 A 
HETATM    2  N   UNL     1      39.882 -13.039   3.424  1.00  0.00    -0.317 N 
HETATM    3  C   UNL     1      39.424 -12.178   4.389  1.00  0.00     0.131 A 
HETATM    4  C   UNL     1      39.805 -12.180   5.823  1.00  0.00     0.108 C 
HETATM    5  C   UNL     1      39.704 -13.586   6.401  1.00  0.00     0.243 C 
HETATM    6  N   UNL     1      40.924 -14.454   6.093  1.00  0.00    -0.065 N 
HETATM    7  H   UNL     1      41.584 -14.270   6.862  1.00  0.00     0.280 HD
HETATM    8  C   UNL     1      41.707 -14.096   4.830  1.00  0.00     0.255 C 
HETATM    9  C   UNL     1      40.876 -14.081   3.545  1.00  0.00     0.159 C 
HETATM   10  N   UNL     1      38.504 -11.403   3.864  1.00  0.00    -0.135 NA
HETATM   11  N   UNL     1      38.321 -11.773   2.563  1.00  0.00    -0.133 NA
ENDROOT
BRANCH   6  12
HETATM   12  C   UNL     1      40.620 -15.946   6.187  1.00  0.00     0.280 C 
BRANCH  12  13
HETATM   13  C   UNL     1      41.837 -16.818   6.332  1.00  0.00     0.009 A 
HETATM   14  S   UNL     1      42.638 -17.419   4.937  1.00  0.00    -0.096 SA
HETATM   15  C   UNL     1      43.825 -18.239   5.863  1.00  0.00     0.009 A 
HETATM   16  C   UNL     1      43.617 -18.047   7.216  1.00  0.00     0.017 A 
HETATM   17  C   UNL     1      42.482 -17.220   7.485  1.00  0.00     0.017 A 
BRANCH  15  18
HETATM   18  C   UNL     1      44.896 -19.050   5.188  1.00  0.00     0.280 C 
BRANCH  18  19
HETATM   19  N   UNL     1      44.359 -20.110   4.247  1.00  0.00    -0.067 N 
HETATM   20  H   UNL     1      43.377 -20.262   4.510  1.00  0.00     0.280 HD
HETATM   21  C   UNL     1      44.385 -19.675   2.798  1.00  0.00     0.235 C 
HETATM   22  C   UNL     1      43.738 -20.746   1.929  1.00  0.00     0.028 C 
HETATM   23  C   UNL     1      44.408 -22.102   2.112  1.00  0.00     0.003 C 
HETATM   24  C   UNL     1      44.436 -22.503   3.582  1.00  0.00     0.028 C 
HETATM   25  C   UNL     1      45.081 -21.428   4.446  1.00  0.00     0.235 C 
ENDBRANCH  18  19
ENDBRANCH  15  18
ENDBRANCH  12  13
ENDBRANCH   6  12
BRANCH   1  26
HETATM   26  C   UNL     1      39.177 -13.555   1.020  1.00  0.00     0.152 C 
HETATM   27  C   UNL     1      37.776 -13.995   0.601  1.00  0.00     0.040 C 
BRANCH  26  28
HETATM   28  N   UNL     1      39.787 -12.722   0.006  1.00  0.00    -0.349 N 
HETATM   29  C   UNL     1      41.116 -12.879  -0.320  1.00  0.00     0.222 C 
HETATM   30  O   UNL     1      41.859 -13.591   0.348  1.00  0.00    -0.273 OA
HETATM   31  H   UNL     1      39.165 -12.258  -0.650  1.00  0.00     0.163 HD
BRANCH  29  32
HETATM   32  C   UNL     1      41.559 -12.108  -1.563  1.00  0.00     0.082 C 
HETATM   33  C   UNL     1      42.456 -12.961  -2.465  1.00  0.00     0.040 C 
HETATM   34  C   UNL     1      41.642 -13.986  -3.244  1.00  0.00     0.168 C 
HETATM   35  O   UNL     1      40.618 -13.343  -3.995  1.00  0.00    -0.391 OA
HETATM   36  C   UNL     1      39.675 -12.668  -3.165  1.00  0.00     0.168 C 
HETATM   37  C   UNL     1      40.358 -11.574  -2.352  1.00  0.00     0.040 C 
ENDBRANCH  29  32
ENDBRANCH  26  28
ENDBRANCH   1  26
TORSDOF 7
ENDMDL
MODEL 5
REMARK VINA RESULT:      -8.1      3.914     10.867
REMARK  7 active torsions:
REMARK  status: ('A' for Active; 'I' for Inactive)
REMARK    1  A    between atoms: C_2  and  N_3 
REMARK    2  A    between atoms: C_2  and  C_12 
REMARK       I    between atoms: N_3  and  C_4 
REMARK    3  A    between atoms: C_4  and  C_5 
REMARK    4  A    between atoms: N_17  and  C_19 
REMARK    5  A    between atoms: C_19  and  C_20 
REMARK    6  A    between atoms: C_22  and  C_23 
REMARK    7  A    between atoms: C_23  and  N_24 
ROOT
HETATM    1  C   UNL     1      40.731 -11.207   6.850  1.00  0.00     0.152 A 
HETATM    2  N   UNL     1      41.104 -12.454   6.396  1.00  0.00    -0.317 N 
HETATM    3  C   UNL     1      39.934 -13.130   6.154  1.00  0.00     0.131 A 
HETATM    4  C   UNL     1      39.803 -14.455   5.498  1.00  0.00     0.108 C 
HETATM    5  C   UNL     1      40.611 -14.495   4.207  1.00  0.00     0.243 C 
HETATM    6  N   UNL     1      42.097 -14.775   4.435  1.00  0.00    -0.065 N 
HETATM    7  H   UNL     1      42.180 -15.801   4.427  1.00  0.00     0.280 HD
HETATM    8  C   UNL     1      42.662 -14.361   5.794  1.00  0.00     0.255 C 
HETATM    9  C   UNL     1      42.461 -12.886   6.148  1.00  0.00     0.159 C 
HETATM   10  N   UNL     1      38.924 -12.369   6.505  1.00  0.00    -0.135 NA
HETATM   11  N   UNL     1      39.418 -11.174   6.942  1.00  0.00    -0.133 NA
ENDROOT
BRANCH   6  12
HETATM   12  C   UNL     1      42.966 -14.302   3.274  1.00  0.00     0.280 C 
BRANCH  12  13
HETATM   13  C   UNL     1      42.368 -14.544   1.915  1.00  0.00     0.009 A 
HETATM   14  S   UNL     1      41.864 -13.219   0.946  1.00  0.00    -0.096 SA
HETATM   15  C   UNL     1      41.354 -14.237  -0.336  1.00  0.00     0.009 A 
HETATM   16  C   UNL     1      41.575 -15.566  -0.031  1.00  0.00     0.017 A 
HETATM   17  C   UNL     1      42.169 -15.742   1.257  1.00  0.00     0.017 A 
BRANCH  15  18
HETATM   18  C   UNL     1      40.740 -13.652  -1.578  1.00  0.00     0.280 C 
BRANCH  18  19
HETATM   19  N   UNL     1      39.700 -14.545  -2.225  1.00  0.00    -0.067 N 
HETATM   20  H   UNL     1      39.474 -15.273  -1.536  1.00  0.00     0.280 HD
HETATM   21  C   UNL     1      38.419 -13.809  -2.555  1.00  0.00     0.235 C 
HETATM   22  C   UNL     1      37.392 -14.790  -3.103  1.00  0.00     0.028 C 
HETATM   23  C   UNL     1      37.923 -15.546  -4.314  1.00  0.00     0.003 C 
HETATM   24  C   UNL     1      39.246 -16.230  -3.994  1.00  0.00     0.028 C 
HETATM   25  C   UNL     1      40.269 -15.246  -3.443  1.00  0.00     0.235 C 
ENDBRANCH  18  19
ENDBRANCH  15  18
ENDBRANCH  12  13
ENDBRANCH   6  12
BRANCH   1  26
HETATM   26  C   UNL     1      41.661 -10.069   7.131  1.00  0.00     0.152 C 
HETATM   27  C   UNL     1      41.274  -8.841   6.308  1.00  0.00     0.040 C 
BRANCH  26  28
HETATM   28  N   UNL     1      41.616  -9.782   8.548  1.00  0.00    -0.349 N 
HETATM   29  C   UNL     1      42.661 -10.149   9.368  1.00  0.00     0.222 C 
HETATM   30  O   UNL     1      43.565 -10.875   8.967  1.00  0.00    -0.273 OA
HETATM   31  H   UNL     1      40.972  -9.059   8.856  1.00  0.00     0.163 HD
BRANCH  29  32
HETATM   32  C   UNL     1      42.588  -9.574  10.781  1.00  0.00     0.082 C 
HETATM   33  C   UNL     1      41.177  -9.689  11.366  1.00  0.00     0.040 C 
HETATM   34  C   UNL     1      40.874 -11.117  11.801  1.00  0.00     0.168 C 
HETATM   35  O   UNL     1      41.853 -11.573  12.727  1.00  0.00    -0.391 OA
HETATM   36  C   UNL     1      43.160 -11.624  12.158  1.00  0.00     0.168 C 
HETATM   37  C   UNL     1      43.609 -10.237  11.713  1.00  0.00     0.040 C 
ENDBRANCH  29  32
ENDBRANCH  26  28
ENDBRANCH   1  26
TORSDOF 7
ENDMDL
MODEL 6
REMARK VINA RESULT:      -8.0      3.219      5.421
REMARK  7 active torsions:
REMARK  status: ('A' for Active; 'I' for Inactive)
REMARK    1  A    between atoms: C_2  and  N_3 
REMARK    2  A    between atoms: C_2  and  C_12 
REMARK       I    between atoms: N_3  and  C_4 
REMARK    3  A    between atoms: C_4  and  C_5 
REMARK    4  A    between atoms: N_17  and  C_19 
REMARK    5  A    between atoms: C_19  and  C_20 
REMARK    6  A    between atoms: C_22  and  C_23 
REMARK    7  A    between atoms: C_23  and  N_24 
ROOT
HETATM    1  C   UNL     1      41.749 -16.635   2.366  1.00  0.00     0.152 A 
HETATM    2  N   UNL     1      41.606 -15.301   2.686  1.00  0.00    -0.317 N 
HETATM    3  C   UNL     1      40.289 -14.998   2.450  1.00  0.00     0.131 A 
HETATM    4  C   UNL     1      39.602 -13.729   2.797  1.00  0.00     0.108 C 
HETATM    5  C   UNL     1      39.892 -13.342   4.242  1.00  0.00     0.243 C 
HETATM    6  N   UNL     1      41.240 -12.641   4.419  1.00  0.00    -0.065 N 
HETATM    7  H   UNL     1      41.042 -11.641   4.273  1.00  0.00     0.280 HD
HETATM    8  C   UNL     1      42.314 -12.969   3.383  1.00  0.00     0.255 C 
HETATM    9  C   UNL     1      42.638 -14.458   3.246  1.00  0.00     0.159 C 
HETATM   10  N   UNL     1      39.692 -16.056   1.953  1.00  0.00    -0.135 NA
HETATM   11  N   UNL     1      40.600 -17.074   1.897  1.00  0.00    -0.133 NA
ENDROOT
BRANCH   6  12
HETATM   12  C   UNL     1      41.762 -12.732   5.849  1.00  0.00     0.280 C 
BRANCH  12  13
HETATM   13  C   UNL     1      41.261 -11.646   6.761  1.00  0.00     0.009 A 
HETATM   14  S   UNL     1      42.280 -11.014   7.991  1.00  0.00    -0.096 SA
HETATM   15  C   UNL     1      41.087  -9.909   8.535  1.00  0.00     0.009 A 
HETATM   16  C   UNL     1      39.933 -10.016   7.782  1.00  0.00     0.017 A 
HETATM   17  C   UNL     1      40.037 -11.005   6.755  1.00  0.00     0.017 A 
BRANCH  15  18
HETATM   18  C   UNL     1      41.360  -9.002   9.703  1.00  0.00     0.280 C 
BRANCH  18  19
HETATM   19  N   UNL     1      41.943  -9.715  10.907  1.00  0.00    -0.067 N 
HETATM   20  H   UNL     1      42.638 -10.379  10.544  1.00  0.00     0.280 HD
HETATM   21  C   UNL     1      42.653  -8.776  11.857  1.00  0.00     0.235 C 
HETATM   22  C   UNL     1      43.297  -9.575  12.982  1.00  0.00     0.028 C 
HETATM   23  C   UNL     1      42.277 -10.438  13.716  1.00  0.00     0.003 C 
HETATM   24  C   UNL     1      41.519 -11.333  12.745  1.00  0.00     0.028 C 
HETATM   25  C   UNL     1      40.881 -10.530  11.620  1.00  0.00     0.235 C 
ENDBRANCH  18  19
ENDBRANCH  15  18
ENDBRANCH  12  13
ENDBRANCH   6  12
BRANCH   1  26
HETATM   26  C   UNL     1      42.984 -17.453   2.576  1.00  0.00     0.152 C 
HETATM   27  C   UNL     1      43.973 -17.237   1.432  1.00  0.00     0.040 C 
BRANCH  26  28
HETATM   28  N   UNL     1      43.567 -17.081   3.847  1.00  0.00    -0.349 N 
HETATM   29  C   UNL     1      43.996 -18.049   4.728  1.00  0.00     0.222 C 
HETATM   30  O   UNL     1      43.741 -19.236   4.550  1.00  0.00    -0.273 OA
HETATM   31  H   UNL     1      43.925 -16.134   3.934  1.00  0.00     0.163 HD
BRANCH  29  32
HETATM   32  C   UNL     1      44.803 -17.515   5.911  1.00  0.00     0.082 C 
HETATM   33  C   UNL     1      44.194 -16.228   6.475  1.00  0.00     0.040 C 
HETATM   34  C   UNL     1      42.949 -16.522   7.302  1.00  0.00     0.168 C 
HETATM   35  O   UNL     1      43.248 -17.448   8.340  1.00  0.00    -0.391 OA
HETATM   36  C   UNL     1      43.672 -18.713   7.837  1.00  0.00     0.168 C 
HETATM   37  C   UNL     1      44.947 -18.568   7.016  1.00  0.00     0.040 C 
ENDBRANCH  29  32
ENDBRANCH  26  28
ENDBRANCH   1  26
TORSDOF 7
ENDMDL
MODEL 7
REMARK VINA RESULT:      -7.8      5.701      9.939
REMARK  7 active torsions:
REMARK  status: ('A' for Active; 'I' for Inactive)
REMARK    1  A    between atoms: C_2  and  N_3 
REMARK    2  A    between atoms: C_2  and  C_12 
REMARK       I    between atoms: N_3  and  C_4 
REMARK    3  A    between atoms: C_4  and  C_5 
REMARK    4  A    between atoms: N_17  and  C_19 
REMARK    5  A    between atoms: C_19  and  C_20 
REMARK    6  A    between atoms: C_22  and  C_23 
REMARK    7  A    between atoms: C_23  and  N_24 
ROOT
HETATM    1  C   UNL     1      42.778 -15.686   2.656  1.00  0.00     0.152 A 
HETATM    2  N   UNL     1      41.607 -14.992   2.436  1.00  0.00    -0.317 N 
HETATM    3  C   UNL     1      41.909 -13.670   2.651  1.00  0.00     0.131 A 
HETATM    4  C   UNL     1      41.023 -12.510   2.381  1.00  0.00     0.108 C 
HETATM    5  C   UNL     1      40.428 -12.607   0.982  1.00  0.00     0.243 C 
HETATM    6  N   UNL     1      39.212 -13.531   0.906  1.00  0.00    -0.065 N 
HETATM    7  H   UNL     1      38.405 -12.929   1.123  1.00  0.00     0.280 HD
HETATM    8  C   UNL     1      39.143 -14.645   1.950  1.00  0.00     0.255 C 
HETATM    9  C   UNL     1      40.363 -15.569   1.980  1.00  0.00     0.159 C 
HETATM   10  N   UNL     1      43.158 -13.578   3.042  1.00  0.00    -0.135 NA
HETATM   11  N   UNL     1      43.700 -14.831   3.050  1.00  0.00    -0.133 NA
ENDROOT
BRANCH   6  12
HETATM   12  C   UNL     1      38.951 -14.039  -0.508  1.00  0.00     0.280 C 
BRANCH  12  13
HETATM   13  C   UNL     1      40.015 -13.669  -1.504  1.00  0.00     0.009 A 
HETATM   14  S   UNL     1      39.984 -12.130  -2.268  1.00  0.00    -0.096 SA
HETATM   15  C   UNL     1      41.408 -12.449  -3.168  1.00  0.00     0.009 A 
HETATM   16  C   UNL     1      41.904 -13.706  -2.880  1.00  0.00     0.017 A 
HETATM   17  C   UNL     1      41.111 -14.402  -1.915  1.00  0.00     0.017 A 
BRANCH  15  18
HETATM   18  C   UNL     1      41.947 -11.429  -4.132  1.00  0.00     0.280 C 
BRANCH  18  19
HETATM   19  N   UNL     1      42.680 -10.283  -3.462  1.00  0.00    -0.067 N 
HETATM   20  H   UNL     1      43.542 -10.135  -4.002  1.00  0.00     0.280 HD
HETATM   21  C   UNL     1      41.894  -8.991  -3.486  1.00  0.00     0.235 C 
HETATM   22  C   UNL     1      42.734  -7.869  -2.890  1.00  0.00     0.028 C 
HETATM   23  C   UNL     1      43.206  -8.204  -1.481  1.00  0.00     0.003 C 
HETATM   24  C   UNL     1      43.940  -9.539  -1.454  1.00  0.00     0.028 C 
HETATM   25  C   UNL     1      43.097 -10.656  -2.053  1.00  0.00     0.235 C 
ENDBRANCH  18  19
ENDBRANCH  15  18
ENDBRANCH  12  13
ENDBRANCH   6  12
BRANCH   1  26
HETATM   26  C   UNL     1      42.978 -17.151   2.425  1.00  0.00     0.152 C 
HETATM   27  C   UNL     1      43.445 -17.411   0.994  1.00  0.00     0.040 C 
BRANCH  26  28
HETATM   28  N   UNL     1      43.945 -17.636   3.385  1.00  0.00    -0.349 N 
HETATM   29  C   UNL     1      43.559 -18.492   4.393  1.00  0.00     0.222 C 
HETATM   30  O   UNL     1      42.376 -18.726   4.616  1.00  0.00    -0.273 OA
HETATM   31  H   UNL     1      44.926 -17.585   3.123  1.00  0.00     0.163 HD
BRANCH  29  32
HETATM   32  C   UNL     1      44.716 -19.108   5.178  1.00  0.00     0.082 C 
HETATM   33  C   UNL     1      45.252 -18.146   6.243  1.00  0.00     0.040 C 
HETATM   34  C   UNL     1      44.317 -18.073   7.443  1.00  0.00     0.168 C 
HETATM   35  O   UNL     1      44.101 -19.371   7.985  1.00  0.00    -0.391 OA
HETATM   36  C   UNL     1      43.458 -20.248   7.061  1.00  0.00     0.168 C 
HETATM   37  C   UNL     1      44.316 -20.443   5.817  1.00  0.00     0.040 C 
ENDBRANCH  29  32
ENDBRANCH  26  28
ENDBRANCH   1  26
TORSDOF 7
ENDMDL
MODEL 8
REMARK VINA RESULT:      -7.7      4.327      9.784
REMARK  7 active torsions:
REMARK  status: ('A' for Active; 'I' for Inactive)
REMARK    1  A    between atoms: C_2  and  N_3 
REMARK    2  A    between atoms: C_2  and  C_12 
REMARK       I    between atoms: N_3  and  C_4 
REMARK    3  A    between atoms: C_4  and  C_5 
REMARK    4  A    between atoms: N_17  and  C_19 
REMARK    5  A    between atoms: C_19  and  C_20 
REMARK    6  A    between atoms: C_22  and  C_23 
REMARK    7  A    between atoms: C_23  and  N_24 
ROOT
HETATM    1  C   UNL     1      39.107 -11.296   3.409  1.00  0.00     0.152 A 
HETATM    2  N   UNL     1      38.965 -12.518   2.786  1.00  0.00    -0.317 N 
HETATM    3  C   UNL     1      38.033 -12.328   1.796  1.00  0.00     0.131 A 
HETATM    4  C   UNL     1      37.658 -13.304   0.743  1.00  0.00     0.108 C 
HETATM    5  C   UNL     1      38.903 -13.874   0.074  1.00  0.00     0.243 C 
HETATM    6  N   UNL     1      39.548 -15.010   0.871  1.00  0.00    -0.065 N 
HETATM    7  H   UNL     1      39.076 -15.865   0.546  1.00  0.00     0.280 HD
HETATM    8  C   UNL     1      39.309 -14.997   2.380  1.00  0.00     0.255 C 
HETATM    9  C   UNL     1      39.733 -13.705   3.084  1.00  0.00     0.159 C 
HETATM   10  N   UNL     1      37.589 -11.095   1.862  1.00  0.00    -0.135 NA
HETATM   11  N   UNL     1      38.253 -10.452   2.867  1.00  0.00    -0.133 NA
ENDROOT
BRANCH   6  12
HETATM   12  C   UNL     1      41.017 -15.212   0.514  1.00  0.00     0.280 C 
BRANCH  12  13
HETATM   13  C   UNL     1      41.674 -16.363   1.226  1.00  0.00     0.009 A 
HETATM   14  S   UNL     1      42.934 -16.072   2.356  1.00  0.00    -0.096 SA
HETATM   15  C   UNL     1      43.125 -17.739   2.707  1.00  0.00     0.009 A 
HETATM   16  C   UNL     1      42.232 -18.503   1.981  1.00  0.00     0.017 A 
HETATM   17  C   UNL     1      41.389 -17.712   1.139  1.00  0.00     0.017 A 
BRANCH  15  18
HETATM   18  C   UNL     1      44.174 -18.200   3.681  1.00  0.00     0.280 C 
BRANCH  18  19
HETATM   19  N   UNL     1      44.059 -19.664   4.056  1.00  0.00    -0.067 N 
HETATM   20  H   UNL     1      43.062 -19.903   3.993  1.00  0.00     0.280 HD
HETATM   21  C   UNL     1      44.811 -20.572   3.107  1.00  0.00     0.235 C 
HETATM   22  C   UNL     1      44.565 -22.026   3.487  1.00  0.00     0.028 C 
HETATM   23  C   UNL     1      44.945 -22.304   4.936  1.00  0.00     0.003 C 
HETATM   24  C   UNL     1      44.234 -21.342   5.880  1.00  0.00     0.028 C 
HETATM   25  C   UNL     1      44.481 -19.890   5.495  1.00  0.00     0.235 C 
ENDBRANCH  18  19
ENDBRANCH  15  18
ENDBRANCH  12  13
ENDBRANCH   6  12
BRANCH   1  26
HETATM   26  C   UNL     1      40.105 -10.973   4.476  1.00  0.00     0.152 C 
HETATM   27  C   UNL     1      40.892  -9.715   4.114  1.00  0.00     0.040 C 
BRANCH  26  28
HETATM   28  N   UNL     1      39.396 -10.804   5.726  1.00  0.00    -0.349 N 
HETATM   29  C   UNL     1      40.015 -11.088   6.923  1.00  0.00     0.222 C 
HETATM   30  O   UNL     1      41.102 -11.655   6.963  1.00  0.00    -0.273 OA
HETATM   31  H   UNL     1      38.580 -10.199   5.719  1.00  0.00     0.163 HD
BRANCH  29  32
HETATM   32  C   UNL     1      39.239 -10.637   8.160  1.00  0.00     0.082 C 
HETATM   33  C   UNL     1      39.973 -11.009   9.452  1.00  0.00     0.040 C 
HETATM   34  C   UNL     1      41.153 -10.080   9.705  1.00  0.00     0.168 C 
HETATM   35  O   UNL     1      40.723  -8.724   9.729  1.00  0.00    -0.391 OA
HETATM   36  C   UNL     1      40.175  -8.303   8.481  1.00  0.00     0.168 C 
HETATM   37  C   UNL     1      38.947  -9.133   8.124  1.00  0.00     0.040 C 
ENDBRANCH  29  32
ENDBRANCH  26  28
ENDBRANCH   1  26
TORSDOF 7
ENDMDL
MODEL 9
REMARK VINA RESULT:      -7.7      5.352     11.632
REMARK  7 active torsions:
REMARK  status: ('A' for Active; 'I' for Inactive)
REMARK    1  A    between atoms: C_2  and  N_3 
REMARK    2  A    between atoms: C_2  and  C_12 
REMARK       I    between atoms: N_3  and  C_4 
REMARK    3  A    between atoms: C_4  and  C_5 
REMARK    4  A    between atoms: N_17  and  C_19 
REMARK    5  A    between atoms: C_19  and  C_20 
REMARK    6  A    between atoms: C_22  and  C_23 
REMARK    7  A    between atoms: C_23  and  N_24 
ROOT
HETATM    1  C   UNL     1      42.877 -15.629   2.408  1.00  0.00     0.152 A 
HETATM    2  N   UNL     1      42.031 -14.833   1.665  1.00  0.00    -0.317 N 
HETATM    3  C   UNL     1      42.381 -13.539   1.959  1.00  0.00     0.131 A 
HETATM    4  C   UNL     1      41.872 -12.316   1.287  1.00  0.00     0.108 C 
HETATM    5  C   UNL     1      41.956 -12.464  -0.227  1.00  0.00     0.243 C 
HETATM    6  N   UNL     1      40.789 -13.254  -0.821  1.00  0.00    -0.065 N 
HETATM    7  H   UNL     1      40.059 -12.552  -1.007  1.00  0.00     0.280 HD
HETATM    8  C   UNL     1      40.113 -14.263   0.108  1.00  0.00     0.255 C 
HETATM    9  C   UNL     1      41.055 -15.307   0.711  1.00  0.00     0.159 C 
HETATM   10  N   UNL     1      43.325 -13.550   2.870  1.00  0.00    -0.135 NA
HETATM   11  N   UNL     1      43.632 -14.849   3.154  1.00  0.00    -0.133 NA
ENDROOT
BRANCH   6  12
HETATM   12  C   UNL     1      41.119 -13.848  -2.186  1.00  0.00     0.280 C 
BRANCH  12  13
HETATM   13  C   UNL     1      39.939 -14.445  -2.903  1.00  0.00     0.009 A 
HETATM   14  S   UNL     1      38.515 -13.514  -3.143  1.00  0.00    -0.096 SA
HETATM   15  C   UNL     1      37.718 -14.786  -3.972  1.00  0.00     0.009 A 
HETATM   16  C   UNL     1      38.531 -15.898  -4.071  1.00  0.00     0.017 A 
HETATM   17  C   UNL     1      39.812 -15.699  -3.468  1.00  0.00     0.017 A 
BRANCH  15  18
HETATM   18  C   UNL     1      36.308 -14.611  -4.465  1.00  0.00     0.280 C 
BRANCH  18  19
HETATM   19  N   UNL     1      36.111 -13.384  -5.332  1.00  0.00    -0.067 N 
HETATM   20  H   UNL     1      37.044 -12.975  -5.474  1.00  0.00     0.280 HD
HETATM   21  C   UNL     1      35.541 -13.713  -6.694  1.00  0.00     0.235 C 
HETATM   22  C   UNL     1      35.470 -12.448  -7.539  1.00  0.00     0.028 C 
HETATM   23  C   UNL     1      34.663 -11.355  -6.852  1.00  0.00     0.003 C 
HETATM   24  C   UNL     1      35.203 -11.074  -5.455  1.00  0.00     0.028 C 
HETATM   25  C   UNL     1      35.275 -12.342  -4.615  1.00  0.00     0.235 C 
ENDBRANCH  18  19
ENDBRANCH  15  18
ENDBRANCH  12  13
ENDBRANCH   6  12
BRANCH   1  26
HETATM   26  C   UNL     1      42.959 -17.121   2.331  1.00  0.00     0.152 C 
HETATM   27  C   UNL     1      44.042 -17.550   1.343  1.00  0.00     0.040 C 
BRANCH  26  28
HETATM   28  N   UNL     1      43.231 -17.632   3.657  1.00  0.00    -0.349 N 
HETATM   29  C   UNL     1      42.207 -17.809   4.561  1.00  0.00     0.222 C 
HETATM   30  O   UNL     1      41.079 -17.380   4.341  1.00  0.00    -0.273 OA
HETATM   31  H   UNL     1      44.107 -18.131   3.792  1.00  0.00     0.163 HD
BRANCH  29  32
HETATM   32  C   UNL     1      42.601 -18.575   5.823  1.00  0.00     0.082 C 
HETATM   33  C   UNL     1      43.872 -19.401   5.607  1.00  0.00     0.040 C 
HETATM   34  C   UNL     1      45.114 -18.518   5.611  1.00  0.00     0.168 C 
HETATM   35  O   UNL     1      45.186 -17.767   6.817  1.00  0.00    -0.391 OA
HETATM   36  C   UNL     1      44.087 -16.870   6.968  1.00  0.00     0.168 C 
HETATM   37  C   UNL     1      42.770 -17.636   7.023  1.00  0.00     0.040 C 
ENDBRANCH  29  32
ENDBRANCH  26  28
ENDBRANCH   1  26
TORSDOF 7
ENDMDL
MODEL 10
REMARK VINA RESULT:      -7.5      5.158     11.306
REMARK  7 active torsions:
REMARK  status: ('A' for Active; 'I' for Inactive)
REMARK    1  A    between atoms: C_2  and  N_3 
REMARK    2  A    between atoms: C_2  and  C_12 
REMARK       I    between atoms: N_3  and  C_4 
REMARK    3  A    between atoms: C_4  and  C_5 
REMARK    4  A    between atoms: N_17  and  C_19 
REMARK    5  A    between atoms: C_19  and  C_20 
REMARK    6  A    between atoms: C_22  and  C_23 
REMARK    7  A    between atoms: C_23  and  N_24 
ROOT
HETATM    1  C   UNL     1      42.744 -15.251   2.436  1.00  0.00     0.152 A 
HETATM    2  N   UNL     1      41.665 -14.659   1.813  1.00  0.00    -0.317 N 
HETATM    3  C   UNL     1      41.904 -13.308   1.855  1.00  0.00     0.131 A 
HETATM    4  C   UNL     1      41.114 -12.254   1.171  1.00  0.00     0.108 C 
HETATM    5  C   UNL     1      40.889 -12.619  -0.291  1.00  0.00     0.243 C 
HETATM    6  N   UNL     1      39.730 -13.595  -0.497  1.00  0.00    -0.065 N 
HETATM    7  H   UNL     1      38.895 -13.001  -0.597  1.00  0.00     0.280 HD
HETATM    8  C   UNL     1      39.402 -14.513   0.681  1.00  0.00     0.255 C 
HETATM    9  C   UNL     1      40.575 -15.362   1.176  1.00  0.00     0.159 C 
HETATM   10  N   UNL     1      43.016 -13.094   2.518  1.00  0.00    -0.135 NA
HETATM   11  N   UNL     1      43.538 -14.301   2.884  1.00  0.00    -0.133 NA
ENDROOT
BRANCH   6  12
HETATM   12  C   UNL     1      39.832 -14.354  -1.816  1.00  0.00     0.280 C 
BRANCH  12  13
HETATM   13  C   UNL     1      38.642 -14.184  -2.721  1.00  0.00     0.009 A 
HETATM   14  S   UNL     1      37.953 -12.628  -2.957  1.00  0.00    -0.096 SA
HETATM   15  C   UNL     1      36.759 -13.223  -4.033  1.00  0.00     0.009 A 
HETATM   16  C   UNL     1      36.892 -14.586  -4.217  1.00  0.00     0.017 A 
HETATM   17  C   UNL     1      37.982 -15.136  -3.473  1.00  0.00     0.017 A 
BRANCH  15  18
HETATM   18  C   UNL     1      35.735 -12.296  -4.627  1.00  0.00     0.280 C 
BRANCH  18  19
HETATM   19  N   UNL     1      34.466 -12.180  -3.806  1.00  0.00    -0.067 N 
HETATM   20  H   UNL     1      34.446 -12.998  -3.185  1.00  0.00     0.280 HD
HETATM   21  C   UNL     1      34.439 -10.941  -2.939  1.00  0.00     0.235 C 
HETATM   22  C   UNL     1      33.186 -10.948  -2.073  1.00  0.00     0.028 C 
HETATM   23  C   UNL     1      31.920 -11.063  -2.912  1.00  0.00     0.003 C 
HETATM   24  C   UNL     1      31.983 -12.277  -3.831  1.00  0.00     0.028 C 
HETATM   25  C   UNL     1      33.238 -12.266  -4.692  1.00  0.00     0.235 C 
ENDBRANCH  18  19
ENDBRANCH  15  18
ENDBRANCH  12  13
ENDBRANCH   6  12
BRANCH   1  26
HETATM   26  C   UNL     1      42.995 -16.724   2.528  1.00  0.00     0.152 C 
HETATM   27  C   UNL     1      43.812 -17.207   1.332  1.00  0.00     0.040 C 
BRANCH  26  28
HETATM   28  N   UNL     1      43.684 -16.991   3.772  1.00  0.00    -0.349 N 
HETATM   29  C   UNL     1      43.135 -17.844   4.704  1.00  0.00     0.222 C 
HETATM   30  O   UNL     1      41.985 -18.257   4.596  1.00  0.00    -0.273 OA
HETATM   31  H   UNL     1      44.680 -16.793   3.803  1.00  0.00     0.163 HD
BRANCH  29  32
HETATM   32  C   UNL     1      44.074 -18.219   5.850  1.00  0.00     0.082 C 
HETATM   33  C   UNL     1      45.049 -17.082   6.176  1.00  0.00     0.040 C 
HETATM   34  C   UNL     1      44.358 -15.966   6.948  1.00  0.00     0.168 C 
HETATM   35  O   UNL     1      43.751 -16.479   8.129  1.00  0.00    -0.391 OA
HETATM   36  C   UNL     1      42.727 -17.431   7.847  1.00  0.00     0.168 C 
HETATM   37  C   UNL     1      43.297 -18.633   7.104  1.00  0.00     0.040 C 
ENDBRANCH  29  32
ENDBRANCH  26  28
ENDBRANCH   1  26
TORSDOF 7
ENDMDL
