MODEL 1
REMARK VINA RESULT:      -9.3      0.000      0.000
REMARK  8 active torsions:
REMARK  status: ('A' for Active; 'I' for Inactive)
REMARK    1  A    between atoms: C_2  and  S_3 
REMARK    2  A    between atoms: S_3  and  C_4 
REMARK    3  A    between atoms: C_4  and  C_5 
REMARK    4  A    between atoms: C_8  and  C_9 
REMARK    5  A    between atoms: C_10  and  C_11 
REMARK    6  A    between atoms: C_23  and  N_24 
REMARK       I    between atoms: N_24  and  C_25 
REMARK    7  A    between atoms: C_25  and  C_26 
REMARK    8  A    between atoms: C_26  and  C_27 
ROOT
HETATM    1  C   UNL     1      44.037 -15.357   6.792  1.00  0.00    -0.035 A 
HETATM    2  C   UNL     1      43.733 -15.001   5.472  1.00  0.00     0.030 A 
HETATM    3  C   UNL     1      43.673 -15.961   4.443  1.00  0.00     0.059 A 
HETATM    4  C   UNL     1      43.906 -17.309   4.744  1.00  0.00     0.050 A 
HETATM    5  N   UNL     1      43.775 -18.392   3.858  1.00  0.00    -0.324 N 
HETATM    6  C   UNL     1      42.906 -18.529   2.806  1.00  0.00     0.245 C 
HETATM    7  O   UNL     1      42.759 -19.657   2.330  1.00  0.00    -0.271 OA
HETATM    8  C   UNL     1      42.011 -17.348   2.437  1.00  0.00     0.182 C 
HETATM    9  N   UNL     1      42.810 -16.168   2.146  1.00  0.00    -0.332 N 
HETATM   10  C   UNL     1      43.487 -15.417   3.074  1.00  0.00     0.256 C 
HETATM   11  O   UNL     1      43.932 -14.301   2.815  1.00  0.00    -0.267 OA
HETATM   12  C   UNL     1      41.185 -17.598   1.167  1.00  0.00     0.061 C 
HETATM   13  C   UNL     1      41.160 -16.227   0.484  1.00  0.00     0.105 C 
HETATM   14  C   UNL     1      42.544 -15.665   0.808  1.00  0.00     0.152 C 
HETATM   15  C   UNL     1      44.283 -17.651   6.052  1.00  0.00     0.031 A 
HETATM   16  C   UNL     1      44.328 -16.691   7.070  1.00  0.00     0.013 A 
HETATM   17  H   UNL     1      44.163 -19.286   4.133  1.00  0.00     0.169 HD
ENDROOT
BRANCH   1  18
HETATM   18  C   UNL     1      43.949 -14.385   7.889  1.00  0.00     0.012 C 
HETATM   19  C   UNL     1      44.680 -13.260   7.940  1.00  0.00     0.012 C 
BRANCH  19  20
HETATM   20  C   UNL     1      44.493 -12.199   8.939  1.00  0.00    -0.036 A 
HETATM   21  C   UNL     1      43.351 -11.393   8.872  1.00  0.00     0.012 A 
HETATM   22  C   UNL     1      43.067 -10.477   9.888  1.00  0.00     0.009 A 
HETATM   23  C   UNL     1      43.912 -10.359  11.000  1.00  0.00    -0.049 A 
HETATM   24  C   UNL     1      45.064 -11.154  11.060  1.00  0.00     0.009 A 
HETATM   25  C   UNL     1      45.350 -12.065  10.039  1.00  0.00     0.012 A 
BRANCH  23  26
HETATM   26  C   UNL     1      43.543  -9.452  12.147  1.00  0.00     0.112 C 
BRANCH  26  27
HETATM   27  S   UNL     1      41.767  -9.041  12.095  1.00  0.00    -0.165 SA
BRANCH  27  28
HETATM   28  C   UNL     1      41.204 -10.031  13.508  1.00  0.00     0.069 C 
HETATM   29  C   UNL     1      42.360 -10.250  14.469  1.00  0.00     0.016 C 
ENDBRANCH  27  28
ENDBRANCH  26  27
ENDBRANCH  23  26
ENDBRANCH  19  20
ENDBRANCH   1  18
BRANCH  13  30
HETATM   30  N   UNL     1      40.777 -16.231  -0.915  1.00  0.00    -0.355 N 
HETATM   31  C   UNL     1      40.992 -15.186  -1.784  1.00  0.00     0.222 C 
HETATM   32  O   UNL     1      41.558 -14.151  -1.433  1.00  0.00    -0.273 OA
HETATM   33  H   UNL     1      40.205 -17.007  -1.233  1.00  0.00     0.162 HD
BRANCH  31  34
HETATM   34  C   UNL     1      40.471 -15.320  -3.210  1.00  0.00     0.148 C 
BRANCH  34  35
HETATM   35  C   UNL     1      39.082 -14.794  -3.423  1.00  0.00    -0.009 A 
HETATM   36  S   UNL     1      38.738 -13.135  -3.149  1.00  0.00    -0.106 SA
HETATM   37  C   UNL     1      37.101 -13.335  -3.594  1.00  0.00     0.050 A 
HETATM   38  C   UNL     1      36.817 -14.634  -3.950  1.00  0.00     0.008 A 
HETATM   39  C   UNL     1      37.961 -15.478  -3.852  1.00  0.00     0.015 A 
ENDBRANCH  34  35
ENDBRANCH  31  34
ENDBRANCH  13  30
TORSDOF 8
ENDMDL
MODEL 2
REMARK VINA RESULT:      -8.3      3.617     11.760
REMARK  8 active torsions:
REMARK  status: ('A' for Active; 'I' for Inactive)
REMARK    1  A    between atoms: C_2  and  S_3 
REMARK    2  A    between atoms: S_3  and  C_4 
REMARK    3  A    between atoms: C_4  and  C_5 
REMARK    4  A    between atoms: C_8  and  C_9 
REMARK    5  A    between atoms: C_10  and  C_11 
REMARK    6  A    between atoms: C_23  and  N_24 
REMARK       I    between atoms: N_24  and  C_25 
REMARK    7  A    between atoms: C_25  and  C_26 
REMARK    8  A    between atoms: C_26  and  C_27 
ROOT
HETATM    1  C   UNL     1      41.712 -14.085   0.395  1.00  0.00    -0.035 A 
HETATM    2  C   UNL     1      41.815 -13.484   1.656  1.00  0.00     0.030 A 
HETATM    3  C   UNL     1      41.951 -14.249   2.830  1.00  0.00     0.059 A 
HETATM    4  C   UNL     1      42.002 -15.646   2.741  1.00  0.00     0.050 A 
HETATM    5  N   UNL     1      42.245 -16.538   3.800  1.00  0.00    -0.324 N 
HETATM    6  C   UNL     1      43.017 -16.341   4.916  1.00  0.00     0.245 C 
HETATM    7  O   UNL     1      43.324 -17.335   5.580  1.00  0.00    -0.271 OA
HETATM    8  C   UNL     1      43.638 -14.965   5.144  1.00  0.00     0.182 C 
HETATM    9  N   UNL     1      42.609 -13.937   5.182  1.00  0.00    -0.332 N 
HETATM   10  C   UNL     1      41.899 -13.482   4.101  1.00  0.00     0.256 C 
HETATM   11  O   UNL     1      41.231 -12.451   4.142  1.00  0.00    -0.267 OA
HETATM   12  C   UNL     1      44.368 -14.854   6.490  1.00  0.00     0.061 C 
HETATM   13  C   UNL     1      44.071 -13.420   6.938  1.00  0.00     0.105 C 
HETATM   14  C   UNL     1      42.645 -13.199   6.435  1.00  0.00     0.152 C 
HETATM   15  C   UNL     1      41.825 -16.247   1.484  1.00  0.00     0.031 A 
HETATM   16  C   UNL     1      41.702 -15.477   0.322  1.00  0.00     0.013 A 
HETATM   17  H   UNL     1      42.058 -17.522   3.650  1.00  0.00     0.169 HD
ENDROOT
BRANCH   1  18
HETATM   18  C   UNL     1      41.724 -13.289  -0.839  1.00  0.00     0.012 C 
HETATM   19  C   UNL     1      42.313 -12.087  -0.937  1.00  0.00     0.012 C 
BRANCH  19  20
HETATM   20  C   UNL     1      42.478 -11.349  -2.197  1.00  0.00    -0.036 A 
HETATM   21  C   UNL     1      42.467 -12.054  -3.405  1.00  0.00     0.012 A 
HETATM   22  C   UNL     1      42.471 -11.373  -4.626  1.00  0.00     0.009 A 
HETATM   23  C   UNL     1      42.470  -9.972  -4.662  1.00  0.00    -0.049 A 
HETATM   24  C   UNL     1      42.497  -9.266  -3.452  1.00  0.00     0.009 A 
HETATM   25  C   UNL     1      42.500  -9.949  -2.233  1.00  0.00     0.012 A 
BRANCH  23  26
HETATM   26  C   UNL     1      42.360  -9.242  -5.977  1.00  0.00     0.112 C 
BRANCH  26  27
HETATM   27  S   UNL     1      40.741  -8.414  -6.118  1.00  0.00    -0.165 SA
BRANCH  27  28
HETATM   28  C   UNL     1      39.711  -9.864  -6.476  1.00  0.00     0.069 C 
HETATM   29  C   UNL     1      38.926 -10.250  -5.234  1.00  0.00     0.016 C 
ENDBRANCH  27  28
ENDBRANCH  26  27
ENDBRANCH  23  26
ENDBRANCH  19  20
ENDBRANCH   1  18
BRANCH  13  30
HETATM   30  N   UNL     1      44.310 -13.139   8.341  1.00  0.00    -0.355 N 
HETATM   31  C   UNL     1      45.435 -12.517   8.830  1.00  0.00     0.222 C 
HETATM   32  O   UNL     1      46.338 -12.124   8.091  1.00  0.00    -0.273 OA
HETATM   33  H   UNL     1      43.659 -13.541   9.008  1.00  0.00     0.162 HD
BRANCH  31  34
HETATM   34  C   UNL     1      45.566 -12.353  10.340  1.00  0.00     0.148 C 
BRANCH  34  35
HETATM   35  C   UNL     1      44.506 -11.500  10.974  1.00  0.00    -0.009 A 
HETATM   36  S   UNL     1      43.494 -12.153  12.197  1.00  0.00    -0.106 SA
HETATM   37  C   UNL     1      42.659 -10.674  12.383  1.00  0.00     0.050 A 
HETATM   38  C   UNL     1      43.139  -9.699  11.539  1.00  0.00     0.008 A 
HETATM   39  C   UNL     1      44.208 -10.176  10.724  1.00  0.00     0.015 A 
ENDBRANCH  34  35
ENDBRANCH  31  34
ENDBRANCH  13  30
TORSDOF 8
ENDMDL
MODEL 3
REMARK VINA RESULT:      -7.7      5.488     11.469
REMARK  8 active torsions:
REMARK  status: ('A' for Active; 'I' for Inactive)
REMARK    1  A    between atoms: C_2  and  S_3 
REMARK    2  A    between atoms: S_3  and  C_4 
REMARK    3  A    between atoms: C_4  and  C_5 
REMARK    4  A    between atoms: C_8  and  C_9 
REMARK    5  A    between atoms: C_10  and  C_11 
REMARK    6  A    between atoms: C_23  and  N_24 
REMARK       I    between atoms: N_24  and  C_25 
REMARK    7  A    between atoms: C_25  and  C_26 
REMARK    8  A    between atoms: C_26  and  C_27 
ROOT
HETATM    1  C   UNL     1      37.980 -12.090   1.598  1.00  0.00    -0.035 A 
HETATM    2  C   UNL     1      38.611 -13.338   1.683  1.00  0.00     0.030 A 
HETATM    3  C   UNL     1      39.771 -13.528   2.458  1.00  0.00     0.059 A 
HETATM    4  C   UNL     1      40.302 -12.451   3.179  1.00  0.00     0.050 A 
HETATM    5  N   UNL     1      41.381 -12.505   4.079  1.00  0.00    -0.324 N 
HETATM    6  C   UNL     1      41.760 -13.545   4.889  1.00  0.00     0.245 C 
HETATM    7  O   UNL     1      42.555 -13.298   5.799  1.00  0.00    -0.271 OA
HETATM    8  C   UNL     1      41.017 -14.873   4.771  1.00  0.00     0.182 C 
HETATM    9  N   UNL     1      41.084 -15.381   3.409  1.00  0.00    -0.332 N 
HETATM   10  C   UNL     1      40.410 -14.863   2.333  1.00  0.00     0.256 C 
HETATM   11  O   UNL     1      40.303 -15.472   1.271  1.00  0.00    -0.267 OA
HETATM   12  C   UNL     1      41.627 -15.980   5.644  1.00  0.00     0.061 C 
HETATM   13  C   UNL     1      41.467 -17.238   4.786  1.00  0.00     0.105 C 
HETATM   14  C   UNL     1      41.679 -16.707   3.368  1.00  0.00     0.152 C 
HETATM   15  C   UNL     1      39.711 -11.186   3.033  1.00  0.00     0.031 A 
HETATM   16  C   UNL     1      38.552 -11.010   2.269  1.00  0.00     0.013 A 
HETATM   17  H   UNL     1      41.798 -11.633   4.380  1.00  0.00     0.169 HD
ENDROOT
BRANCH   1  18
HETATM   18  C   UNL     1      36.690 -11.926   0.917  1.00  0.00     0.012 C 
HETATM   19  C   UNL     1      35.888 -10.864   1.097  1.00  0.00     0.012 C 
BRANCH  19  20
HETATM   20  C   UNL     1      34.677 -10.601   0.308  1.00  0.00    -0.036 A 
HETATM   21  C   UNL     1      34.751 -10.641  -1.088  1.00  0.00     0.012 A 
HETATM   22  C   UNL     1      33.594 -10.545  -1.865  1.00  0.00     0.009 A 
HETATM   23  C   UNL     1      32.335 -10.422  -1.259  1.00  0.00    -0.049 A 
HETATM   24  C   UNL     1      32.262 -10.366   0.138  1.00  0.00     0.009 A 
HETATM   25  C   UNL     1      33.422 -10.456   0.914  1.00  0.00     0.012 A 
BRANCH  23  26
HETATM   26  C   UNL     1      31.081 -10.432  -2.096  1.00  0.00     0.112 C 
BRANCH  26  27
HETATM   27  S   UNL     1      30.657 -12.133  -2.597  1.00  0.00    -0.165 SA
BRANCH  27  28
HETATM   28  C   UNL     1      31.404 -12.136  -4.251  1.00  0.00     0.069 C 
HETATM   29  C   UNL     1      30.725 -11.090  -5.118  1.00  0.00     0.016 C 
ENDBRANCH  27  28
ENDBRANCH  26  27
ENDBRANCH  23  26
ENDBRANCH  19  20
ENDBRANCH   1  18
BRANCH  13  30
HETATM   30  N   UNL     1      42.283 -18.372   5.178  1.00  0.00    -0.355 N 
HETATM   31  C   UNL     1      43.646 -18.325   5.359  1.00  0.00     0.222 C 
HETATM   32  O   UNL     1      44.288 -17.285   5.216  1.00  0.00    -0.273 OA
HETATM   33  H   UNL     1      41.829 -19.279   5.198  1.00  0.00     0.162 HD
BRANCH  31  34
HETATM   34  C   UNL     1      44.369 -19.621   5.709  1.00  0.00     0.148 C 
BRANCH  34  35
HETATM   35  C   UNL     1      44.473 -20.606   4.582  1.00  0.00    -0.009 A 
HETATM   36  S   UNL     1      44.765 -22.265   4.912  1.00  0.00    -0.106 SA
HETATM   37  C   UNL     1      44.727 -22.668   3.252  1.00  0.00     0.050 A 
HETATM   38  C   UNL     1      44.493 -21.568   2.459  1.00  0.00     0.008 A 
HETATM   39  C   UNL     1      44.345 -20.376   3.226  1.00  0.00     0.015 A 
ENDBRANCH  34  35
ENDBRANCH  31  34
ENDBRANCH  13  30
TORSDOF 8
ENDMDL
MODEL 4
REMARK VINA RESULT:      -7.6      5.651     13.168
REMARK  8 active torsions:
REMARK  status: ('A' for Active; 'I' for Inactive)
REMARK    1  A    between atoms: C_2  and  S_3 
REMARK    2  A    between atoms: S_3  and  C_4 
REMARK    3  A    between atoms: C_4  and  C_5 
REMARK    4  A    between atoms: C_8  and  C_9 
REMARK    5  A    between atoms: C_10  and  C_11 
REMARK    6  A    between atoms: C_23  and  N_24 
REMARK       I    between atoms: N_24  and  C_25 
REMARK    7  A    between atoms: C_25  and  C_26 
REMARK    8  A    between atoms: C_26  and  C_27 
ROOT
HETATM    1  C   UNL     1      38.250 -13.362  -1.633  1.00  0.00    -0.035 A 
HETATM    2  C   UNL     1      39.410 -14.052  -1.262  1.00  0.00     0.030 A 
HETATM    3  C   UNL     1      39.844 -14.101   0.077  1.00  0.00     0.059 A 
HETATM    4  C   UNL     1      39.091 -13.461   1.069  1.00  0.00     0.050 A 
HETATM    5  N   UNL     1      39.328 -13.511   2.454  1.00  0.00    -0.324 N 
HETATM    6  C   UNL     1      39.865 -14.538   3.187  1.00  0.00     0.245 C 
HETATM    7  O   UNL     1      39.733 -14.494   4.413  1.00  0.00    -0.271 OA
HETATM    8  C   UNL     1      40.383 -15.771   2.450  1.00  0.00     0.182 C 
HETATM    9  N   UNL     1      41.399 -15.400   1.477  1.00  0.00    -0.332 N 
HETATM   10  C   UNL     1      41.166 -14.742   0.297  1.00  0.00     0.256 C 
HETATM   11  O   UNL     1      42.009 -14.678  -0.595  1.00  0.00    -0.267 OA
HETATM   12  C   UNL     1      41.069 -16.781   3.382  1.00  0.00     0.061 C 
HETATM   13  C   UNL     1      42.222 -17.323   2.533  1.00  0.00     0.105 C 
HETATM   14  C   UNL     1      42.651 -16.097   1.726  1.00  0.00     0.152 C 
HETATM   15  C   UNL     1      37.970 -12.708   0.683  1.00  0.00     0.031 A 
HETATM   16  C   UNL     1      37.542 -12.675  -0.649  1.00  0.00     0.013 A 
HETATM   17  H   UNL     1      38.842 -12.850   3.048  1.00  0.00     0.169 HD
ENDROOT
BRANCH   1  18
HETATM   18  C   UNL     1      37.715 -13.436  -2.999  1.00  0.00     0.012 C 
HETATM   19  C   UNL     1      36.555 -12.872  -3.370  1.00  0.00     0.012 C 
BRANCH  19  20
HETATM   20  C   UNL     1      36.082 -12.795  -4.759  1.00  0.00    -0.036 A 
HETATM   21  C   UNL     1      36.123 -11.565  -5.425  1.00  0.00     0.012 A 
HETATM   22  C   UNL     1      35.823 -11.484  -6.788  1.00  0.00     0.009 A 
HETATM   23  C   UNL     1      35.491 -12.636  -7.516  1.00  0.00    -0.049 A 
HETATM   24  C   UNL     1      35.435 -13.864  -6.845  1.00  0.00     0.009 A 
HETATM   25  C   UNL     1      35.729 -13.942  -5.481  1.00  0.00     0.012 A 
BRANCH  23  26
HETATM   26  C   UNL     1      35.280 -12.562  -9.007  1.00  0.00     0.112 C 
BRANCH  26  27
HETATM   27  S   UNL     1      33.641 -13.223  -9.457  1.00  0.00    -0.165 SA
BRANCH  27  28
HETATM   28  C   UNL     1      32.604 -11.899  -8.776  1.00  0.00     0.069 C 
HETATM   29  C   UNL     1      32.924 -10.590  -9.475  1.00  0.00     0.016 C 
ENDBRANCH  27  28
ENDBRANCH  26  27
ENDBRANCH  23  26
ENDBRANCH  19  20
ENDBRANCH   1  18
BRANCH  13  30
HETATM   30  N   UNL     1      43.269 -18.012   3.263  1.00  0.00    -0.355 N 
HETATM   31  C   UNL     1      43.657 -19.311   3.027  1.00  0.00     0.222 C 
HETATM   32  O   UNL     1      43.144 -19.995   2.142  1.00  0.00    -0.273 OA
HETATM   33  H   UNL     1      43.648 -17.541   4.078  1.00  0.00     0.162 HD
BRANCH  31  34
HETATM   34  C   UNL     1      44.731 -19.913   3.926  1.00  0.00     0.148 C 
BRANCH  34  35
HETATM   35  C   UNL     1      44.361 -19.993   5.379  1.00  0.00    -0.009 A 
HETATM   36  S   UNL     1      44.465 -18.597   6.371  1.00  0.00    -0.106 SA
HETATM   37  C   UNL     1      43.907 -19.452   7.741  1.00  0.00     0.050 A 
HETATM   38  C   UNL     1      43.641 -20.771   7.454  1.00  0.00     0.008 A 
HETATM   39  C   UNL     1      43.903 -21.085   6.089  1.00  0.00     0.015 A 
ENDBRANCH  34  35
ENDBRANCH  31  34
ENDBRANCH  13  30
TORSDOF 8
ENDMDL
MODEL 5
REMARK VINA RESULT:      -7.6      5.245     12.652
REMARK  8 active torsions:
REMARK  status: ('A' for Active; 'I' for Inactive)
REMARK    1  A    between atoms: C_2  and  S_3 
REMARK    2  A    between atoms: S_3  and  C_4 
REMARK    3  A    between atoms: C_4  and  C_5 
REMARK    4  A    between atoms: C_8  and  C_9 
REMARK    5  A    between atoms: C_10  and  C_11 
REMARK    6  A    between atoms: C_23  and  N_24 
REMARK       I    between atoms: N_24  and  C_25 
REMARK    7  A    between atoms: C_25  and  C_26 
REMARK    8  A    between atoms: C_26  and  C_27 
ROOT
HETATM    1  C   UNL     1      40.149 -12.873  -1.545  1.00  0.00    -0.035 A 
HETATM    2  C   UNL     1      40.459 -14.044  -0.842  1.00  0.00     0.030 A 
HETATM    3  C   UNL     1      41.258 -14.019   0.317  1.00  0.00     0.059 A 
HETATM    4  C   UNL     1      41.744 -12.795   0.793  1.00  0.00     0.050 A 
HETATM    5  N   UNL     1      42.455 -12.592   1.989  1.00  0.00    -0.324 N 
HETATM    6  C   UNL     1      42.348 -13.282   3.169  1.00  0.00     0.245 C 
HETATM    7  O   UNL     1      42.854 -12.776   4.174  1.00  0.00    -0.271 OA
HETATM    8  C   UNL     1      41.428 -14.499   3.225  1.00  0.00     0.182 C 
HETATM    9  N   UNL     1      41.811 -15.480   2.221  1.00  0.00    -0.332 N 
HETATM   10  C   UNL     1      41.623 -15.349   0.869  1.00  0.00     0.256 C 
HETATM   11  O   UNL     1      41.731 -16.299   0.097  1.00  0.00    -0.267 OA
HETATM   12  C   UNL     1      41.502 -15.245   4.565  1.00  0.00     0.061 C 
HETATM   13  C   UNL     1      41.368 -16.716   4.161  1.00  0.00     0.105 C 
HETATM   14  C   UNL     1      42.111 -16.768   2.827  1.00  0.00     0.152 C 
HETATM   15  C   UNL     1      41.493 -11.634   0.044  1.00  0.00     0.031 A 
HETATM   16  C   UNL     1      40.688 -11.668  -1.100  1.00  0.00     0.013 A 
HETATM   17  H   UNL     1      42.925 -11.704   2.122  1.00  0.00     0.169 HD
ENDROOT
BRANCH   1  18
HETATM   18  C   UNL     1      39.194 -12.878  -2.661  1.00  0.00     0.012 C 
HETATM   19  C   UNL     1      37.950 -13.373  -2.568  1.00  0.00     0.012 C 
BRANCH  19  20
HETATM   20  C   UNL     1      36.928 -13.241  -3.616  1.00  0.00    -0.036 A 
HETATM   21  C   UNL     1      36.527 -11.964  -4.020  1.00  0.00     0.012 A 
HETATM   22  C   UNL     1      35.672 -11.799  -5.112  1.00  0.00     0.009 A 
HETATM   23  C   UNL     1      35.212 -12.910  -5.834  1.00  0.00    -0.049 A 
HETATM   24  C   UNL     1      35.601 -14.190  -5.419  1.00  0.00     0.009 A 
HETATM   25  C   UNL     1      36.451 -14.353  -4.322  1.00  0.00     0.012 A 
BRANCH  23  26
HETATM   26  C   UNL     1      34.383 -12.722  -7.078  1.00  0.00     0.112 C 
BRANCH  26  27
HETATM   27  S   UNL     1      35.427 -12.831  -8.569  1.00  0.00    -0.165 SA
BRANCH  27  28
HETATM   28  C   UNL     1      35.085 -14.553  -9.030  1.00  0.00     0.069 C 
HETATM   29  C   UNL     1      36.382 -15.245  -9.414  1.00  0.00     0.016 C 
ENDBRANCH  27  28
ENDBRANCH  26  27
ENDBRANCH  23  26
ENDBRANCH  19  20
ENDBRANCH   1  18
BRANCH  13  30
HETATM   30  N   UNL     1      41.777 -17.681   5.164  1.00  0.00    -0.355 N 
HETATM   31  C   UNL     1      42.935 -17.594   5.901  1.00  0.00     0.222 C 
HETATM   32  O   UNL     1      43.722 -16.656   5.774  1.00  0.00    -0.273 OA
HETATM   33  H   UNL     1      41.230 -18.533   5.232  1.00  0.00     0.162 HD
BRANCH  31  34
HETATM   34  C   UNL     1      43.255 -18.726   6.872  1.00  0.00     0.148 C 
BRANCH  34  35
HETATM   35  C   UNL     1      43.847 -19.950   6.237  1.00  0.00    -0.009 A 
HETATM   36  S   UNL     1      44.616 -19.840   4.707  1.00  0.00    -0.106 SA
HETATM   37  C   UNL     1      44.995 -21.506   4.706  1.00  0.00     0.050 A 
HETATM   38  C   UNL     1      44.551 -22.137   5.846  1.00  0.00     0.008 A 
HETATM   39  C   UNL     1      43.888 -21.238   6.732  1.00  0.00     0.015 A 
ENDBRANCH  34  35
ENDBRANCH  31  34
ENDBRANCH  13  30
TORSDOF 8
ENDMDL
MODEL 6
REMARK VINA RESULT:      -7.5      6.747      9.545
REMARK  8 active torsions:
REMARK  status: ('A' for Active; 'I' for Inactive)
REMARK    1  A    between atoms: C_2  and  S_3 
REMARK    2  A    between atoms: S_3  and  C_4 
REMARK    3  A    between atoms: C_4  and  C_5 
REMARK    4  A    between atoms: C_8  and  C_9 
REMARK    5  A    between atoms: C_10  and  C_11 
REMARK    6  A    between atoms: C_23  and  N_24 
REMARK       I    between atoms: N_24  and  C_25 
REMARK    7  A    between atoms: C_25  and  C_26 
REMARK    8  A    between atoms: C_26  and  C_27 
ROOT
HETATM    1  C   UNL     1      39.557 -14.945   1.034  1.00  0.00    -0.035 A 
HETATM    2  C   UNL     1      40.076 -14.400  -0.147  1.00  0.00     0.030 A 
HETATM    3  C   UNL     1      39.327 -13.511  -0.942  1.00  0.00     0.059 A 
HETATM    4  C   UNL     1      38.037 -13.145  -0.538  1.00  0.00     0.050 A 
HETATM    5  N   UNL     1      37.212 -12.190  -1.157  1.00  0.00    -0.324 N 
HETATM    6  C   UNL     1      37.584 -11.053  -1.828  1.00  0.00     0.245 C 
HETATM    7  O   UNL     1      36.710 -10.212  -2.054  1.00  0.00    -0.271 OA
HETATM    8  C   UNL     1      39.071 -10.787  -2.050  1.00  0.00     0.182 C 
HETATM    9  N   UNL     1      39.691 -11.894  -2.763  1.00  0.00    -0.332 N 
HETATM   10  C   UNL     1      39.950 -13.133  -2.237  1.00  0.00     0.256 C 
HETATM   11  O   UNL     1      40.693 -13.939  -2.792  1.00  0.00    -0.267 OA
HETATM   12  C   UNL     1      39.334  -9.550  -2.920  1.00  0.00     0.061 C 
HETATM   13  C   UNL     1      40.554  -9.954  -3.753  1.00  0.00     0.105 C 
HETATM   14  C   UNL     1      40.317 -11.444  -3.996  1.00  0.00     0.152 C 
HETATM   15  C   UNL     1      37.493 -13.750   0.606  1.00  0.00     0.031 A 
HETATM   16  C   UNL     1      38.250 -14.624   1.395  1.00  0.00     0.013 A 
HETATM   17  H   UNL     1      36.234 -12.161  -0.897  1.00  0.00     0.169 HD
ENDROOT
BRANCH   1  18
HETATM   18  C   UNL     1      40.388 -15.749   1.939  1.00  0.00     0.012 C 
HETATM   19  C   UNL     1      40.744 -17.018   1.685  1.00  0.00     0.012 C 
BRANCH  19  20
HETATM   20  C   UNL     1      41.703 -17.784   2.493  1.00  0.00    -0.036 A 
HETATM   21  C   UNL     1      42.717 -18.500   1.849  1.00  0.00     0.012 A 
HETATM   22  C   UNL     1      43.732 -19.115   2.586  1.00  0.00     0.009 A 
HETATM   23  C   UNL     1      43.762 -19.013   3.984  1.00  0.00    -0.049 A 
HETATM   24  C   UNL     1      42.737 -18.310   4.630  1.00  0.00     0.009 A 
HETATM   25  C   UNL     1      41.719 -17.701   3.891  1.00  0.00     0.012 A 
BRANCH  23  26
HETATM   26  C   UNL     1      44.918 -19.581   4.767  1.00  0.00     0.112 C 
BRANCH  26  27
HETATM   27  S   UNL     1      44.346 -20.887   5.904  1.00  0.00    -0.165 SA
BRANCH  27  28
HETATM   28  C   UNL     1      45.176 -22.309   5.144  1.00  0.00     0.069 C 
HETATM   29  C   UNL     1      44.560 -22.593   3.785  1.00  0.00     0.016 C 
ENDBRANCH  27  28
ENDBRANCH  26  27
ENDBRANCH  23  26
ENDBRANCH  19  20
ENDBRANCH   1  18
BRANCH  13  30
HETATM   30  N   UNL     1      40.808  -9.142  -4.928  1.00  0.00    -0.355 N 
HETATM   31  C   UNL     1      41.934  -8.373  -5.114  1.00  0.00     0.222 C 
HETATM   32  O   UNL     1      42.842  -8.331  -4.284  1.00  0.00    -0.273 OA
HETATM   33  H   UNL     1      40.048  -9.044  -5.592  1.00  0.00     0.162 HD
BRANCH  31  34
HETATM   34  C   UNL     1      42.022  -7.523  -6.377  1.00  0.00     0.148 C 
BRANCH  34  35
HETATM   35  C   UNL     1      42.223  -8.301  -7.645  1.00  0.00    -0.009 A 
HETATM   36  S   UNL     1      43.188  -7.654  -8.908  1.00  0.00    -0.106 SA
HETATM   37  C   UNL     1      42.946  -9.033  -9.886  1.00  0.00     0.050 A 
HETATM   38  C   UNL     1      42.152  -9.972  -9.268  1.00  0.00     0.008 A 
HETATM   39  C   UNL     1      41.734  -9.550  -7.972  1.00  0.00     0.015 A 
ENDBRANCH  34  35
ENDBRANCH  31  34
ENDBRANCH  13  30
TORSDOF 8
ENDMDL
MODEL 7
REMARK VINA RESULT:      -7.4      5.302     11.341
REMARK  8 active torsions:
REMARK  status: ('A' for Active; 'I' for Inactive)
REMARK    1  A    between atoms: C_2  and  S_3 
REMARK    2  A    between atoms: S_3  and  C_4 
REMARK    3  A    between atoms: C_4  and  C_5 
REMARK    4  A    between atoms: C_8  and  C_9 
REMARK    5  A    between atoms: C_10  and  C_11 
REMARK    6  A    between atoms: C_23  and  N_24 
REMARK       I    between atoms: N_24  and  C_25 
REMARK    7  A    between atoms: C_25  and  C_26 
REMARK    8  A    between atoms: C_26  and  C_27 
ROOT
HETATM    1  C   UNL     1      37.785 -10.090   2.962  1.00  0.00    -0.035 A 
HETATM    2  C   UNL     1      38.682 -11.110   2.622  1.00  0.00     0.030 A 
HETATM    3  C   UNL     1      39.814 -11.393   3.411  1.00  0.00     0.059 A 
HETATM    4  C   UNL     1      40.044 -10.650   4.576  1.00  0.00     0.050 A 
HETATM    5  N   UNL     1      41.058 -10.881   5.522  1.00  0.00    -0.324 N 
HETATM    6  C   UNL     1      41.626 -12.076   5.884  1.00  0.00     0.245 C 
HETATM    7  O   UNL     1      42.295 -12.099   6.920  1.00  0.00    -0.271 OA
HETATM    8  C   UNL     1      41.217 -13.339   5.130  1.00  0.00     0.182 C 
HETATM    9  N   UNL     1      41.469 -13.191   3.704  1.00  0.00    -0.332 N 
HETATM   10  C   UNL     1      40.750 -12.399   2.848  1.00  0.00     0.256 C 
HETATM   11  O   UNL     1      40.841 -12.502   1.626  1.00  0.00    -0.267 OA
HETATM   12  C   UNL     1      42.022 -14.576   5.555  1.00  0.00     0.061 C 
HETATM   13  C   UNL     1      42.201 -15.350   4.246  1.00  0.00     0.105 C 
HETATM   14  C   UNL     1      42.357 -14.234   3.214  1.00  0.00     0.152 C 
HETATM   15  C   UNL     1      39.184  -9.580   4.874  1.00  0.00     0.031 A 
HETATM   16  C   UNL     1      38.056  -9.316   4.089  1.00  0.00     0.013 A 
HETATM   17  H   UNL     1      41.246 -10.161   6.208  1.00  0.00     0.169 HD
ENDROOT
BRANCH   1  18
HETATM   18  C   UNL     1      36.529  -9.896   2.228  1.00  0.00     0.012 C 
HETATM   19  C   UNL     1      36.250 -10.506   1.065  1.00  0.00     0.012 C 
BRANCH  19  20
HETATM   20  C   UNL     1      34.942 -10.454   0.398  1.00  0.00    -0.036 A 
HETATM   21  C   UNL     1      34.878 -10.607  -0.991  1.00  0.00     0.012 A 
HETATM   22  C   UNL     1      33.645 -10.712  -1.640  1.00  0.00     0.009 A 
HETATM   23  C   UNL     1      32.449 -10.681  -0.909  1.00  0.00    -0.049 A 
HETATM   24  C   UNL     1      32.512 -10.512   0.480  1.00  0.00     0.009 A 
HETATM   25  C   UNL     1      33.746 -10.400   1.126  1.00  0.00     0.012 A 
BRANCH  23  26
HETATM   26  C   UNL     1      31.127 -10.908  -1.598  1.00  0.00     0.112 C 
BRANCH  26  27
HETATM   27  S   UNL     1      31.278 -12.212  -2.864  1.00  0.00    -0.165 SA
BRANCH  27  28
HETATM   28  C   UNL     1      30.669 -11.286  -4.300  1.00  0.00     0.069 C 
HETATM   29  C   UNL     1      31.792 -10.440  -4.874  1.00  0.00     0.016 C 
ENDBRANCH  27  28
ENDBRANCH  26  27
ENDBRANCH  23  26
ENDBRANCH  19  20
ENDBRANCH   1  18
BRANCH  13  30
HETATM   30  N   UNL     1      43.236 -16.367   4.256  1.00  0.00    -0.355 N 
HETATM   31  C   UNL     1      43.044 -17.669   4.657  1.00  0.00     0.222 C 
HETATM   32  O   UNL     1      41.946 -18.083   5.028  1.00  0.00    -0.273 OA
HETATM   33  H   UNL     1      44.185 -16.059   4.073  1.00  0.00     0.162 HD
BRANCH  31  34
HETATM   34  C   UNL     1      44.250 -18.601   4.671  1.00  0.00     0.148 C 
BRANCH  34  35
HETATM   35  C   UNL     1      44.181 -19.735   3.690  1.00  0.00    -0.009 A 
HETATM   36  S   UNL     1      44.892 -21.249   4.072  1.00  0.00    -0.106 SA
HETATM   37  C   UNL     1      44.401 -21.927   2.582  1.00  0.00     0.050 A 
HETATM   38  C   UNL     1      43.706 -21.026   1.808  1.00  0.00     0.008 A 
HETATM   39  C   UNL     1      43.578 -19.759   2.448  1.00  0.00     0.015 A 
ENDBRANCH  34  35
ENDBRANCH  31  34
ENDBRANCH  13  30
TORSDOF 8
ENDMDL
MODEL 8
REMARK VINA RESULT:      -7.3      5.370     12.188
REMARK  8 active torsions:
REMARK  status: ('A' for Active; 'I' for Inactive)
REMARK    1  A    between atoms: C_2  and  S_3 
REMARK    2  A    between atoms: S_3  and  C_4 
REMARK    3  A    between atoms: C_4  and  C_5 
REMARK    4  A    between atoms: C_8  and  C_9 
REMARK    5  A    between atoms: C_10  and  C_11 
REMARK    6  A    between atoms: C_23  and  N_24 
REMARK       I    between atoms: N_24  and  C_25 
REMARK    7  A    between atoms: C_25  and  C_26 
REMARK    8  A    between atoms: C_26  and  C_27 
ROOT
HETATM    1  C   UNL     1      38.448 -12.154   0.522  1.00  0.00    -0.035 A 
HETATM    2  C   UNL     1      39.467 -13.110   0.614  1.00  0.00     0.030 A 
HETATM    3  C   UNL     1      40.065 -13.436   1.845  1.00  0.00     0.059 A 
HETATM    4  C   UNL     1      39.623 -12.806   3.015  1.00  0.00     0.050 A 
HETATM    5  N   UNL     1      40.038 -13.100   4.326  1.00  0.00    -0.324 N 
HETATM    6  C   UNL     1      40.433 -14.308   4.841  1.00  0.00     0.245 C 
HETATM    7  O   UNL     1      40.490 -14.414   6.068  1.00  0.00    -0.271 OA
HETATM    8  C   UNL     1      40.553 -15.502   3.897  1.00  0.00     0.182 C 
HETATM    9  N   UNL     1      41.476 -15.208   2.811  1.00  0.00    -0.332 N 
HETATM   10  C   UNL     1      41.229 -14.356   1.766  1.00  0.00     0.256 C 
HETATM   11  O   UNL     1      41.929 -14.336   0.756  1.00  0.00    -0.267 OA
HETATM   12  C   UNL     1      41.124 -16.752   4.583  1.00  0.00     0.061 C 
HETATM   13  C   UNL     1      41.994 -17.389   3.495  1.00  0.00     0.105 C 
HETATM   14  C   UNL     1      42.564 -16.172   2.766  1.00  0.00     0.152 C 
HETATM   15  C   UNL     1      38.654 -11.795   2.910  1.00  0.00     0.031 A 
HETATM   16  C   UNL     1      38.058 -11.486   1.682  1.00  0.00     0.013 A 
HETATM   17  H   UNL     1      39.801 -12.445   5.062  1.00  0.00     0.169 HD
ENDROOT
BRANCH   1  18
HETATM   18  C   UNL     1      37.721 -11.923  -0.732  1.00  0.00     0.012 C 
HETATM   19  C   UNL     1      37.948 -12.620  -1.857  1.00  0.00     0.012 C 
BRANCH  19  20
HETATM   20  C   UNL     1      37.126 -12.519  -3.071  1.00  0.00    -0.036 A 
HETATM   21  C   UNL     1      36.965 -13.648  -3.881  1.00  0.00     0.012 A 
HETATM   22  C   UNL     1      36.074 -13.631  -4.957  1.00  0.00     0.009 A 
HETATM   23  C   UNL     1      35.312 -12.487  -5.235  1.00  0.00    -0.049 A 
HETATM   24  C   UNL     1      35.485 -11.351  -4.434  1.00  0.00     0.009 A 
HETATM   25  C   UNL     1      36.382 -11.368  -3.362  1.00  0.00     0.012 A 
BRANCH  23  26
HETATM   26  C   UNL     1      34.271 -12.509  -6.325  1.00  0.00     0.112 C 
BRANCH  26  27
HETATM   27  S   UNL     1      34.696 -11.326  -7.646  1.00  0.00    -0.165 SA
BRANCH  27  28
HETATM   28  C   UNL     1      34.765 -12.476  -9.047  1.00  0.00     0.069 C 
HETATM   29  C   UNL     1      34.621 -13.902  -8.543  1.00  0.00     0.016 C 
ENDBRANCH  27  28
ENDBRANCH  26  27
ENDBRANCH  23  26
ENDBRANCH  19  20
ENDBRANCH   1  18
BRANCH  13  30
HETATM   30  N   UNL     1      42.955 -18.372   3.957  1.00  0.00    -0.355 N 
HETATM   31  C   UNL     1      43.934 -18.125   4.892  1.00  0.00     0.222 C 
HETATM   32  O   UNL     1      44.057 -17.027   5.433  1.00  0.00    -0.273 OA
HETATM   33  H   UNL     1      42.977 -19.260   3.465  1.00  0.00     0.162 HD
BRANCH  31  34
HETATM   34  C   UNL     1      44.909 -19.249   5.224  1.00  0.00     0.148 C 
BRANCH  34  35
HETATM   35  C   UNL     1      44.797 -20.459   4.344  1.00  0.00    -0.009 A 
HETATM   36  S   UNL     1      44.810 -22.030   5.035  1.00  0.00    -0.106 SA
HETATM   37  C   UNL     1      44.636 -22.773   3.507  1.00  0.00     0.050 A 
HETATM   38  C   UNL     1      44.564 -21.850   2.489  1.00  0.00     0.008 A 
HETATM   39  C   UNL     1      44.656 -20.512   2.971  1.00  0.00     0.015 A 
ENDBRANCH  34  35
ENDBRANCH  31  34
ENDBRANCH  13  30
TORSDOF 8
ENDMDL
MODEL 9
REMARK VINA RESULT:      -7.2      6.982     10.487
REMARK  8 active torsions:
REMARK  status: ('A' for Active; 'I' for Inactive)
REMARK    1  A    between atoms: C_2  and  S_3 
REMARK    2  A    between atoms: S_3  and  C_4 
REMARK    3  A    between atoms: C_4  and  C_5 
REMARK    4  A    between atoms: C_8  and  C_9 
REMARK    5  A    between atoms: C_10  and  C_11 
REMARK    6  A    between atoms: C_23  and  N_24 
REMARK       I    between atoms: N_24  and  C_25 
REMARK    7  A    between atoms: C_25  and  C_26 
REMARK    8  A    between atoms: C_26  and  C_27 
ROOT
HETATM    1  C   UNL     1      40.821 -14.141  -0.499  1.00  0.00    -0.035 A 
HETATM    2  C   UNL     1      39.922 -13.428   0.303  1.00  0.00     0.030 A 
HETATM    3  C   UNL     1      39.101 -12.416  -0.228  1.00  0.00     0.059 A 
HETATM    4  C   UNL     1      39.167 -12.122  -1.596  1.00  0.00     0.050 A 
HETATM    5  N   UNL     1      38.340 -11.225  -2.294  1.00  0.00    -0.324 N 
HETATM    6  C   UNL     1      37.029 -10.908  -2.045  1.00  0.00     0.245 C 
HETATM    7  O   UNL     1      36.407 -10.316  -2.931  1.00  0.00    -0.271 OA
HETATM    8  C   UNL     1      36.356 -11.496  -0.807  1.00  0.00     0.182 C 
HETATM    9  N   UNL     1      37.091 -11.137   0.397  1.00  0.00    -0.332 N 
HETATM   10  C   UNL     1      38.309 -11.648   0.767  1.00  0.00     0.256 C 
HETATM   11  O   UNL     1      38.762 -11.506   1.900  1.00  0.00    -0.267 OA
HETATM   12  C   UNL     1      34.935 -10.958  -0.586  1.00  0.00     0.061 C 
HETATM   13  C   UNL     1      34.830 -10.846   0.937  1.00  0.00     0.105 C 
HETATM   14  C   UNL     1      36.243 -10.429   1.342  1.00  0.00     0.152 C 
HETATM   15  C   UNL     1      40.121 -12.787  -2.382  1.00  0.00     0.031 A 
HETATM   16  C   UNL     1      40.925 -13.800  -1.846  1.00  0.00     0.013 A 
HETATM   17  H   UNL     1      38.614 -10.948  -3.229  1.00  0.00     0.169 HD
ENDROOT
BRANCH   1  18
HETATM   18  C   UNL     1      41.565 -15.296   0.021  1.00  0.00     0.012 C 
HETATM   19  C   UNL     1      42.104 -15.336   1.250  1.00  0.00     0.012 C 
BRANCH  19  20
HETATM   20  C   UNL     1      42.709 -16.534   1.848  1.00  0.00    -0.036 A 
HETATM   21  C   UNL     1      42.059 -17.167   2.912  1.00  0.00     0.012 A 
HETATM   22  C   UNL     1      42.524 -18.388   3.406  1.00  0.00     0.009 A 
HETATM   23  C   UNL     1      43.643 -19.010   2.833  1.00  0.00    -0.049 A 
HETATM   24  C   UNL     1      44.304 -18.369   1.777  1.00  0.00     0.009 A 
HETATM   25  C   UNL     1      43.840 -17.144   1.290  1.00  0.00     0.012 A 
BRANCH  23  26
HETATM   26  C   UNL     1      44.073 -20.380   3.292  1.00  0.00     0.112 C 
BRANCH  26  27
HETATM   27  S   UNL     1      44.647 -20.327   5.023  1.00  0.00    -0.165 SA
BRANCH  27  28
HETATM   28  C   UNL     1      45.033 -22.085   5.248  1.00  0.00     0.069 C 
HETATM   29  C   UNL     1      44.633 -22.858   4.003  1.00  0.00     0.016 C 
ENDBRANCH  27  28
ENDBRANCH  26  27
ENDBRANCH  23  26
ENDBRANCH  19  20
ENDBRANCH   1  18
BRANCH  13  30
HETATM   30  N   UNL     1      33.747 -10.018   1.432  1.00  0.00    -0.355 N 
HETATM   31  C   UNL     1      33.640  -8.664   1.213  1.00  0.00     0.222 C 
HETATM   32  O   UNL     1      34.468  -8.042   0.548  1.00  0.00    -0.273 OA
HETATM   33  H   UNL     1      33.098 -10.449   2.082  1.00  0.00     0.162 HD
BRANCH  31  34
HETATM   34  C   UNL     1      32.474  -7.922   1.857  1.00  0.00     0.148 C 
BRANCH  34  35
HETATM   35  C   UNL     1      32.416  -8.020   3.354  1.00  0.00    -0.009 A 
HETATM   36  S   UNL     1      33.767  -7.550   4.300  1.00  0.00    -0.106 SA
HETATM   37  C   UNL     1      32.955  -7.916   5.758  1.00  0.00     0.050 A 
HETATM   38  C   UNL     1      31.680  -8.383   5.535  1.00  0.00     0.008 A 
HETATM   39  C   UNL     1      31.367  -8.443   4.146  1.00  0.00     0.015 A 
ENDBRANCH  34  35
ENDBRANCH  31  34
ENDBRANCH  13  30
TORSDOF 8
ENDMDL
MODEL 10
REMARK VINA RESULT:      -7.2      4.057      5.505
REMARK  8 active torsions:
REMARK  status: ('A' for Active; 'I' for Inactive)
REMARK    1  A    between atoms: C_2  and  S_3 
REMARK    2  A    between atoms: S_3  and  C_4 
REMARK    3  A    between atoms: C_4  and  C_5 
REMARK    4  A    between atoms: C_8  and  C_9 
REMARK    5  A    between atoms: C_10  and  C_11 
REMARK    6  A    between atoms: C_23  and  N_24 
REMARK       I    between atoms: N_24  and  C_25 
REMARK    7  A    between atoms: C_25  and  C_26 
REMARK    8  A    between atoms: C_26  and  C_27 
ROOT
HETATM    1  C   UNL     1      40.477 -13.853   3.148  1.00  0.00    -0.035 A 
HETATM    2  C   UNL     1      41.042 -13.091   2.118  1.00  0.00     0.030 A 
HETATM    3  C   UNL     1      41.214 -13.613   0.822  1.00  0.00     0.059 A 
HETATM    4  C   UNL     1      40.796 -14.921   0.545  1.00  0.00     0.050 A 
HETATM    5  N   UNL     1      40.796 -15.544  -0.715  1.00  0.00    -0.324 N 
HETATM    6  C   UNL     1      40.614 -14.970  -1.947  1.00  0.00     0.245 C 
HETATM    7  O   UNL     1      40.374 -15.719  -2.896  1.00  0.00    -0.271 OA
HETATM    8  C   UNL     1      40.490 -13.450  -2.035  1.00  0.00     0.182 C 
HETATM    9  N   UNL     1      41.661 -12.804  -1.460  1.00  0.00    -0.332 N 
HETATM   10  C   UNL     1      41.959 -12.743  -0.123  1.00  0.00     0.256 C 
HETATM   11  O   UNL     1      42.812 -11.980   0.324  1.00  0.00    -0.267 OA
HETATM   12  C   UNL     1      40.418 -12.939  -3.481  1.00  0.00     0.061 C 
HETATM   13  C   UNL     1      41.206 -11.627  -3.434  1.00  0.00     0.105 C 
HETATM   14  C   UNL     1      42.314 -11.935  -2.427  1.00  0.00     0.152 C 
HETATM   15  C   UNL     1      40.299 -15.706   1.598  1.00  0.00     0.031 A 
HETATM   16  C   UNL     1      40.122 -15.173   2.880  1.00  0.00     0.013 A 
HETATM   17  H   UNL     1      40.664 -16.548  -0.754  1.00  0.00     0.169 HD
ENDROOT
BRANCH   1  18
HETATM   18  C   UNL     1      40.158 -13.263   4.455  1.00  0.00     0.012 C 
HETATM   19  C   UNL     1      41.067 -12.653   5.232  1.00  0.00     0.012 C 
BRANCH  19  20
HETATM   20  C   UNL     1      40.740 -11.916   6.461  1.00  0.00    -0.036 A 
HETATM   21  C   UNL     1      39.519 -12.159   7.097  1.00  0.00     0.012 A 
HETATM   22  C   UNL     1      39.239 -11.591   8.343  1.00  0.00     0.009 A 
HETATM   23  C   UNL     1      40.184 -10.779   8.985  1.00  0.00    -0.049 A 
HETATM   24  C   UNL     1      41.401 -10.522   8.341  1.00  0.00     0.009 A 
HETATM   25  C   UNL     1      41.676 -11.086   7.092  1.00  0.00     0.012 A 
BRANCH  23  26
HETATM   26  C   UNL     1      39.925 -10.261  10.377  1.00  0.00     0.112 C 
BRANCH  26  27
HETATM   27  S   UNL     1      41.447  -9.559  11.095  1.00  0.00    -0.165 SA
BRANCH  27  28
HETATM   28  C   UNL     1      41.973 -10.981  12.092  1.00  0.00     0.069 C 
HETATM   29  C   UNL     1      43.298 -11.508  11.568  1.00  0.00     0.016 C 
ENDBRANCH  27  28
ENDBRANCH  26  27
ENDBRANCH  23  26
ENDBRANCH  19  20
ENDBRANCH   1  18
BRANCH  13  30
HETATM   30  N   UNL     1      41.631 -11.104  -4.719  1.00  0.00    -0.355 N 
HETATM   31  C   UNL     1      41.587  -9.775  -5.072  1.00  0.00     0.222 C 
HETATM   32  O   UNL     1      41.190  -8.906  -4.297  1.00  0.00    -0.273 OA
HETATM   33  H   UNL     1      41.858 -11.783  -5.439  1.00  0.00     0.162 HD
BRANCH  31  34
HETATM   34  C   UNL     1      42.010  -9.394  -6.487  1.00  0.00     0.148 C 
BRANCH  34  35
HETATM   35  C   UNL     1      41.088  -9.874  -7.569  1.00  0.00    -0.009 A 
HETATM   36  S   UNL     1      41.724 -10.379  -9.081  1.00  0.00    -0.106 SA
HETATM   37  C   UNL     1      40.170 -10.755  -9.682  1.00  0.00     0.050 A 
HETATM   38  C   UNL     1      39.183 -10.508  -8.754  1.00  0.00     0.008 A 
HETATM   39  C   UNL     1      39.713  -9.999  -7.532  1.00  0.00     0.015 A 
ENDBRANCH  34  35
ENDBRANCH  31  34
ENDBRANCH  13  30
TORSDOF 8
ENDMDL
