MODEL 1
REMARK VINA RESULT:      -8.6      0.000      0.000
REMARK  8 active torsions:
REMARK  status: ('A' for Active; 'I' for Inactive)
REMARK    1  A    between atoms: C_6  and  N_7 
REMARK       I    between atoms: N_7  and  C_8 
REMARK    2  A    between atoms: C_8  and  C_9 
REMARK    3  A    between atoms: C_9  and  N_10 
REMARK       I    between atoms: N_10  and  C_11 
REMARK    4  A    between atoms: C_11  and  C_12 
REMARK    5  A    between atoms: C_12  and  S_13 
REMARK    6  A    between atoms: S_13  and  C_14 
REMARK    7  A    between atoms: C_16  and  C_17 
REMARK    8  A    between atoms: C_20  and  O_21 
ROOT
HETATM    1  N   UNL     1      41.119 -12.974   2.161  1.00  0.00    -0.352 N 
HETATM    2  C   UNL     1      41.496 -12.778   0.857  1.00  0.00     0.227 C 
HETATM    3  O   UNL     1      42.545 -12.201   0.567  1.00  0.00    -0.273 OA
HETATM    4  H   UNL     1      40.298 -13.551   2.341  1.00  0.00     0.162 HD
ENDROOT
BRANCH   2   5
HETATM    5  C   UNL     1      40.514 -13.277  -0.193  1.00  0.00     0.185 C 
BRANCH   5   6
HETATM    6  S   UNL     1      41.086 -14.796  -1.018  1.00  0.00    -0.081 SA
BRANCH   6   7
HETATM    7  C   UNL     1      41.246 -15.869   0.315  1.00  0.00     0.185 A 
HETATM    8  N   UNL     1      42.307 -16.554   0.658  1.00  0.00    -0.201 NA
HETATM    9  C   UNL     1      41.876 -17.288   1.746  1.00  0.00     0.182 A 
HETATM   10  N   UNL     1      40.593 -17.061   2.078  1.00  0.00    -0.152 NA
HETATM   11  N   UNL     1      40.217 -16.163   1.149  1.00  0.00    -0.253 N 
HETATM   12  H   UNL     1      39.267 -15.811   1.137  1.00  0.00     0.191 HD
BRANCH   9  13
HETATM   13  C   UNL     1      42.757 -18.241   2.416  1.00  0.00     0.014 A 
HETATM   14  C   UNL     1      43.310 -17.928   3.666  1.00  0.00     0.018 A 
HETATM   15  C   UNL     1      44.180 -18.817   4.303  1.00  0.00     0.037 A 
HETATM   16  C   UNL     1      44.513 -20.034   3.708  1.00  0.00     0.068 A 
HETATM   17  C   UNL     1      43.960 -20.360   2.470  1.00  0.00     0.037 A 
HETATM   18  C   UNL     1      43.088 -19.468   1.828  1.00  0.00     0.018 A 
BRANCH  16  19
HETATM   19  O   UNL     1      45.377 -20.803   4.436  1.00  0.00    -0.356 OA
HETATM   20  C   UNL     1      44.904 -22.072   4.869  1.00  0.00     0.210 C 
ENDBRANCH  16  19
ENDBRANCH   9  13
ENDBRANCH   6   7
ENDBRANCH   5   6
ENDBRANCH   2   5
BRANCH   1  21
HETATM   21  C   UNL     1      41.907 -12.551   3.301  1.00  0.00     0.225 C 
BRANCH  21  22
HETATM   22  C   UNL     1      42.712 -13.691   3.939  1.00  0.00     0.239 C 
HETATM   23  N   UNL     1      42.419 -13.863   5.284  1.00  0.00    -0.325 N 
HETATM   24  H   UNL     1      41.580 -13.373   5.596  1.00  0.00     0.169 HD
HETATM   25  O   UNL     1      43.425 -14.420   3.253  1.00  0.00    -0.271 OA
BRANCH  23  26
HETATM   26  C   UNL     1      42.837 -14.964   6.064  1.00  0.00     0.046 A 
HETATM   27  C   UNL     1      44.119 -15.039   6.642  1.00  0.00    -0.034 A 
HETATM   28  C   UNL     1      44.471 -16.185   7.380  1.00  0.00     0.015 A 
HETATM   29  C   UNL     1      45.138 -13.934   6.562  1.00  0.00     0.050 C 
HETATM   30  C   UNL     1      43.565 -17.227   7.586  1.00  0.00    -0.061 A 
HETATM   31  C   UNL     1      43.943 -18.430   8.396  1.00  0.00     0.048 C 
HETATM   32  C   UNL     1      42.275 -17.112   7.063  1.00  0.00     0.015 A 
HETATM   33  C   UNL     1      41.898 -15.993   6.302  1.00  0.00    -0.034 A 
HETATM   34  C   UNL     1      40.507 -15.955   5.727  1.00  0.00     0.050 C 
ENDBRANCH  23  26
ENDBRANCH  21  22
ENDBRANCH   1  21
TORSDOF 8
ENDMDL
MODEL 2
REMARK VINA RESULT:      -8.4      0.149      1.571
REMARK  8 active torsions:
REMARK  status: ('A' for Active; 'I' for Inactive)
REMARK    1  A    between atoms: C_6  and  N_7 
REMARK       I    between atoms: N_7  and  C_8 
REMARK    2  A    between atoms: C_8  and  C_9 
REMARK    3  A    between atoms: C_9  and  N_10 
REMARK       I    between atoms: N_10  and  C_11 
REMARK    4  A    between atoms: C_11  and  C_12 
REMARK    5  A    between atoms: C_12  and  S_13 
REMARK    6  A    between atoms: S_13  and  C_14 
REMARK    7  A    between atoms: C_16  and  C_17 
REMARK    8  A    between atoms: C_20  and  O_21 
ROOT
HETATM    1  N   UNL     1      41.239 -13.102   2.167  1.00  0.00    -0.352 N 
HETATM    2  C   UNL     1      41.536 -12.794   0.865  1.00  0.00     0.227 C 
HETATM    3  O   UNL     1      42.515 -12.109   0.568  1.00  0.00    -0.273 OA
HETATM    4  H   UNL     1      40.480 -13.759   2.344  1.00  0.00     0.162 HD
ENDROOT
BRANCH   2   5
HETATM    5  C   UNL     1      40.553 -13.314  -0.174  1.00  0.00     0.185 C 
BRANCH   5   6
HETATM    6  S   UNL     1      41.155 -14.813  -1.016  1.00  0.00    -0.081 SA
BRANCH   6   7
HETATM    7  C   UNL     1      41.287 -15.913   0.297  1.00  0.00     0.185 A 
HETATM    8  N   UNL     1      42.352 -16.571   0.675  1.00  0.00    -0.201 NA
HETATM    9  C   UNL     1      41.896 -17.347   1.723  1.00  0.00     0.182 A 
HETATM   10  N   UNL     1      40.590 -17.170   1.997  1.00  0.00    -0.152 NA
HETATM   11  N   UNL     1      40.229 -16.262   1.072  1.00  0.00    -0.253 N 
HETATM   12  H   UNL     1      39.270 -15.941   1.022  1.00  0.00     0.191 HD
BRANCH   9  13
HETATM   13  C   UNL     1      42.775 -18.287   2.413  1.00  0.00     0.014 A 
HETATM   14  C   UNL     1      43.350 -17.938   3.643  1.00  0.00     0.018 A 
HETATM   15  C   UNL     1      44.219 -18.815   4.298  1.00  0.00     0.037 A 
HETATM   16  C   UNL     1      44.529 -20.055   3.740  1.00  0.00     0.068 A 
HETATM   17  C   UNL     1      43.955 -20.417   2.522  1.00  0.00     0.037 A 
HETATM   18  C   UNL     1      43.084 -19.537   1.862  1.00  0.00     0.018 A 
BRANCH  16  19
HETATM   19  O   UNL     1      45.396 -20.810   4.481  1.00  0.00    -0.356 OA
HETATM   20  C   UNL     1      44.924 -22.071   4.938  1.00  0.00     0.210 C 
ENDBRANCH  16  19
ENDBRANCH   9  13
ENDBRANCH   6   7
ENDBRANCH   5   6
ENDBRANCH   2   5
BRANCH   1  21
HETATM   21  C   UNL     1      42.039 -12.679   3.299  1.00  0.00     0.225 C 
BRANCH  21  22
HETATM   22  C   UNL     1      42.790 -13.834   3.975  1.00  0.00     0.239 C 
HETATM   23  N   UNL     1      42.400 -14.025   5.293  1.00  0.00    -0.325 N 
HETATM   24  H   UNL     1      41.543 -13.535   5.550  1.00  0.00     0.169 HD
HETATM   25  O   UNL     1      43.549 -14.555   3.332  1.00  0.00    -0.271 OA
BRANCH  23  26
HETATM   26  C   UNL     1      42.755 -15.140   6.082  1.00  0.00     0.046 A 
HETATM   27  C   UNL     1      41.891 -16.235   6.279  1.00  0.00    -0.034 A 
HETATM   28  C   UNL     1      42.307 -17.295   7.107  1.00  0.00     0.015 A 
HETATM   29  C   UNL     1      40.548 -16.371   5.612  1.00  0.00     0.050 C 
HETATM   30  C   UNL     1      43.570 -17.304   7.702  1.00  0.00    -0.061 A 
HETATM   31  C   UNL     1      44.012 -18.452   8.560  1.00  0.00     0.048 C 
HETATM   32  C   UNL     1      44.443 -16.244   7.447  1.00  0.00     0.015 A 
HETATM   33  C   UNL     1      44.052 -15.159   6.644  1.00  0.00    -0.034 A 
HETATM   34  C   UNL     1      45.025 -14.027   6.450  1.00  0.00     0.050 C 
ENDBRANCH  23  26
ENDBRANCH  21  22
ENDBRANCH   1  21
TORSDOF 8
ENDMDL
MODEL 3
REMARK VINA RESULT:      -7.9      2.615      6.313
REMARK  8 active torsions:
REMARK  status: ('A' for Active; 'I' for Inactive)
REMARK    1  A    between atoms: C_6  and  N_7 
REMARK       I    between atoms: N_7  and  C_8 
REMARK    2  A    between atoms: C_8  and  C_9 
REMARK    3  A    between atoms: C_9  and  N_10 
REMARK       I    between atoms: N_10  and  C_11 
REMARK    4  A    between atoms: C_11  and  C_12 
REMARK    5  A    between atoms: C_12  and  S_13 
REMARK    6  A    between atoms: S_13  and  C_14 
REMARK    7  A    between atoms: C_16  and  C_17 
REMARK    8  A    between atoms: C_20  and  O_21 
ROOT
HETATM    1  N   UNL     1      42.498 -14.677   6.549  1.00  0.00    -0.352 N 
HETATM    2  C   UNL     1      42.771 -13.620   5.719  1.00  0.00     0.227 C 
HETATM    3  O   UNL     1      43.759 -13.613   4.984  1.00  0.00    -0.273 OA
HETATM    4  H   UNL     1      41.612 -14.675   7.053  1.00  0.00     0.162 HD
ENDROOT
BRANCH   2   5
HETATM    5  C   UNL     1      41.802 -12.450   5.806  1.00  0.00     0.185 C 
BRANCH   5   6
HETATM    6  S   UNL     1      40.062 -12.974   5.690  1.00  0.00    -0.081 SA
BRANCH   6   7
HETATM    7  C   UNL     1      40.076 -13.882   4.231  1.00  0.00     0.185 A 
HETATM    8  N   UNL     1      39.952 -13.425   3.012  1.00  0.00    -0.201 NA
HETATM    9  C   UNL     1      39.968 -14.569   2.237  1.00  0.00     0.182 A 
HETATM   10  N   UNL     1      40.109 -15.701   2.949  1.00  0.00    -0.152 NA
HETATM   11  N   UNL     1      40.166 -15.236   4.210  1.00  0.00    -0.253 N 
HETATM   12  H   UNL     1      40.256 -15.880   4.986  1.00  0.00     0.191 HD
BRANCH   9  13
HETATM   13  C   UNL     1      39.803 -14.507   0.787  1.00  0.00     0.014 A 
HETATM   14  C   UNL     1      40.773 -15.068  -0.055  1.00  0.00     0.018 A 
HETATM   15  C   UNL     1      40.644 -14.987  -1.444  1.00  0.00     0.037 A 
HETATM   16  C   UNL     1      39.545 -14.348  -2.019  1.00  0.00     0.068 A 
HETATM   17  C   UNL     1      38.568 -13.796  -1.190  1.00  0.00     0.037 A 
HETATM   18  C   UNL     1      38.698 -13.874   0.204  1.00  0.00     0.018 A 
BRANCH  16  19
HETATM   19  O   UNL     1      39.547 -14.336  -3.386  1.00  0.00    -0.356 OA
HETATM   20  C   UNL     1      39.418 -15.591  -4.042  1.00  0.00     0.210 C 
ENDBRANCH  16  19
ENDBRANCH   9  13
ENDBRANCH   6   7
ENDBRANCH   5   6
ENDBRANCH   2   5
BRANCH   1  21
HETATM   21  C   UNL     1      43.314 -15.872   6.628  1.00  0.00     0.225 C 
BRANCH  21  22
HETATM   22  C   UNL     1      42.934 -16.936   5.589  1.00  0.00     0.239 C 
HETATM   23  N   UNL     1      44.010 -17.322   4.803  1.00  0.00    -0.325 N 
HETATM   24  H   UNL     1      44.917 -17.020   5.158  1.00  0.00     0.169 HD
HETATM   25  O   UNL     1      41.815 -17.444   5.587  1.00  0.00    -0.271 OA
BRANCH  23  26
HETATM   26  C   UNL     1      44.008 -18.428   3.925  1.00  0.00     0.046 A 
HETATM   27  C   UNL     1      43.795 -18.294   2.539  1.00  0.00    -0.034 A 
HETATM   28  C   UNL     1      43.777 -19.450   1.735  1.00  0.00     0.015 A 
HETATM   29  C   UNL     1      43.630 -16.970   1.842  1.00  0.00     0.050 C 
HETATM   30  C   UNL     1      44.006 -20.718   2.273  1.00  0.00    -0.061 A 
HETATM   31  C   UNL     1      44.012 -21.938   1.402  1.00  0.00     0.048 C 
HETATM   32  C   UNL     1      44.281 -20.830   3.638  1.00  0.00     0.015 A 
HETATM   33  C   UNL     1      44.285 -19.701   4.473  1.00  0.00    -0.034 A 
HETATM   34  C   UNL     1      44.541 -19.900   5.944  1.00  0.00     0.050 C 
ENDBRANCH  23  26
ENDBRANCH  21  22
ENDBRANCH   1  21
TORSDOF 8
ENDMDL
MODEL 4
REMARK VINA RESULT:      -7.9      2.531      6.398
REMARK  8 active torsions:
REMARK  status: ('A' for Active; 'I' for Inactive)
REMARK    1  A    between atoms: C_6  and  N_7 
REMARK       I    between atoms: N_7  and  C_8 
REMARK    2  A    between atoms: C_8  and  C_9 
REMARK    3  A    between atoms: C_9  and  N_10 
REMARK       I    between atoms: N_10  and  C_11 
REMARK    4  A    between atoms: C_11  and  C_12 
REMARK    5  A    between atoms: C_12  and  S_13 
REMARK    6  A    between atoms: S_13  and  C_14 
REMARK    7  A    between atoms: C_16  and  C_17 
REMARK    8  A    between atoms: C_20  and  O_21 
ROOT
HETATM    1  N   UNL     1      41.862 -14.816   6.134  1.00  0.00    -0.352 N 
HETATM    2  C   UNL     1      42.691 -13.742   5.935  1.00  0.00     0.227 C 
HETATM    3  O   UNL     1      43.906 -13.820   6.119  1.00  0.00    -0.273 OA
HETATM    4  H   UNL     1      40.884 -14.723   5.863  1.00  0.00     0.162 HD
ENDROOT
BRANCH   2   5
HETATM    5  C   UNL     1      42.004 -12.449   5.522  1.00  0.00     0.185 C 
BRANCH   5   6
HETATM    6  S   UNL     1      40.437 -12.742   4.640  1.00  0.00    -0.081 SA
BRANCH   6   7
HETATM    7  C   UNL     1      40.975 -12.835   3.011  1.00  0.00     0.185 A 
HETATM    8  N   UNL     1      40.370 -13.420   2.009  1.00  0.00    -0.201 NA
HETATM    9  C   UNL     1      41.253 -13.253   0.959  1.00  0.00     0.182 A 
HETATM   10  N   UNL     1      42.366 -12.576   1.293  1.00  0.00    -0.152 NA
HETATM   11  N   UNL     1      42.167 -12.332   2.601  1.00  0.00    -0.253 N 
HETATM   12  H   UNL     1      42.868 -11.838   3.139  1.00  0.00     0.191 HD
BRANCH   9  13
HETATM   13  C   UNL     1      40.977 -13.812  -0.361  1.00  0.00     0.014 A 
HETATM   14  C   UNL     1      40.540 -12.979  -1.400  1.00  0.00     0.018 A 
HETATM   15  C   UNL     1      40.242 -13.506  -2.659  1.00  0.00     0.037 A 
HETATM   16  C   UNL     1      40.376 -14.872  -2.907  1.00  0.00     0.068 A 
HETATM   17  C   UNL     1      40.822 -15.709  -1.884  1.00  0.00     0.037 A 
HETATM   18  C   UNL     1      41.119 -15.181  -0.619  1.00  0.00     0.018 A 
BRANCH  16  19
HETATM   19  O   UNL     1      40.046 -15.253  -4.178  1.00  0.00    -0.356 OA
HETATM   20  C   UNL     1      39.022 -16.231  -4.312  1.00  0.00     0.210 C 
ENDBRANCH  16  19
ENDBRANCH   9  13
ENDBRANCH   6   7
ENDBRANCH   5   6
ENDBRANCH   2   5
BRANCH   1  21
HETATM   21  C   UNL     1      42.324 -16.125   6.550  1.00  0.00     0.225 C 
BRANCH  21  22
HETATM   22  C   UNL     1      42.198 -17.190   5.452  1.00  0.00     0.239 C 
HETATM   23  N   UNL     1      43.415 -17.489   4.857  1.00  0.00    -0.325 N 
HETATM   24  H   UNL     1      44.226 -17.135   5.364  1.00  0.00     0.169 HD
HETATM   25  O   UNL     1      41.133 -17.771   5.257  1.00  0.00    -0.271 OA
BRANCH  23  26
HETATM   26  C   UNL     1      43.637 -18.574   3.982  1.00  0.00     0.046 A 
HETATM   27  C   UNL     1      43.397 -18.492   2.597  1.00  0.00    -0.034 A 
HETATM   28  C   UNL     1      43.613 -19.629   1.795  1.00  0.00     0.015 A 
HETATM   29  C   UNL     1      42.962 -17.232   1.897  1.00  0.00     0.050 C 
HETATM   30  C   UNL     1      44.100 -20.821   2.337  1.00  0.00    -0.061 A 
HETATM   31  C   UNL     1      44.352 -22.017   1.469  1.00  0.00     0.048 C 
HETATM   32  C   UNL     1      44.396 -20.871   3.701  1.00  0.00     0.015 A 
HETATM   33  C   UNL     1      44.171 -19.761   4.533  1.00  0.00    -0.034 A 
HETATM   34  C   UNL     1      44.467 -19.899   6.003  1.00  0.00     0.050 C 
ENDBRANCH  23  26
ENDBRANCH  21  22
ENDBRANCH   1  21
TORSDOF 8
ENDMDL
MODEL 5
REMARK VINA RESULT:      -7.7      4.889      5.700
REMARK  8 active torsions:
REMARK  status: ('A' for Active; 'I' for Inactive)
REMARK    1  A    between atoms: C_6  and  N_7 
REMARK       I    between atoms: N_7  and  C_8 
REMARK    2  A    between atoms: C_8  and  C_9 
REMARK    3  A    between atoms: C_9  and  N_10 
REMARK       I    between atoms: N_10  and  C_11 
REMARK    4  A    between atoms: C_11  and  C_12 
REMARK    5  A    between atoms: C_12  and  S_13 
REMARK    6  A    between atoms: S_13  and  C_14 
REMARK    7  A    between atoms: C_16  and  C_17 
REMARK    8  A    between atoms: C_20  and  O_21 
ROOT
HETATM    1  N   UNL     1      41.397 -12.115   6.906  1.00  0.00    -0.352 N 
HETATM    2  C   UNL     1      41.136 -12.259   5.568  1.00  0.00     0.227 C 
HETATM    3  O   UNL     1      41.798 -11.671   4.712  1.00  0.00    -0.273 OA
HETATM    4  H   UNL     1      40.888 -12.707   7.561  1.00  0.00     0.162 HD
ENDROOT
BRANCH   2   5
HETATM    5  C   UNL     1      39.951 -13.149   5.222  1.00  0.00     0.185 C 
BRANCH   5   6
HETATM    6  S   UNL     1      39.619 -13.203   3.432  1.00  0.00    -0.081 SA
BRANCH   6   7
HETATM    7  C   UNL     1      40.056 -14.821   3.052  1.00  0.00     0.185 A 
HETATM    8  N   UNL     1      41.132 -15.461   3.432  1.00  0.00    -0.201 NA
HETATM    9  C   UNL     1      41.016 -16.685   2.803  1.00  0.00     0.182 A 
HETATM   10  N   UNL     1      39.900 -16.809   2.063  1.00  0.00    -0.152 NA
HETATM   11  N   UNL     1      39.315 -15.609   2.233  1.00  0.00    -0.253 N 
HETATM   12  H   UNL     1      38.441 -15.399   1.766  1.00  0.00     0.191 HD
BRANCH   9  13
HETATM   13  C   UNL     1      42.055 -17.704   2.927  1.00  0.00     0.014 A 
HETATM   14  C   UNL     1      42.405 -18.489   1.820  1.00  0.00     0.018 A 
HETATM   15  C   UNL     1      43.375 -19.489   1.932  1.00  0.00     0.037 A 
HETATM   16  C   UNL     1      44.015 -19.724   3.150  1.00  0.00     0.068 A 
HETATM   17  C   UNL     1      43.682 -18.941   4.255  1.00  0.00     0.037 A 
HETATM   18  C   UNL     1      42.708 -17.938   4.144  1.00  0.00     0.018 A 
BRANCH  16  19
HETATM   19  O   UNL     1      44.935 -20.734   3.121  1.00  0.00    -0.356 OA
HETATM   20  C   UNL     1      44.574 -21.916   2.417  1.00  0.00     0.210 C 
ENDBRANCH  16  19
ENDBRANCH   9  13
ENDBRANCH   6   7
ENDBRANCH   5   6
ENDBRANCH   2   5
BRANCH   1  21
HETATM   21  C   UNL     1      42.467 -11.293   7.436  1.00  0.00     0.225 C 
BRANCH  21  22
HETATM   22  C   UNL     1      42.095 -10.584   8.745  1.00  0.00     0.239 C 
HETATM   23  N   UNL     1      42.388 -11.347   9.866  1.00  0.00    -0.325 N 
HETATM   24  H   UNL     1      42.991 -12.148   9.681  1.00  0.00     0.169 HD
HETATM   25  O   UNL     1      41.704  -9.419   8.743  1.00  0.00    -0.271 OA
BRANCH  23  26
HETATM   26  C   UNL     1      42.360 -10.868  11.194  1.00  0.00     0.046 A 
HETATM   27  C   UNL     1      41.186 -10.865  11.974  1.00  0.00    -0.034 A 
HETATM   28  C   UNL     1      41.233 -10.342  13.280  1.00  0.00     0.015 A 
HETATM   29  C   UNL     1      39.874 -11.440  11.511  1.00  0.00     0.050 C 
HETATM   30  C   UNL     1      42.423  -9.864  13.832  1.00  0.00    -0.061 A 
HETATM   31  C   UNL     1      42.466  -9.334  15.234  1.00  0.00     0.048 C 
HETATM   32  C   UNL     1      43.594  -9.932  13.073  1.00  0.00     0.015 A 
HETATM   33  C   UNL     1      43.579 -10.428  11.759  1.00  0.00    -0.034 A 
HETATM   34  C   UNL     1      44.867 -10.428  10.980  1.00  0.00     0.050 C 
ENDBRANCH  23  26
ENDBRANCH  21  22
ENDBRANCH   1  21
TORSDOF 8
ENDMDL
MODEL 6
REMARK VINA RESULT:      -7.7      2.800      6.243
REMARK  8 active torsions:
REMARK  status: ('A' for Active; 'I' for Inactive)
REMARK    1  A    between atoms: C_6  and  N_7 
REMARK       I    between atoms: N_7  and  C_8 
REMARK    2  A    between atoms: C_8  and  C_9 
REMARK    3  A    between atoms: C_9  and  N_10 
REMARK       I    between atoms: N_10  and  C_11 
REMARK    4  A    between atoms: C_11  and  C_12 
REMARK    5  A    between atoms: C_12  and  S_13 
REMARK    6  A    between atoms: S_13  and  C_14 
REMARK    7  A    between atoms: C_16  and  C_17 
REMARK    8  A    between atoms: C_20  and  O_21 
ROOT
HETATM    1  N   UNL     1      43.127 -17.869   6.724  1.00  0.00    -0.352 N 
HETATM    2  C   UNL     1      44.418 -17.502   6.440  1.00  0.00     0.227 C 
HETATM    3  O   UNL     1      44.833 -16.366   6.669  1.00  0.00    -0.273 OA
HETATM    4  H   UNL     1      42.871 -18.849   6.614  1.00  0.00     0.162 HD
ENDROOT
BRANCH   2   5
HETATM    5  C   UNL     1      45.276 -18.575   5.784  1.00  0.00     0.185 C 
BRANCH   5   6
HETATM    6  S   UNL     1      44.281 -19.845   4.939  1.00  0.00    -0.081 SA
BRANCH   6   7
HETATM    7  C   UNL     1      43.715 -18.979   3.567  1.00  0.00     0.185 A 
HETATM    8  N   UNL     1      42.766 -18.080   3.534  1.00  0.00    -0.201 NA
HETATM    9  C   UNL     1      42.676 -17.758   2.193  1.00  0.00     0.182 A 
HETATM   10  N   UNL     1      43.549 -18.425   1.417  1.00  0.00    -0.152 NA
HETATM   11  N   UNL     1      44.188 -19.198   2.314  1.00  0.00    -0.253 N 
HETATM   12  H   UNL     1      44.910 -19.841   2.009  1.00  0.00     0.191 HD
BRANCH   9  13
HETATM   13  C   UNL     1      41.683 -16.804   1.706  1.00  0.00     0.014 A 
HETATM   14  C   UNL     1      41.921 -16.081   0.529  1.00  0.00     0.018 A 
HETATM   15  C   UNL     1      40.994 -15.142   0.069  1.00  0.00     0.037 A 
HETATM   16  C   UNL     1      39.812 -14.909   0.772  1.00  0.00     0.068 A 
HETATM   17  C   UNL     1      39.559 -15.632   1.938  1.00  0.00     0.037 A 
HETATM   18  C   UNL     1      40.490 -16.572   2.402  1.00  0.00     0.018 A 
BRANCH  16  19
HETATM   19  O   UNL     1      38.998 -13.962   0.215  1.00  0.00    -0.356 OA
HETATM   20  C   UNL     1      37.640 -13.948   0.637  1.00  0.00     0.210 C 
ENDBRANCH  16  19
ENDBRANCH   9  13
ENDBRANCH   6   7
ENDBRANCH   5   6
ENDBRANCH   2   5
BRANCH   1  21
HETATM   21  C   UNL     1      42.151 -16.983   7.327  1.00  0.00     0.225 C 
BRANCH  21  22
HETATM   22  C   UNL     1      41.387 -16.135   6.301  1.00  0.00     0.239 C 
HETATM   23  N   UNL     1      41.957 -14.885   6.112  1.00  0.00    -0.325 N 
HETATM   24  H   UNL     1      42.895 -14.790   6.500  1.00  0.00     0.169 HD
HETATM   25  O   UNL     1      40.457 -16.614   5.657  1.00  0.00    -0.271 OA
BRANCH  23  26
HETATM   26  C   UNL     1      41.603 -13.988   5.080  1.00  0.00     0.046 A 
HETATM   27  C   UNL     1      40.443 -13.191   5.134  1.00  0.00    -0.034 A 
HETATM   28  C   UNL     1      40.143 -12.344   4.050  1.00  0.00     0.015 A 
HETATM   29  C   UNL     1      39.513 -13.148   6.317  1.00  0.00     0.050 C 
HETATM   30  C   UNL     1      40.990 -12.247   2.944  1.00  0.00    -0.061 A 
HETATM   31  C   UNL     1      40.673 -11.321   1.808  1.00  0.00     0.048 C 
HETATM   32  C   UNL     1      42.170 -12.993   2.931  1.00  0.00     0.015 A 
HETATM   33  C   UNL     1      42.489 -13.865   3.986  1.00  0.00    -0.034 A 
HETATM   34  C   UNL     1      43.753 -14.677   3.885  1.00  0.00     0.050 C 
ENDBRANCH  23  26
ENDBRANCH  21  22
ENDBRANCH   1  21
TORSDOF 8
ENDMDL
MODEL 7
REMARK VINA RESULT:      -7.7      5.562      9.151
REMARK  8 active torsions:
REMARK  status: ('A' for Active; 'I' for Inactive)
REMARK    1  A    between atoms: C_6  and  N_7 
REMARK       I    between atoms: N_7  and  C_8 
REMARK    2  A    between atoms: C_8  and  C_9 
REMARK    3  A    between atoms: C_9  and  N_10 
REMARK       I    between atoms: N_10  and  C_11 
REMARK    4  A    between atoms: C_11  and  C_12 
REMARK    5  A    between atoms: C_12  and  S_13 
REMARK    6  A    between atoms: S_13  and  C_14 
REMARK    7  A    between atoms: C_16  and  C_17 
REMARK    8  A    between atoms: C_20  and  O_21 
ROOT
HETATM    1  N   UNL     1      41.642 -13.880   5.404  1.00  0.00    -0.352 N 
HETATM    2  C   UNL     1      40.583 -13.039   5.183  1.00  0.00     0.227 C 
HETATM    3  O   UNL     1      40.346 -12.576   4.066  1.00  0.00    -0.273 OA
HETATM    4  H   UNL     1      41.726 -14.315   6.322  1.00  0.00     0.162 HD
ENDROOT
BRANCH   2   5
HETATM    5  C   UNL     1      39.758 -12.683   6.411  1.00  0.00     0.185 C 
BRANCH   5   6
HETATM    6  S   UNL     1      39.812 -10.904   6.797  1.00  0.00    -0.081 SA
BRANCH   6   7
HETATM    7  C   UNL     1      40.906 -10.875   8.122  1.00  0.00     0.185 A 
HETATM    8  N   UNL     1      40.643 -10.546   9.360  1.00  0.00    -0.201 NA
HETATM    9  C   UNL     1      41.873 -10.632   9.984  1.00  0.00     0.182 A 
HETATM   10  N   UNL     1      42.869 -11.014   9.164  1.00  0.00    -0.152 NA
HETATM   11  N   UNL     1      42.228 -11.152   7.989  1.00  0.00    -0.253 N 
HETATM   12  H   UNL     1      42.742 -11.422   7.158  1.00  0.00     0.191 HD
BRANCH   9  13
HETATM   13  C   UNL     1      42.035 -10.292  11.395  1.00  0.00     0.014 A 
HETATM   14  C   UNL     1      43.292  -9.917  11.887  1.00  0.00     0.018 A 
HETATM   15  C   UNL     1      43.468  -9.619  13.241  1.00  0.00     0.037 A 
HETATM   16  C   UNL     1      42.394  -9.689  14.129  1.00  0.00     0.068 A 
HETATM   17  C   UNL     1      41.135 -10.051  13.647  1.00  0.00     0.037 A 
HETATM   18  C   UNL     1      40.958 -10.351  12.289  1.00  0.00     0.018 A 
BRANCH  16  19
HETATM   19  O   UNL     1      42.706  -9.380  15.423  1.00  0.00    -0.356 OA
HETATM   20  C   UNL     1      41.635  -9.358  16.358  1.00  0.00     0.210 C 
ENDBRANCH  16  19
ENDBRANCH   9  13
ENDBRANCH   6   7
ENDBRANCH   5   6
ENDBRANCH   2   5
BRANCH   1  21
HETATM   21  C   UNL     1      42.557 -14.316   4.367  1.00  0.00     0.225 C 
BRANCH  21  22
HETATM   22  C   UNL     1      42.380 -15.792   3.985  1.00  0.00     0.239 C 
HETATM   23  N   UNL     1      43.551 -16.363   3.507  1.00  0.00    -0.325 N 
HETATM   24  H   UNL     1      44.388 -15.806   3.679  1.00  0.00     0.169 HD
HETATM   25  O   UNL     1      41.329 -16.382   4.220  1.00  0.00    -0.271 OA
BRANCH  23  26
HETATM   26  C   UNL     1      43.741 -17.745   3.291  1.00  0.00     0.046 A 
HETATM   27  C   UNL     1      44.184 -18.616   4.306  1.00  0.00    -0.034 A 
HETATM   28  C   UNL     1      44.380 -19.977   4.003  1.00  0.00     0.015 A 
HETATM   29  C   UNL     1      44.420 -18.189   5.730  1.00  0.00     0.050 C 
HETATM   30  C   UNL     1      44.105 -20.488   2.733  1.00  0.00    -0.061 A 
HETATM   31  C   UNL     1      44.291 -21.945   2.429  1.00  0.00     0.048 C 
HETATM   32  C   UNL     1      43.604 -19.628   1.753  1.00  0.00     0.015 A 
HETATM   33  C   UNL     1      43.418 -18.260   2.015  1.00  0.00    -0.034 A 
HETATM   34  C   UNL     1      42.921 -17.379   0.900  1.00  0.00     0.050 C 
ENDBRANCH  23  26
ENDBRANCH  21  22
ENDBRANCH   1  21
TORSDOF 8
ENDMDL
MODEL 8
REMARK VINA RESULT:      -7.6      5.233      6.354
REMARK  8 active torsions:
REMARK  status: ('A' for Active; 'I' for Inactive)
REMARK    1  A    between atoms: C_6  and  N_7 
REMARK       I    between atoms: N_7  and  C_8 
REMARK    2  A    between atoms: C_8  and  C_9 
REMARK    3  A    between atoms: C_9  and  N_10 
REMARK       I    between atoms: N_10  and  C_11 
REMARK    4  A    between atoms: C_11  and  C_12 
REMARK    5  A    between atoms: C_12  and  S_13 
REMARK    6  A    between atoms: S_13  and  C_14 
REMARK    7  A    between atoms: C_16  and  C_17 
REMARK    8  A    between atoms: C_20  and  O_21 
ROOT
HETATM    1  N   UNL     1      44.311 -13.177   8.919  1.00  0.00    -0.352 N 
HETATM    2  C   UNL     1      45.025 -13.458   7.783  1.00  0.00     0.227 C 
HETATM    3  O   UNL     1      46.072 -12.869   7.514  1.00  0.00    -0.273 OA
HETATM    4  H   UNL     1      43.512 -13.769   9.142  1.00  0.00     0.162 HD
ENDROOT
BRANCH   2   5
HETATM    5  C   UNL     1      44.412 -14.505   6.864  1.00  0.00     0.185 C 
BRANCH   5   6
HETATM    6  S   UNL     1      43.312 -13.775   5.609  1.00  0.00    -0.081 SA
BRANCH   6   7
HETATM    7  C   UNL     1      43.044 -15.115   4.568  1.00  0.00     0.185 A 
HETATM    8  N   UNL     1      43.531 -16.323   4.690  1.00  0.00    -0.201 NA
HETATM    9  C   UNL     1      43.059 -16.975   3.567  1.00  0.00     0.182 A 
HETATM   10  N   UNL     1      42.292 -16.202   2.776  1.00  0.00    -0.152 NA
HETATM   11  N   UNL     1      42.308 -15.026   3.431  1.00  0.00    -0.253 N 
HETATM   12  H   UNL     1      41.817 -14.226   3.052  1.00  0.00     0.191 HD
BRANCH   9  13
HETATM   13  C   UNL     1      43.417 -18.362   3.287  1.00  0.00     0.014 A 
HETATM   14  C   UNL     1      44.126 -19.110   4.236  1.00  0.00     0.018 A 
HETATM   15  C   UNL     1      44.504 -20.429   3.968  1.00  0.00     0.037 A 
HETATM   16  C   UNL     1      44.179 -21.026   2.749  1.00  0.00     0.068 A 
HETATM   17  C   UNL     1      43.464 -20.294   1.802  1.00  0.00     0.037 A 
HETATM   18  C   UNL     1      43.086 -18.970   2.069  1.00  0.00     0.018 A 
BRANCH  16  19
HETATM   19  O   UNL     1      44.614 -22.315   2.616  1.00  0.00    -0.356 OA
HETATM   20  C   UNL     1      44.824 -23.052   3.814  1.00  0.00     0.210 C 
ENDBRANCH  16  19
ENDBRANCH   9  13
ENDBRANCH   6   7
ENDBRANCH   5   6
ENDBRANCH   2   5
BRANCH   1  21
HETATM   21  C   UNL     1      44.717 -12.196   9.905  1.00  0.00     0.225 C 
BRANCH  21  22
HETATM   22  C   UNL     1      43.658 -11.114  10.156  1.00  0.00     0.239 C 
HETATM   23  N   UNL     1      42.488 -11.628  10.695  1.00  0.00    -0.325 N 
HETATM   24  H   UNL     1      42.572 -12.583  11.043  1.00  0.00     0.169 HD
HETATM   25  O   UNL     1      43.923  -9.924   9.998  1.00  0.00    -0.271 OA
BRANCH  23  26
HETATM   26  C   UNL     1      41.438 -10.848  11.228  1.00  0.00     0.046 A 
HETATM   27  C   UNL     1      41.450 -10.364  12.551  1.00  0.00    -0.034 A 
HETATM   28  C   UNL     1      40.350  -9.620  13.018  1.00  0.00     0.015 A 
HETATM   29  C   UNL     1      42.604 -10.553  13.499  1.00  0.00     0.050 C 
HETATM   30  C   UNL     1      39.269  -9.316  12.187  1.00  0.00    -0.061 A 
HETATM   31  C   UNL     1      38.116  -8.499  12.687  1.00  0.00     0.048 C 
HETATM   32  C   UNL     1      39.299  -9.746  10.858  1.00  0.00     0.015 A 
HETATM   33  C   UNL     1      40.370 -10.510  10.366  1.00  0.00    -0.034 A 
HETATM   34  C   UNL     1      40.315 -10.982   8.937  1.00  0.00     0.050 C 
ENDBRANCH  23  26
ENDBRANCH  21  22
ENDBRANCH   1  21
TORSDOF 8
ENDMDL
MODEL 9
REMARK VINA RESULT:      -7.5      2.617      6.616
REMARK  8 active torsions:
REMARK  status: ('A' for Active; 'I' for Inactive)
REMARK    1  A    between atoms: C_6  and  N_7 
REMARK       I    between atoms: N_7  and  C_8 
REMARK    2  A    between atoms: C_8  and  C_9 
REMARK    3  A    between atoms: C_9  and  N_10 
REMARK       I    between atoms: N_10  and  C_11 
REMARK    4  A    between atoms: C_11  and  C_12 
REMARK    5  A    between atoms: C_12  and  S_13 
REMARK    6  A    between atoms: S_13  and  C_14 
REMARK    7  A    between atoms: C_16  and  C_17 
REMARK    8  A    between atoms: C_20  and  O_21 
ROOT
HETATM    1  N   UNL     1      43.164 -15.553   6.893  1.00  0.00    -0.352 N 
HETATM    2  C   UNL     1      43.807 -14.404   6.514  1.00  0.00     0.227 C 
HETATM    3  O   UNL     1      44.992 -14.205   6.785  1.00  0.00    -0.273 OA
HETATM    4  H   UNL     1      42.217 -15.709   6.549  1.00  0.00     0.162 HD
ENDROOT
BRANCH   2   5
HETATM    5  C   UNL     1      42.950 -13.381   5.782  1.00  0.00     0.185 C 
BRANCH   5   6
HETATM    6  S   UNL     1      41.377 -14.085   5.191  1.00  0.00    -0.081 SA
BRANCH   6   7
HETATM    7  C   UNL     1      41.523 -13.869   3.493  1.00  0.00     0.185 A 
HETATM    8  N   UNL     1      40.634 -14.158   2.578  1.00  0.00    -0.201 NA
HETATM    9  C   UNL     1      41.278 -13.850   1.395  1.00  0.00     0.182 A 
HETATM   10  N   UNL     1      42.524 -13.374   1.567  1.00  0.00    -0.152 NA
HETATM   11  N   UNL     1      42.655 -13.405   2.906  1.00  0.00    -0.253 N 
HETATM   12  H   UNL     1      43.523 -13.112   3.339  1.00  0.00     0.191 HD
BRANCH   9  13
HETATM   13  C   UNL     1      40.640 -14.076   0.101  1.00  0.00     0.014 A 
HETATM   14  C   UNL     1      41.404 -14.500  -0.994  1.00  0.00     0.018 A 
HETATM   15  C   UNL     1      40.812 -14.689  -2.246  1.00  0.00     0.037 A 
HETATM   16  C   UNL     1      39.447 -14.461  -2.428  1.00  0.00     0.068 A 
HETATM   17  C   UNL     1      38.676 -14.050  -1.341  1.00  0.00     0.037 A 
HETATM   18  C   UNL     1      39.269 -13.858  -0.085  1.00  0.00     0.018 A 
BRANCH  16  19
HETATM   19  O   UNL     1      39.001 -14.678  -3.702  1.00  0.00    -0.356 OA
HETATM   20  C   UNL     1      38.960 -16.026  -4.150  1.00  0.00     0.210 C 
ENDBRANCH  16  19
ENDBRANCH   9  13
ENDBRANCH   6   7
ENDBRANCH   5   6
ENDBRANCH   2   5
BRANCH   1  21
HETATM   21  C   UNL     1      43.802 -16.634   7.618  1.00  0.00     0.225 C 
BRANCH  21  22
HETATM   22  C   UNL     1      44.416 -17.699   6.700  1.00  0.00     0.239 C 
HETATM   23  N   UNL     1      43.460 -18.391   5.970  1.00  0.00    -0.325 N 
HETATM   24  H   UNL     1      42.536 -17.960   5.980  1.00  0.00     0.169 HD
HETATM   25  O   UNL     1      45.635 -17.794   6.572  1.00  0.00    -0.271 OA
BRANCH  23  26
HETATM   26  C   UNL     1      43.743 -19.263   4.897  1.00  0.00     0.046 A 
HETATM   27  C   UNL     1      44.141 -20.600   5.092  1.00  0.00    -0.034 A 
HETATM   28  C   UNL     1      44.436 -21.398   3.970  1.00  0.00     0.015 A 
HETATM   29  C   UNL     1      44.226 -21.258   6.444  1.00  0.00     0.050 C 
HETATM   30  C   UNL     1      44.303 -20.905   2.670  1.00  0.00    -0.061 A 
HETATM   31  C   UNL     1      44.594 -21.773   1.482  1.00  0.00     0.048 C 
HETATM   32  C   UNL     1      43.846 -19.599   2.488  1.00  0.00     0.015 A 
HETATM   33  C   UNL     1      43.564 -18.768   3.585  1.00  0.00    -0.034 A 
HETATM   34  C   UNL     1      43.121 -17.355   3.317  1.00  0.00     0.050 C 
ENDBRANCH  23  26
ENDBRANCH  21  22
ENDBRANCH   1  21
TORSDOF 8
ENDMDL
MODEL 10
REMARK VINA RESULT:      -7.2      5.364      9.361
REMARK  8 active torsions:
REMARK  status: ('A' for Active; 'I' for Inactive)
REMARK    1  A    between atoms: C_6  and  N_7 
REMARK       I    between atoms: N_7  and  C_8 
REMARK    2  A    between atoms: C_8  and  C_9 
REMARK    3  A    between atoms: C_9  and  N_10 
REMARK       I    between atoms: N_10  and  C_11 
REMARK    4  A    between atoms: C_11  and  C_12 
REMARK    5  A    between atoms: C_12  and  S_13 
REMARK    6  A    between atoms: S_13  and  C_14 
REMARK    7  A    between atoms: C_16  and  C_17 
REMARK    8  A    between atoms: C_20  and  O_21 
ROOT
HETATM    1  N   UNL     1      42.778 -13.690   4.336  1.00  0.00    -0.352 N 
HETATM    2  C   UNL     1      42.468 -13.944   5.647  1.00  0.00     0.227 C 
HETATM    3  O   UNL     1      41.769 -14.904   5.973  1.00  0.00    -0.273 OA
HETATM    4  H   UNL     1      43.446 -12.946   4.136  1.00  0.00     0.162 HD
ENDROOT
BRANCH   2   5
HETATM    5  C   UNL     1      43.003 -12.937   6.656  1.00  0.00     0.185 C 
BRANCH   5   6
HETATM    6  S   UNL     1      44.564 -13.480   7.422  1.00  0.00    -0.081 SA
BRANCH   6   7
HETATM    7  C   UNL     1      44.713 -12.365   8.721  1.00  0.00     0.185 A 
HETATM    8  N   UNL     1      43.802 -12.056   9.608  1.00  0.00    -0.201 NA
HETATM    9  C   UNL     1      44.415 -11.080  10.370  1.00  0.00     0.182 A 
HETATM   10  N   UNL     1      45.670 -10.797   9.978  1.00  0.00    -0.152 NA
HETATM   11  N   UNL     1      45.828 -11.620   8.925  1.00  0.00    -0.253 N 
HETATM   12  H   UNL     1      46.696 -11.616   8.402  1.00  0.00     0.191 HD
BRANCH   9  13
HETATM   13  C   UNL     1      43.711 -10.417  11.464  1.00  0.00     0.014 A 
HETATM   14  C   UNL     1      43.393 -11.128  12.629  1.00  0.00     0.018 A 
HETATM   15  C   UNL     1      42.691 -10.515  13.671  1.00  0.00     0.037 A 
HETATM   16  C   UNL     1      42.295  -9.181  13.570  1.00  0.00     0.068 A 
HETATM   17  C   UNL     1      42.615  -8.461  12.420  1.00  0.00     0.037 A 
HETATM   18  C   UNL     1      43.318  -9.075  11.374  1.00  0.00     0.018 A 
BRANCH  16  19
HETATM   19  O   UNL     1      41.611  -8.710  14.656  1.00  0.00    -0.356 OA
HETATM   20  C   UNL     1      40.295  -8.222  14.428  1.00  0.00     0.210 C 
ENDBRANCH  16  19
ENDBRANCH   9  13
ENDBRANCH   6   7
ENDBRANCH   5   6
ENDBRANCH   2   5
BRANCH   1  21
HETATM   21  C   UNL     1      42.342 -14.518   3.229  1.00  0.00     0.225 C 
BRANCH  21  22
HETATM   22  C   UNL     1      43.238 -15.742   2.999  1.00  0.00     0.239 C 
HETATM   23  N   UNL     1      42.714 -16.900   3.556  1.00  0.00    -0.325 N 
HETATM   24  H   UNL     1      41.737 -16.823   3.839  1.00  0.00     0.169 HD
HETATM   25  O   UNL     1      44.233 -15.669   2.281  1.00  0.00    -0.271 OA
BRANCH  23  26
HETATM   26  C   UNL     1      43.204 -18.201   3.315  1.00  0.00     0.046 A 
HETATM   27  C   UNL     1      44.059 -18.868   4.214  1.00  0.00    -0.034 A 
HETATM   28  C   UNL     1      44.530 -20.154   3.886  1.00  0.00     0.015 A 
HETATM   29  C   UNL     1      44.470 -18.306   5.549  1.00  0.00     0.050 C 
HETATM   30  C   UNL     1      44.136 -20.797   2.711  1.00  0.00    -0.061 A 
HETATM   31  C   UNL     1      44.623 -22.177   2.385  1.00  0.00     0.048 C 
HETATM   32  C   UNL     1      43.237 -20.153   1.858  1.00  0.00     0.015 A 
HETATM   33  C   UNL     1      42.765 -18.861   2.144  1.00  0.00    -0.034 A 
HETATM   34  C   UNL     1      41.836 -18.205   1.158  1.00  0.00     0.050 C 
ENDBRANCH  23  26
ENDBRANCH  21  22
ENDBRANCH   1  21
TORSDOF 8
ENDMDL
