MODEL 1
REMARK VINA RESULT:      -7.6      0.000      0.000
REMARK  6 active torsions:
REMARK  status: ('A' for Active; 'I' for Inactive)
REMARK    1  A    between atoms: C_2  and  N_3 
REMARK    2  A    between atoms: C_2  and  C_16 
REMARK    3  A    between atoms: N_3  and  C_6 
REMARK    4  A    between atoms: C_16  and  C_17 
REMARK       I    between atoms: C_17  and  N_18 
REMARK    5  A    between atoms: N_18  and  C_19 
REMARK    6  A    between atoms: C_21  and  O_22 
ROOT
HETATM    1  C   UNL     1      40.802 -17.337   5.702  1.00  0.00     0.040 C 
HETATM    2  C   UNL     1      41.257 -15.882   5.791  1.00  0.00     0.191 C 
ENDROOT
BRANCH   2   3
HETATM    3  N   UNL     1      42.495 -15.646   4.931  1.00  0.00    -0.063 N 
HETATM    4  H   UNL     1      42.161 -15.633   3.958  1.00  0.00     0.278 HD
HETATM    5  H   UNL     1      42.793 -14.674   5.095  1.00  0.00     0.278 HD
BRANCH   3   6
HETATM    6  C   UNL     1      43.751 -16.512   4.941  1.00  0.00     0.221 C 
HETATM    7  C   UNL     1      43.773 -17.588   3.879  1.00  0.00    -0.011 A 
HETATM    8  C   UNL     1      43.985 -18.944   4.184  1.00  0.00     0.009 A 
HETATM    9  C   UNL     1      43.616 -17.226   2.523  1.00  0.00     0.011 A 
HETATM   10  C   UNL     1      43.931 -19.910   3.170  1.00  0.00     0.019 A 
HETATM   11  S   UNL     1      44.352 -19.507   5.830  1.00  0.00    -0.129 SA
HETATM   12  C   UNL     1      43.722 -19.537   1.844  1.00  0.00     0.001 A 
HETATM   13  C   UNL     1      43.580 -18.195   1.518  1.00  0.00     0.001 A 
HETATM   14  C   UNL     1      45.134 -18.005   6.468  1.00  0.00     0.082 C 
HETATM   15  C   UNL     1      44.114 -16.885   6.386  1.00  0.00     0.048 C 
ENDBRANCH   3   6
ENDBRANCH   2   3
BRANCH   2  16
HETATM   16  C   UNL     1      40.133 -14.884   5.510  1.00  0.00     0.135 C 
BRANCH  16  17
HETATM   17  C   UNL     1      40.274 -14.264   4.134  1.00  0.00     0.224 C 
HETATM   18  N   UNL     1      39.590 -14.978   3.170  1.00  0.00    -0.327 N 
HETATM   19  H   UNL     1      39.066 -15.792   3.470  1.00  0.00     0.169 HD
HETATM   20  O   UNL     1      40.967 -13.266   3.973  1.00  0.00    -0.273 OA
BRANCH  18  21
HETATM   21  C   UNL     1      39.504 -14.697   1.787  1.00  0.00     0.037 A 
HETATM   22  C   UNL     1      40.539 -14.925   0.874  1.00  0.00     0.066 A 
HETATM   23  C   UNL     1      40.371 -14.614  -0.480  1.00  0.00     0.070 A 
HETATM   24  C   UNL     1      39.163 -14.066  -0.916  1.00  0.00     0.037 A 
HETATM   25  C   UNL     1      38.126 -13.839  -0.017  1.00  0.00     0.005 A 
HETATM   26  C   UNL     1      38.295 -14.156   1.330  1.00  0.00     0.029 A 
BRANCH  23  27
HETATM   27  O   UNL     1      41.300 -14.791  -1.468  1.00  0.00    -0.356 OA
HETATM   28  C   UNL     1      40.906 -15.552  -2.603  1.00  0.00     0.210 C 
ENDBRANCH  23  27
ENDBRANCH  18  21
ENDBRANCH  16  17
ENDBRANCH   2  16
TORSDOF 6
ENDMDL
MODEL 2
REMARK VINA RESULT:      -7.5      2.146      3.114
REMARK  6 active torsions:
REMARK  status: ('A' for Active; 'I' for Inactive)
REMARK    1  A    between atoms: C_2  and  N_3 
REMARK    2  A    between atoms: C_2  and  C_16 
REMARK    3  A    between atoms: N_3  and  C_6 
REMARK    4  A    between atoms: C_16  and  C_17 
REMARK       I    between atoms: C_17  and  N_18 
REMARK    5  A    between atoms: N_18  and  C_19 
REMARK    6  A    between atoms: C_21  and  O_22 
ROOT
HETATM    1  C   UNL     1      40.174 -14.973   3.732  1.00  0.00     0.040 C 
HETATM    2  C   UNL     1      41.070 -16.140   3.321  1.00  0.00     0.191 C 
ENDROOT
BRANCH   2   3
HETATM    3  N   UNL     1      41.347 -17.057   4.510  1.00  0.00    -0.063 N 
HETATM    4  H   UNL     1      40.686 -16.770   5.243  1.00  0.00     0.278 HD
HETATM    5  H   UNL     1      41.020 -17.997   4.246  1.00  0.00     0.278 HD
BRANCH   3   6
HETATM    6  C   UNL     1      42.700 -17.224   5.194  1.00  0.00     0.221 C 
HETATM    7  C   UNL     1      43.466 -18.457   4.767  1.00  0.00    -0.011 A 
HETATM    8  C   UNL     1      43.949 -19.401   5.689  1.00  0.00     0.009 A 
HETATM    9  C   UNL     1      43.746 -18.658   3.397  1.00  0.00     0.011 A 
HETATM   10  C   UNL     1      44.595 -20.559   5.237  1.00  0.00     0.019 A 
HETATM   11  S   UNL     1      43.799 -19.183   7.448  1.00  0.00    -0.129 SA
HETATM   12  C   UNL     1      44.815 -20.764   3.876  1.00  0.00     0.001 A 
HETATM   13  C   UNL     1      44.405 -19.807   2.958  1.00  0.00     0.001 A 
HETATM   14  C   UNL     1      43.766 -17.374   7.500  1.00  0.00     0.082 C 
HETATM   15  C   UNL     1      42.567 -16.913   6.692  1.00  0.00     0.048 C 
ENDBRANCH   3   6
ENDBRANCH   2   3
BRANCH   2  16
HETATM   16  C   UNL     1      40.553 -16.890   2.093  1.00  0.00     0.135 C 
BRANCH  16  17
HETATM   17  C   UNL     1      41.285 -16.461   0.836  1.00  0.00     0.224 C 
HETATM   18  N   UNL     1      40.641 -15.427   0.187  1.00  0.00    -0.327 N 
HETATM   19  H   UNL     1      39.796 -15.059   0.611  1.00  0.00     0.169 HD
HETATM   20  O   UNL     1      42.304 -17.044   0.483  1.00  0.00    -0.273 OA
BRANCH  18  21
HETATM   21  C   UNL     1      41.030 -14.782  -1.009  1.00  0.00     0.037 A 
HETATM   22  C   UNL     1      41.811 -13.622  -1.057  1.00  0.00     0.066 A 
HETATM   23  C   UNL     1      42.149 -13.047  -2.288  1.00  0.00     0.070 A 
HETATM   24  C   UNL     1      41.694 -13.632  -3.470  1.00  0.00     0.037 A 
HETATM   25  C   UNL     1      40.920 -14.788  -3.434  1.00  0.00     0.005 A 
HETATM   26  C   UNL     1      40.592 -15.362  -2.207  1.00  0.00     0.029 A 
BRANCH  23  27
HETATM   27  O   UNL     1      42.904 -11.921  -2.469  1.00  0.00    -0.356 OA
HETATM   28  C   UNL     1      43.058 -11.054  -1.353  1.00  0.00     0.210 C 
ENDBRANCH  23  27
ENDBRANCH  18  21
ENDBRANCH  16  17
ENDBRANCH   2  16
TORSDOF 6
ENDMDL
MODEL 3
REMARK VINA RESULT:      -7.4      3.411      6.524
REMARK  6 active torsions:
REMARK  status: ('A' for Active; 'I' for Inactive)
REMARK    1  A    between atoms: C_2  and  N_3 
REMARK    2  A    between atoms: C_2  and  C_16 
REMARK    3  A    between atoms: N_3  and  C_6 
REMARK    4  A    between atoms: C_16  and  C_17 
REMARK       I    between atoms: C_17  and  N_18 
REMARK    5  A    between atoms: N_18  and  C_19 
REMARK    6  A    between atoms: C_21  and  O_22 
ROOT
HETATM    1  C   UNL     1      44.979 -14.253   6.711  1.00  0.00     0.040 C 
HETATM    2  C   UNL     1      43.660 -15.002   6.533  1.00  0.00     0.191 C 
ENDROOT
BRANCH   2   3
HETATM    3  N   UNL     1      43.398 -15.300   5.060  1.00  0.00    -0.063 N 
HETATM    4  H   UNL     1      44.257 -15.029   4.564  1.00  0.00     0.278 HD
HETATM    5  H   UNL     1      43.377 -16.325   4.960  1.00  0.00     0.278 HD
BRANCH   3   6
HETATM    6  C   UNL     1      42.238 -14.743   4.242  1.00  0.00     0.221 C 
HETATM    7  C   UNL     1      42.009 -15.448   2.924  1.00  0.00    -0.011 A 
HETATM    8  C   UNL     1      41.959 -14.759   1.699  1.00  0.00     0.009 A 
HETATM    9  C   UNL     1      41.798 -16.844   2.913  1.00  0.00     0.011 A 
HETATM   10  C   UNL     1      41.810 -15.467   0.500  1.00  0.00     0.019 A 
HETATM   11  S   UNL     1      42.053 -12.986   1.596  1.00  0.00    -0.129 SA
HETATM   12  C   UNL     1      41.656 -16.852   0.506  1.00  0.00     0.001 A 
HETATM   13  C   UNL     1      41.634 -17.539   1.713  1.00  0.00     0.001 A 
HETATM   14  C   UNL     1      41.372 -12.578   3.223  1.00  0.00     0.082 C 
HETATM   15  C   UNL     1      42.273 -13.208   4.268  1.00  0.00     0.048 C 
ENDBRANCH   3   6
ENDBRANCH   2   3
BRANCH   2  16
HETATM   16  C   UNL     1      43.546 -16.239   7.425  1.00  0.00     0.135 C 
BRANCH  16  17
HETATM   17  C   UNL     1      43.237 -17.481   6.612  1.00  0.00     0.224 C 
HETATM   18  N   UNL     1      44.364 -18.244   6.380  1.00  0.00    -0.327 N 
HETATM   19  H   UNL     1      45.240 -17.924   6.780  1.00  0.00     0.169 HD
HETATM   20  O   UNL     1      42.098 -17.690   6.210  1.00  0.00    -0.273 OA
BRANCH  18  21
HETATM   21  C   UNL     1      44.452 -19.456   5.660  1.00  0.00     0.037 A 
HETATM   22  C   UNL     1      44.662 -19.536   4.279  1.00  0.00     0.066 A 
HETATM   23  C   UNL     1      44.732 -20.781   3.644  1.00  0.00     0.070 A 
HETATM   24  C   UNL     1      44.583 -21.948   4.396  1.00  0.00     0.037 A 
HETATM   25  C   UNL     1      44.377 -21.880   5.771  1.00  0.00     0.005 A 
HETATM   26  C   UNL     1      44.315 -20.638   6.400  1.00  0.00     0.029 A 
BRANCH  23  27
HETATM   27  O   UNL     1      44.936 -20.993   2.308  1.00  0.00    -0.356 OA
HETATM   28  C   UNL     1      44.010 -21.836   1.634  1.00  0.00     0.210 C 
ENDBRANCH  23  27
ENDBRANCH  18  21
ENDBRANCH  16  17
ENDBRANCH   2  16
TORSDOF 6
ENDMDL
MODEL 4
REMARK VINA RESULT:      -7.4      2.226      4.365
REMARK  6 active torsions:
REMARK  status: ('A' for Active; 'I' for Inactive)
REMARK    1  A    between atoms: C_2  and  N_3 
REMARK    2  A    between atoms: C_2  and  C_16 
REMARK    3  A    between atoms: N_3  and  C_6 
REMARK    4  A    between atoms: C_16  and  C_17 
REMARK       I    between atoms: C_17  and  N_18 
REMARK    5  A    between atoms: N_18  and  C_19 
REMARK    6  A    between atoms: C_21  and  O_22 
ROOT
HETATM    1  C   UNL     1      43.713 -17.603   0.964  1.00  0.00     0.040 C 
HETATM    2  C   UNL     1      42.293 -17.806   1.488  1.00  0.00     0.191 C 
ENDROOT
BRANCH   2   3
HETATM    3  N   UNL     1      42.305 -18.129   2.979  1.00  0.00    -0.063 N 
HETATM    4  H   UNL     1      41.701 -17.424   3.422  1.00  0.00     0.278 HD
HETATM    5  H   UNL     1      41.779 -19.006   3.101  1.00  0.00     0.278 HD
BRANCH   3   6
HETATM    6  C   UNL     1      43.555 -18.228   3.848  1.00  0.00     0.221 C 
HETATM    7  C   UNL     1      44.009 -19.643   4.128  1.00  0.00    -0.011 A 
HETATM    8  C   UNL     1      44.219 -20.123   5.432  1.00  0.00     0.009 A 
HETATM    9  C   UNL     1      44.272 -20.512   3.046  1.00  0.00     0.011 A 
HETATM   10  C   UNL     1      44.576 -21.462   5.639  1.00  0.00     0.019 A 
HETATM   11  S   UNL     1      44.075 -19.084   6.868  1.00  0.00    -0.129 SA
HETATM   12  C   UNL     1      44.780 -22.318   4.559  1.00  0.00     0.001 A 
HETATM   13  C   UNL     1      44.644 -21.840   3.263  1.00  0.00     0.001 A 
HETATM   14  C   UNL     1      44.483 -17.495   6.102  1.00  0.00     0.082 C 
HETATM   15  C   UNL     1      43.457 -17.233   5.014  1.00  0.00     0.048 C 
ENDBRANCH   3   6
ENDBRANCH   2   3
BRANCH   2  16
HETATM   16  C   UNL     1      41.351 -16.657   1.130  1.00  0.00     0.135 C 
BRANCH  16  17
HETATM   17  C   UNL     1      41.453 -15.525   2.134  1.00  0.00     0.224 C 
HETATM   18  N   UNL     1      40.227 -15.210   2.687  1.00  0.00    -0.327 N 
HETATM   19  H   UNL     1      39.425 -15.758   2.397  1.00  0.00     0.169 HD
HETATM   20  O   UNL     1      42.530 -14.979   2.345  1.00  0.00    -0.273 OA
BRANCH  18  21
HETATM   21  C   UNL     1      39.945 -14.212   3.647  1.00  0.00     0.037 A 
HETATM   22  C   UNL     1      39.501 -12.923   3.333  1.00  0.00     0.066 A 
HETATM   23  C   UNL     1      39.248 -11.993   4.348  1.00  0.00     0.070 A 
HETATM   24  C   UNL     1      39.450 -12.357   5.680  1.00  0.00     0.037 A 
HETATM   25  C   UNL     1      39.889 -13.637   6.005  1.00  0.00     0.005 A 
HETATM   26  C   UNL     1      40.133 -14.562   4.991  1.00  0.00     0.029 A 
BRANCH  23  27
HETATM   27  O   UNL     1      38.810 -10.709   4.173  1.00  0.00    -0.356 OA
HETATM   28  C   UNL     1      39.027  -9.797   5.241  1.00  0.00     0.210 C 
ENDBRANCH  23  27
ENDBRANCH  18  21
ENDBRANCH  16  17
ENDBRANCH   2  16
TORSDOF 6
ENDMDL
MODEL 5
REMARK VINA RESULT:      -7.3      3.202      6.421
REMARK  6 active torsions:
REMARK  status: ('A' for Active; 'I' for Inactive)
REMARK    1  A    between atoms: C_2  and  N_3 
REMARK    2  A    between atoms: C_2  and  C_16 
REMARK    3  A    between atoms: N_3  and  C_6 
REMARK    4  A    between atoms: C_16  and  C_17 
REMARK       I    between atoms: C_17  and  N_18 
REMARK    5  A    between atoms: N_18  and  C_19 
REMARK    6  A    between atoms: C_21  and  O_22 
ROOT
HETATM    1  C   UNL     1      45.032 -14.049   6.710  1.00  0.00     0.040 C 
HETATM    2  C   UNL     1      43.778 -14.920   6.708  1.00  0.00     0.191 C 
ENDROOT
BRANCH   2   3
HETATM    3  N   UNL     1      43.018 -14.777   5.392  1.00  0.00    -0.063 N 
HETATM    4  H   UNL     1      43.638 -14.244   4.769  1.00  0.00     0.278 HD
HETATM    5  H   UNL     1      42.989 -15.711   4.960  1.00  0.00     0.278 HD
BRANCH   3   6
HETATM    6  C   UNL     1      41.630 -14.165   5.241  1.00  0.00     0.221 C 
HETATM    7  C   UNL     1      40.971 -14.437   3.907  1.00  0.00    -0.011 A 
HETATM    8  C   UNL     1      40.475 -13.409   3.087  1.00  0.00     0.009 A 
HETATM    9  C   UNL     1      40.807 -15.772   3.475  1.00  0.00     0.011 A 
HETATM   10  C   UNL     1      39.932 -13.710   1.831  1.00  0.00     0.019 A 
HETATM   11  S   UNL     1      40.478 -11.702   3.587  1.00  0.00    -0.129 SA
HETATM   12  C   UNL     1      39.828 -15.032   1.401  1.00  0.00     0.001 A 
HETATM   13  C   UNL     1      40.250 -16.063   2.229  1.00  0.00     0.001 A 
HETATM   14  C   UNL     1      40.403 -11.939   5.380  1.00  0.00     0.082 C 
HETATM   15  C   UNL     1      41.631 -12.731   5.791  1.00  0.00     0.048 C 
ENDBRANCH   3   6
ENDBRANCH   2   3
BRANCH   2  16
HETATM   16  C   UNL     1      44.058 -16.376   7.084  1.00  0.00     0.135 C 
BRANCH  16  17
HETATM   17  C   UNL     1      43.445 -17.334   6.081  1.00  0.00     0.224 C 
HETATM   18  N   UNL     1      44.375 -17.800   5.173  1.00  0.00    -0.327 N 
HETATM   19  H   UNL     1      45.334 -17.489   5.279  1.00  0.00     0.169 HD
HETATM   20  O   UNL     1      42.245 -17.582   6.115  1.00  0.00    -0.273 OA
BRANCH  18  21
HETATM   21  C   UNL     1      44.161 -18.698   4.103  1.00  0.00     0.037 A 
HETATM   22  C   UNL     1      44.497 -20.055   4.137  1.00  0.00     0.066 A 
HETATM   23  C   UNL     1      44.253 -20.874   3.028  1.00  0.00     0.070 A 
HETATM   24  C   UNL     1      43.678 -20.326   1.881  1.00  0.00     0.037 A 
HETATM   25  C   UNL     1      43.336 -18.977   1.837  1.00  0.00     0.005 A 
HETATM   26  C   UNL     1      43.575 -18.167   2.945  1.00  0.00     0.029 A 
BRANCH  23  27
HETATM   27  O   UNL     1      44.531 -22.210   2.937  1.00  0.00    -0.356 OA
HETATM   28  C   UNL     1      44.697 -22.924   4.155  1.00  0.00     0.210 C 
ENDBRANCH  23  27
ENDBRANCH  18  21
ENDBRANCH  16  17
ENDBRANCH   2  16
TORSDOF 6
ENDMDL
MODEL 6
REMARK VINA RESULT:      -7.3      3.137      6.369
REMARK  6 active torsions:
REMARK  status: ('A' for Active; 'I' for Inactive)
REMARK    1  A    between atoms: C_2  and  N_3 
REMARK    2  A    between atoms: C_2  and  C_16 
REMARK    3  A    between atoms: N_3  and  C_6 
REMARK    4  A    between atoms: C_16  and  C_17 
REMARK       I    between atoms: C_17  and  N_18 
REMARK    5  A    between atoms: N_18  and  C_19 
REMARK    6  A    between atoms: C_21  and  O_22 
ROOT
HETATM    1  C   UNL     1      42.266 -14.073   4.751  1.00  0.00     0.040 C 
HETATM    2  C   UNL     1      41.153 -14.677   5.606  1.00  0.00     0.191 C 
ENDROOT
BRANCH   2   3
HETATM    3  N   UNL     1      39.932 -15.008   4.752  1.00  0.00    -0.063 N 
HETATM    4  H   UNL     1      39.910 -16.033   4.683  1.00  0.00     0.278 HD
HETATM    5  H   UNL     1      39.101 -14.787   5.319  1.00  0.00     0.278 HD
BRANCH   3   6
HETATM    6  C   UNL     1      39.672 -14.479   3.346  1.00  0.00     0.221 C 
HETATM    7  C   UNL     1      40.388 -15.239   2.252  1.00  0.00    -0.011 A 
HETATM    8  C   UNL     1      41.219 -14.605   1.312  1.00  0.00     0.009 A 
HETATM    9  C   UNL     1      40.193 -16.633   2.136  1.00  0.00     0.011 A 
HETATM   10  C   UNL     1      41.910 -15.364   0.359  1.00  0.00     0.019 A 
HETATM   11  S   UNL     1      41.421 -12.839   1.253  1.00  0.00    -0.129 SA
HETATM   12  C   UNL     1      41.745 -16.746   0.295  1.00  0.00     0.001 A 
HETATM   13  C   UNL     1      40.874 -17.379   1.173  1.00  0.00     0.001 A 
HETATM   14  C   UNL     1      39.823 -12.354   1.952  1.00  0.00     0.082 C 
HETATM   15  C   UNL     1      39.735 -12.944   3.347  1.00  0.00     0.048 C 
ENDBRANCH   3   6
ENDBRANCH   2   3
BRANCH   2  16
HETATM   16  C   UNL     1      41.623 -15.853   6.461  1.00  0.00     0.135 C 
BRANCH  16  17
HETATM   17  C   UNL     1      41.818 -17.103   5.625  1.00  0.00     0.224 C 
HETATM   18  N   UNL     1      43.144 -17.309   5.300  1.00  0.00    -0.327 N 
HETATM   19  H   UNL     1      43.825 -16.649   5.658  1.00  0.00     0.169 HD
HETATM   20  O   UNL     1      40.852 -17.776   5.285  1.00  0.00    -0.273 OA
BRANCH  18  21
HETATM   21  C   UNL     1      43.690 -18.363   4.534  1.00  0.00     0.037 A 
HETATM   22  C   UNL     1      44.207 -19.544   5.078  1.00  0.00     0.066 A 
HETATM   23  C   UNL     1      44.734 -20.537   4.245  1.00  0.00     0.070 A 
HETATM   24  C   UNL     1      44.748 -20.341   2.863  1.00  0.00     0.037 A 
HETATM   25  C   UNL     1      44.234 -19.172   2.310  1.00  0.00     0.005 A 
HETATM   26  C   UNL     1      43.704 -18.188   3.143  1.00  0.00     0.029 A 
BRANCH  23  27
HETATM   27  O   UNL     1      45.264 -21.731   4.651  1.00  0.00    -0.356 OA
HETATM   28  C   UNL     1      44.661 -22.916   4.146  1.00  0.00     0.210 C 
ENDBRANCH  23  27
ENDBRANCH  18  21
ENDBRANCH  16  17
ENDBRANCH   2  16
TORSDOF 6
ENDMDL
MODEL 7
REMARK VINA RESULT:      -7.3      2.672      4.216
REMARK  6 active torsions:
REMARK  status: ('A' for Active; 'I' for Inactive)
REMARK    1  A    between atoms: C_2  and  N_3 
REMARK    2  A    between atoms: C_2  and  C_16 
REMARK    3  A    between atoms: N_3  and  C_6 
REMARK    4  A    between atoms: C_16  and  C_17 
REMARK       I    between atoms: C_17  and  N_18 
REMARK    5  A    between atoms: N_18  and  C_19 
REMARK    6  A    between atoms: C_21  and  O_22 
ROOT
HETATM    1  C   UNL     1      42.908 -16.958   7.541  1.00  0.00     0.040 C 
HETATM    2  C   UNL     1      44.065 -16.295   6.795  1.00  0.00     0.191 C 
ENDROOT
BRANCH   2   3
HETATM    3  N   UNL     1      43.950 -16.534   5.292  1.00  0.00    -0.063 N 
HETATM    4  H   UNL     1      43.919 -15.600   4.864  1.00  0.00     0.278 HD
HETATM    5  H   UNL     1      44.855 -16.912   4.979  1.00  0.00     0.278 HD
BRANCH   3   6
HETATM    6  C   UNL     1      42.858 -17.353   4.613  1.00  0.00     0.221 C 
HETATM    7  C   UNL     1      43.362 -18.577   3.880  1.00  0.00    -0.011 A 
HETATM    8  C   UNL     1      43.066 -18.821   2.528  1.00  0.00     0.009 A 
HETATM    9  C   UNL     1      44.127 -19.536   4.579  1.00  0.00     0.011 A 
HETATM   10  C   UNL     1      43.611 -19.936   1.879  1.00  0.00     0.019 A 
HETATM   11  S   UNL     1      41.984 -17.772   1.582  1.00  0.00    -0.129 SA
HETATM   12  C   UNL     1      44.408 -20.843   2.574  1.00  0.00     0.001 A 
HETATM   13  C   UNL     1      44.653 -20.653   3.927  1.00  0.00     0.001 A 
HETATM   14  C   UNL     1      40.957 -17.143   2.933  1.00  0.00     0.082 C 
HETATM   15  C   UNL     1      41.870 -16.416   3.903  1.00  0.00     0.048 C 
ENDBRANCH   3   6
ENDBRANCH   2   3
BRANCH   2  16
HETATM   16  C   UNL     1      44.245 -14.821   7.157  1.00  0.00     0.135 C 
BRANCH  16  17
HETATM   17  C   UNL     1      43.628 -13.915   6.109  1.00  0.00     0.224 C 
HETATM   18  N   UNL     1      42.352 -13.514   6.456  1.00  0.00    -0.327 N 
HETATM   19  H   UNL     1      41.984 -13.832   7.346  1.00  0.00     0.169 HD
HETATM   20  O   UNL     1      44.240 -13.649   5.081  1.00  0.00    -0.273 OA
BRANCH  18  21
HETATM   21  C   UNL     1      41.481 -12.678   5.721  1.00  0.00     0.037 A 
HETATM   22  C   UNL     1      40.612 -13.132   4.723  1.00  0.00     0.066 A 
HETATM   23  C   UNL     1      39.785 -12.233   4.041  1.00  0.00     0.070 A 
HETATM   24  C   UNL     1      39.836 -10.875   4.357  1.00  0.00     0.037 A 
HETATM   25  C   UNL     1      40.694 -10.412   5.350  1.00  0.00     0.005 A 
HETATM   26  C   UNL     1      41.511 -11.312   6.032  1.00  0.00     0.029 A 
BRANCH  23  27
HETATM   27  O   UNL     1      38.894 -12.550   3.052  1.00  0.00    -0.356 OA
HETATM   28  C   UNL     1      39.281 -13.557   2.127  1.00  0.00     0.210 C 
ENDBRANCH  23  27
ENDBRANCH  18  21
ENDBRANCH  16  17
ENDBRANCH   2  16
TORSDOF 6
ENDMDL
MODEL 8
REMARK VINA RESULT:      -7.3      4.583      7.554
REMARK  6 active torsions:
REMARK  status: ('A' for Active; 'I' for Inactive)
REMARK    1  A    between atoms: C_2  and  N_3 
REMARK    2  A    between atoms: C_2  and  C_16 
REMARK    3  A    between atoms: N_3  and  C_6 
REMARK    4  A    between atoms: C_16  and  C_17 
REMARK       I    between atoms: C_17  and  N_18 
REMARK    5  A    between atoms: N_18  and  C_19 
REMARK    6  A    between atoms: C_21  and  O_22 
ROOT
HETATM    1  C   UNL     1      40.970 -13.906   5.387  1.00  0.00     0.040 C 
HETATM    2  C   UNL     1      42.209 -14.648   5.885  1.00  0.00     0.191 C 
ENDROOT
BRANCH   2   3
HETATM    3  N   UNL     1      42.361 -15.990   5.175  1.00  0.00    -0.063 N 
HETATM    4  H   UNL     1      41.644 -16.604   5.583  1.00  0.00     0.278 HD
HETATM    5  H   UNL     1      42.038 -15.855   4.207  1.00  0.00     0.278 HD
BRANCH   3   6
HETATM    6  C   UNL     1      43.644 -16.812   5.114  1.00  0.00     0.221 C 
HETATM    7  C   UNL     1      43.734 -17.739   3.922  1.00  0.00    -0.011 A 
HETATM    8  C   UNL     1      43.982 -19.116   4.054  1.00  0.00     0.009 A 
HETATM    9  C   UNL     1      43.603 -17.207   2.620  1.00  0.00     0.011 A 
HETATM   10  C   UNL     1      43.990 -19.941   2.923  1.00  0.00     0.019 A 
HETATM   11  S   UNL     1      44.320 -19.879   5.625  1.00  0.00    -0.129 SA
HETATM   12  C   UNL     1      43.807 -19.404   1.650  1.00  0.00     0.001 A 
HETATM   13  C   UNL     1      43.629 -18.036   1.497  1.00  0.00     0.001 A 
HETATM   14  C   UNL     1      45.033 -18.451   6.479  1.00  0.00     0.082 C 
HETATM   15  C   UNL     1      43.978 -17.361   6.509  1.00  0.00     0.048 C 
ENDBRANCH   3   6
ENDBRANCH   2   3
BRANCH   2  16
HETATM   16  C   UNL     1      43.478 -13.797   5.838  1.00  0.00     0.135 C 
BRANCH  16  17
HETATM   17  C   UNL     1      43.991 -13.491   7.232  1.00  0.00     0.224 C 
HETATM   18  N   UNL     1      43.533 -12.275   7.699  1.00  0.00    -0.327 N 
HETATM   19  H   UNL     1      42.909 -11.746   7.100  1.00  0.00     0.169 HD
HETATM   20  O   UNL     1      44.754 -14.268   7.795  1.00  0.00    -0.273 OA
BRANCH  18  21
HETATM   21  C   UNL     1      43.810 -11.670   8.945  1.00  0.00     0.037 A 
HETATM   22  C   UNL     1      42.829 -11.205   9.828  1.00  0.00     0.066 A 
HETATM   23  C   UNL     1      43.192 -10.613  11.043  1.00  0.00     0.070 A 
HETATM   24  C   UNL     1      44.543 -10.482  11.369  1.00  0.00     0.037 A 
HETATM   25  C   UNL     1      45.527 -10.943  10.500  1.00  0.00     0.005 A 
HETATM   26  C   UNL     1      45.161 -11.538   9.293  1.00  0.00     0.029 A 
BRANCH  23  27
HETATM   27  O   UNL     1      42.333 -10.124  11.989  1.00  0.00    -0.356 OA
HETATM   28  C   UNL     1      42.414 -10.685  13.293  1.00  0.00     0.210 C 
ENDBRANCH  23  27
ENDBRANCH  18  21
ENDBRANCH  16  17
ENDBRANCH   2  16
TORSDOF 6
ENDMDL
MODEL 9
REMARK VINA RESULT:      -7.3      1.735      2.004
REMARK  6 active torsions:
REMARK  status: ('A' for Active; 'I' for Inactive)
REMARK    1  A    between atoms: C_2  and  N_3 
REMARK    2  A    between atoms: C_2  and  C_16 
REMARK    3  A    between atoms: N_3  and  C_6 
REMARK    4  A    between atoms: C_16  and  C_17 
REMARK       I    between atoms: C_17  and  N_18 
REMARK    5  A    between atoms: N_18  and  C_19 
REMARK    6  A    between atoms: C_21  and  O_22 
ROOT
HETATM    1  C   UNL     1      40.470 -14.438   5.864  1.00  0.00     0.040 C 
HETATM    2  C   UNL     1      41.961 -14.589   5.570  1.00  0.00     0.191 C 
ENDROOT
BRANCH   2   3
HETATM    3  N   UNL     1      42.252 -15.936   4.913  1.00  0.00    -0.063 N 
HETATM    4  H   UNL     1      41.469 -16.549   5.177  1.00  0.00     0.278 HD
HETATM    5  H   UNL     1      42.125 -15.809   3.899  1.00  0.00     0.278 HD
BRANCH   3   6
HETATM    6  C   UNL     1      43.523 -16.754   5.111  1.00  0.00     0.221 C 
HETATM    7  C   UNL     1      43.721 -17.854   4.091  1.00  0.00    -0.011 A 
HETATM    8  C   UNL     1      43.936 -19.193   4.458  1.00  0.00     0.009 A 
HETATM    9  C   UNL     1      43.731 -17.529   2.717  1.00  0.00     0.011 A 
HETATM   10  C   UNL     1      44.049 -20.183   3.474  1.00  0.00     0.019 A 
HETATM   11  S   UNL     1      44.102 -19.704   6.154  1.00  0.00    -0.129 SA
HETATM   12  C   UNL     1      44.003 -19.849   2.122  1.00  0.00     0.001 A 
HETATM   13  C   UNL     1      43.860 -18.521   1.743  1.00  0.00     0.001 A 
HETATM   14  C   UNL     1      44.743 -18.160   6.847  1.00  0.00     0.082 C 
HETATM   15  C   UNL     1      43.705 -17.081   6.600  1.00  0.00     0.048 C 
ENDBRANCH   3   6
ENDBRANCH   2   3
BRANCH   2  16
HETATM   16  C   UNL     1      42.543 -13.406   4.796  1.00  0.00     0.135 C 
BRANCH  16  17
HETATM   17  C   UNL     1      42.828 -13.775   3.353  1.00  0.00     0.224 C 
HETATM   18  N   UNL     1      41.676 -13.824   2.592  1.00  0.00    -0.327 N 
HETATM   19  H   UNL     1      40.800 -13.594   3.049  1.00  0.00     0.169 HD
HETATM   20  O   UNL     1      43.972 -14.026   2.992  1.00  0.00    -0.273 OA
BRANCH  18  21
HETATM   21  C   UNL     1      41.562 -14.136   1.219  1.00  0.00     0.037 A 
HETATM   22  C   UNL     1      41.533 -13.182   0.196  1.00  0.00     0.066 A 
HETATM   23  C   UNL     1      41.413 -13.580  -1.141  1.00  0.00     0.070 A 
HETATM   24  C   UNL     1      41.315 -14.938  -1.449  1.00  0.00     0.037 A 
HETATM   25  C   UNL     1      41.346 -15.895  -0.440  1.00  0.00     0.005 A 
HETATM   26  C   UNL     1      41.472 -15.495   0.889  1.00  0.00     0.029 A 
BRANCH  23  27
HETATM   27  O   UNL     1      41.376 -12.750  -2.227  1.00  0.00    -0.356 OA
HETATM   28  C   UNL     1      41.345 -13.360  -3.511  1.00  0.00     0.210 C 
ENDBRANCH  23  27
ENDBRANCH  18  21
ENDBRANCH  16  17
ENDBRANCH   2  16
TORSDOF 6
ENDMDL
MODEL 10
REMARK VINA RESULT:      -7.2      1.603      2.254
REMARK  6 active torsions:
REMARK  status: ('A' for Active; 'I' for Inactive)
REMARK    1  A    between atoms: C_2  and  N_3 
REMARK    2  A    between atoms: C_2  and  C_16 
REMARK    3  A    between atoms: N_3  and  C_6 
REMARK    4  A    between atoms: C_16  and  C_17 
REMARK       I    between atoms: C_17  and  N_18 
REMARK    5  A    between atoms: N_18  and  C_19 
REMARK    6  A    between atoms: C_21  and  O_22 
ROOT
HETATM    1  C   UNL     1      40.576 -15.093   5.807  1.00  0.00     0.040 C 
HETATM    2  C   UNL     1      41.285 -15.237   4.462  1.00  0.00     0.191 C 
ENDROOT
BRANCH   2   3
HETATM    3  N   UNL     1      41.797 -16.661   4.266  1.00  0.00    -0.063 N 
HETATM    4  H   UNL     1      41.190 -17.257   4.845  1.00  0.00     0.278 HD
HETATM    5  H   UNL     1      41.556 -16.937   3.304  1.00  0.00     0.278 HD
BRANCH   3   6
HETATM    6  C   UNL     1      43.226 -17.126   4.525  1.00  0.00     0.221 C 
HETATM    7  C   UNL     1      43.605 -18.404   3.811  1.00  0.00    -0.011 A 
HETATM    8  C   UNL     1      44.129 -19.519   4.487  1.00  0.00     0.009 A 
HETATM    9  C   UNL     1      43.468 -18.479   2.407  1.00  0.00     0.011 A 
HETATM   10  C   UNL     1      44.403 -20.701   3.788  1.00  0.00     0.019 A 
HETATM   11  S   UNL     1      44.496 -19.495   6.227  1.00  0.00    -0.129 SA
HETATM   12  C   UNL     1      44.211 -20.772   2.409  1.00  0.00     0.001 A 
HETATM   13  C   UNL     1      43.759 -19.657   1.717  1.00  0.00     0.001 A 
HETATM   14  C   UNL     1      44.818 -17.724   6.418  1.00  0.00     0.082 C 
HETATM   15  C   UNL     1      43.557 -16.983   6.018  1.00  0.00     0.048 C 
ENDBRANCH   3   6
ENDBRANCH   2   3
BRANCH   2  16
HETATM   16  C   UNL     1      40.448 -14.733   3.285  1.00  0.00     0.135 C 
BRANCH  16  17
HETATM   17  C   UNL     1      41.274 -14.647   2.016  1.00  0.00     0.224 C 
HETATM   18  N   UNL     1      40.519 -14.241   0.933  1.00  0.00    -0.327 N 
HETATM   19  H   UNL     1      39.541 -14.028   1.094  1.00  0.00     0.169 HD
HETATM   20  O   UNL     1      42.459 -14.957   2.026  1.00  0.00    -0.273 OA
BRANCH  18  21
HETATM   21  C   UNL     1      40.953 -14.057  -0.400  1.00  0.00     0.037 A 
HETATM   22  C   UNL     1      40.517 -14.831  -1.481  1.00  0.00     0.066 A 
HETATM   23  C   UNL     1      41.002 -14.583  -2.770  1.00  0.00     0.070 A 
HETATM   24  C   UNL     1      41.930 -13.560  -2.972  1.00  0.00     0.037 A 
HETATM   25  C   UNL     1      42.367 -12.782  -1.904  1.00  0.00     0.005 A 
HETATM   26  C   UNL     1      41.878 -13.029  -0.623  1.00  0.00     0.029 A 
BRANCH  23  27
HETATM   27  O   UNL     1      40.655 -15.263  -3.905  1.00  0.00    -0.356 OA
HETATM   28  C   UNL     1      39.409 -15.948  -3.898  1.00  0.00     0.210 C 
ENDBRANCH  23  27
ENDBRANCH  18  21
ENDBRANCH  16  17
ENDBRANCH   2  16
TORSDOF 6
ENDMDL
