MODEL 1
REMARK VINA RESULT:      -9.3      0.000      0.000
REMARK  5 active torsions:
REMARK  status: ('A' for Active; 'I' for Inactive)
REMARK    1  A    between atoms: C_4  and  N_5 
REMARK       I    between atoms: N_5  and  C_6 
REMARK    2  A    between atoms: C_6  and  C_7 
REMARK    3  A    between atoms: N_9  and  C_10 
REMARK    4  A    between atoms: C_10  and  C_11 
REMARK    5  A    between atoms: C_14  and  O_15 
ROOT
HETATM    1  C   UNL     1      41.307 -15.303   1.636  1.00  0.00     0.105 C 
HETATM    2  C   UNL     1      40.889 -15.285   0.177  1.00  0.00     0.140 C 
HETATM    3  N   UNL     1      41.603 -14.152  -0.360  1.00  0.00    -0.347 N 
HETATM    4  C   UNL     1      41.941 -13.232   0.617  1.00  0.00     0.221 C 
HETATM    5  O   UNL     1      42.402 -12.117   0.440  1.00  0.00    -0.273 OA
HETATM    6  C   UNL     1      41.643 -13.847   1.963  1.00  0.00     0.118 C 
ENDROOT
BRANCH   1   7
HETATM    7  C   UNL     1      42.479 -16.251   1.876  1.00  0.00     0.228 C 
HETATM    8  N   UNL     1      42.128 -17.466   2.415  1.00  0.00    -0.325 N 
HETATM    9  H   UNL     1      41.144 -17.661   2.603  1.00  0.00     0.169 HD
HETATM   10  O   UNL     1      43.620 -15.891   1.596  1.00  0.00    -0.273 OA
BRANCH   8  11
HETATM   11  C   UNL     1      42.955 -18.550   2.799  1.00  0.00     0.065 A 
HETATM   12  C   UNL     1      43.161 -19.687   2.011  1.00  0.00     0.038 A 
HETATM   13  C   UNL     1      44.007 -20.710   2.451  1.00  0.00    -0.059 A 
HETATM   14  C   UNL     1      44.215 -21.942   1.619  1.00  0.00     0.048 C 
HETATM   15  C   UNL     1      44.619 -20.595   3.704  1.00  0.00     0.020 A 
HETATM   16  C   UNL     1      44.413 -19.457   4.502  1.00  0.00    -0.005 A 
HETATM   17  C   UNL     1      43.580 -18.414   4.049  1.00  0.00     0.093 A 
HETATM   18  C   UNL     1      45.016 -19.322   5.760  1.00  0.00     0.015 A 
HETATM   19  N   UNL     1      43.366 -17.298   4.787  1.00  0.00    -0.258 NA
HETATM   20  C   UNL     1      43.959 -17.209   5.998  1.00  0.00     0.117 A 
HETATM   21  C   UNL     1      44.785 -18.184   6.522  1.00  0.00     0.020 A 
ENDBRANCH   8  11
ENDBRANCH   1   7
BRANCH   3  22
HETATM   22  C   UNL     1      41.673 -13.879  -1.782  1.00  0.00     0.164 C 
BRANCH  22  23
HETATM   23  C   UNL     1      40.419 -14.274  -2.520  1.00  0.00    -0.040 A 
HETATM   24  C   UNL     1      39.288 -13.451  -2.483  1.00  0.00     0.011 A 
HETATM   25  C   UNL     1      38.135 -13.801  -3.189  1.00  0.00     0.037 A 
HETATM   26  C   UNL     1      38.094 -14.974  -3.946  1.00  0.00     0.068 A 
HETATM   27  C   UNL     1      39.206 -15.817  -3.960  1.00  0.00     0.037 A 
HETATM   28  C   UNL     1      40.361 -15.469  -3.252  1.00  0.00     0.011 A 
BRANCH  26  29
HETATM   29  O   UNL     1      36.918 -15.191  -4.609  1.00  0.00    -0.356 OA
HETATM   30  C   UNL     1      36.024 -14.087  -4.690  1.00  0.00     0.210 C 
ENDBRANCH  26  29
ENDBRANCH  22  23
ENDBRANCH   3  22
TORSDOF 5
ENDMDL
MODEL 2
REMARK VINA RESULT:      -9.3      3.320      6.287
REMARK  5 active torsions:
REMARK  status: ('A' for Active; 'I' for Inactive)
REMARK    1  A    between atoms: C_4  and  N_5 
REMARK       I    between atoms: N_5  and  C_6 
REMARK    2  A    between atoms: C_6  and  C_7 
REMARK    3  A    between atoms: N_9  and  C_10 
REMARK    4  A    between atoms: C_10  and  C_11 
REMARK    5  A    between atoms: C_14  and  O_15 
ROOT
HETATM    1  C   UNL     1      40.994 -15.902   1.003  1.00  0.00     0.105 C 
HETATM    2  C   UNL     1      41.463 -14.461   1.097  1.00  0.00     0.140 C 
HETATM    3  N   UNL     1      41.208 -14.117   2.476  1.00  0.00    -0.347 N 
HETATM    4  C   UNL     1      40.227 -14.912   3.043  1.00  0.00     0.221 C 
HETATM    5  O   UNL     1      39.698 -14.752   4.130  1.00  0.00    -0.273 OA
HETATM    6  C   UNL     1      39.916 -16.033   2.080  1.00  0.00     0.118 C 
ENDROOT
BRANCH   1   7
HETATM    7  C   UNL     1      42.147 -16.884   1.196  1.00  0.00     0.228 C 
HETATM    8  N   UNL     1      41.978 -17.765   2.238  1.00  0.00    -0.325 N 
HETATM    9  H   UNL     1      41.120 -17.722   2.791  1.00  0.00     0.169 HD
HETATM   10  O   UNL     1      43.122 -16.832   0.451  1.00  0.00    -0.273 OA
BRANCH   8  11
HETATM   11  C   UNL     1      42.855 -18.767   2.718  1.00  0.00     0.065 A 
HETATM   12  C   UNL     1      43.238 -19.886   1.972  1.00  0.00     0.038 A 
HETATM   13  C   UNL     1      44.124 -20.826   2.509  1.00  0.00    -0.059 A 
HETATM   14  C   UNL     1      44.522 -22.040   1.721  1.00  0.00     0.048 C 
HETATM   15  C   UNL     1      44.597 -20.648   3.814  1.00  0.00     0.020 A 
HETATM   16  C   UNL     1      44.212 -19.527   4.570  1.00  0.00    -0.005 A 
HETATM   17  C   UNL     1      43.339 -18.567   4.021  1.00  0.00     0.093 A 
HETATM   18  C   UNL     1      44.675 -19.330   5.878  1.00  0.00     0.015 A 
HETATM   19  N   UNL     1      42.955 -17.469   4.717  1.00  0.00    -0.258 NA
HETATM   20  C   UNL     1      43.416 -17.319   5.979  1.00  0.00     0.117 A 
HETATM   21  C   UNL     1      44.269 -18.212   6.596  1.00  0.00     0.020 A 
ENDBRANCH   8  11
ENDBRANCH   1   7
BRANCH   3  22
HETATM   22  C   UNL     1      41.702 -12.894   3.077  1.00  0.00     0.164 C 
BRANCH  22  23
HETATM   23  C   UNL     1      42.523 -13.138   4.317  1.00  0.00    -0.040 A 
HETATM   24  C   UNL     1      42.100 -12.639   5.554  1.00  0.00     0.011 A 
HETATM   25  C   UNL     1      42.844 -12.888   6.709  1.00  0.00     0.037 A 
HETATM   26  C   UNL     1      44.018 -13.641   6.650  1.00  0.00     0.068 A 
HETATM   27  C   UNL     1      44.464 -14.113   5.415  1.00  0.00     0.037 A 
HETATM   28  C   UNL     1      43.721 -13.863   4.256  1.00  0.00     0.011 A 
BRANCH  26  29
HETATM   29  O   UNL     1      44.641 -13.835   7.851  1.00  0.00    -0.356 OA
HETATM   30  C   UNL     1      44.749 -12.697   8.699  1.00  0.00     0.210 C 
ENDBRANCH  26  29
ENDBRANCH  22  23
ENDBRANCH   3  22
TORSDOF 5
ENDMDL
MODEL 3
REMARK VINA RESULT:      -9.2      1.323      2.706
REMARK  5 active torsions:
REMARK  status: ('A' for Active; 'I' for Inactive)
REMARK    1  A    between atoms: C_4  and  N_5 
REMARK       I    between atoms: N_5  and  C_6 
REMARK    2  A    between atoms: C_6  and  C_7 
REMARK    3  A    between atoms: N_9  and  C_10 
REMARK    4  A    between atoms: C_10  and  C_11 
REMARK    5  A    between atoms: C_14  and  O_15 
ROOT
HETATM    1  C   UNL     1      40.040 -15.157   2.674  1.00  0.00     0.105 C 
HETATM    2  C   UNL     1      40.215 -15.592   1.230  1.00  0.00     0.140 C 
HETATM    3  N   UNL     1      40.758 -14.417   0.591  1.00  0.00    -0.347 N 
HETATM    4  C   UNL     1      40.450 -13.256   1.278  1.00  0.00     0.221 C 
HETATM    5  O   UNL     1      40.636 -12.113   0.897  1.00  0.00    -0.273 OA
HETATM    6  C   UNL     1      39.837 -13.642   2.603  1.00  0.00     0.118 C 
ENDROOT
BRANCH   1   7
HETATM    7  C   UNL     1      41.239 -15.555   3.532  1.00  0.00     0.228 C 
HETATM    8  N   UNL     1      41.307 -16.896   3.829  1.00  0.00    -0.325 N 
HETATM    9  H   UNL     1      40.591 -17.523   3.462  1.00  0.00     0.169 HD
HETATM   10  O   UNL     1      42.035 -14.695   3.902  1.00  0.00    -0.273 OA
BRANCH   8  11
HETATM   11  C   UNL     1      42.248 -17.591   4.626  1.00  0.00     0.065 A 
HETATM   12  C   UNL     1      42.444 -17.346   5.989  1.00  0.00     0.038 A 
HETATM   13  C   UNL     1      43.383 -18.087   6.714  1.00  0.00    -0.059 A 
HETATM   14  C   UNL     1      43.613 -17.814   8.172  1.00  0.00     0.048 C 
HETATM   15  C   UNL     1      44.145 -19.055   6.051  1.00  0.00     0.020 A 
HETATM   16  C   UNL     1      43.955 -19.303   4.681  1.00  0.00    -0.005 A 
HETATM   17  C   UNL     1      42.993 -18.574   3.954  1.00  0.00     0.093 A 
HETATM   18  C   UNL     1      44.708 -20.269   3.998  1.00  0.00     0.015 A 
HETATM   19  N   UNL     1      42.776 -18.794   2.634  1.00  0.00    -0.258 NA
HETATM   20  C   UNL     1      43.528 -19.727   2.010  1.00  0.00     0.117 A 
HETATM   21  C   UNL     1      44.495 -20.483   2.642  1.00  0.00     0.020 A 
ENDBRANCH   8  11
ENDBRANCH   1   7
BRANCH   3  22
HETATM   22  C   UNL     1      41.286 -14.439  -0.759  1.00  0.00     0.164 C 
BRANCH  22  23
HETATM   23  C   UNL     1      40.228 -14.704  -1.800  1.00  0.00    -0.040 A 
HETATM   24  C   UNL     1      38.993 -14.049  -1.735  1.00  0.00     0.011 A 
HETATM   25  C   UNL     1      38.023 -14.271  -2.715  1.00  0.00     0.037 A 
HETATM   26  C   UNL     1      38.270 -15.145  -3.775  1.00  0.00     0.068 A 
HETATM   27  C   UNL     1      39.486 -15.828  -3.828  1.00  0.00     0.037 A 
HETATM   28  C   UNL     1      40.460 -15.608  -2.846  1.00  0.00     0.011 A 
BRANCH  26  29
HETATM   29  O   UNL     1      37.252 -15.257  -4.680  1.00  0.00    -0.356 OA
HETATM   30  C   UNL     1      36.244 -14.255  -4.626  1.00  0.00     0.210 C 
ENDBRANCH  26  29
ENDBRANCH  22  23
ENDBRANCH   3  22
TORSDOF 5
ENDMDL
MODEL 4
REMARK VINA RESULT:      -9.1      2.431      8.438
REMARK  5 active torsions:
REMARK  status: ('A' for Active; 'I' for Inactive)
REMARK    1  A    between atoms: C_4  and  N_5 
REMARK       I    between atoms: N_5  and  C_6 
REMARK    2  A    between atoms: C_6  and  C_7 
REMARK    3  A    between atoms: N_9  and  C_10 
REMARK    4  A    between atoms: C_10  and  C_11 
REMARK    5  A    between atoms: C_14  and  O_15 
ROOT
HETATM    1  C   UNL     1      41.984 -14.489   3.516  1.00  0.00     0.105 C 
HETATM    2  C   UNL     1      43.194 -14.889   4.341  1.00  0.00     0.140 C 
HETATM    3  N   UNL     1      42.842 -16.198   4.836  1.00  0.00    -0.347 N 
HETATM    4  C   UNL     1      41.473 -16.397   4.867  1.00  0.00     0.221 C 
HETATM    5  O   UNL     1      40.885 -17.335   5.379  1.00  0.00    -0.273 OA
HETATM    6  C   UNL     1      40.815 -15.245   4.148  1.00  0.00     0.118 C 
ENDROOT
BRANCH   1   7
HETATM    7  C   UNL     1      42.175 -14.819   2.038  1.00  0.00     0.228 C 
HETATM    8  N   UNL     1      41.570 -13.937   1.174  1.00  0.00    -0.325 N 
HETATM    9  H   UNL     1      41.062 -13.138   1.555  1.00  0.00     0.169 HD
HETATM   10  O   UNL     1      42.820 -15.813   1.715  1.00  0.00    -0.273 OA
BRANCH   8  11
HETATM   11  C   UNL     1      41.509 -13.965  -0.240  1.00  0.00     0.065 A 
HETATM   12  C   UNL     1      40.979 -15.031  -0.974  1.00  0.00     0.038 A 
HETATM   13  C   UNL     1      40.939 -14.978  -2.372  1.00  0.00    -0.059 A 
HETATM   14  C   UNL     1      40.391 -16.128  -3.165  1.00  0.00     0.048 C 
HETATM   15  C   UNL     1      41.466 -13.859  -3.026  1.00  0.00     0.020 A 
HETATM   16  C   UNL     1      42.003 -12.786  -2.294  1.00  0.00    -0.005 A 
HETATM   17  C   UNL     1      42.022 -12.828  -0.885  1.00  0.00     0.093 A 
HETATM   18  C   UNL     1      42.534 -11.656  -2.929  1.00  0.00     0.015 A 
HETATM   19  N   UNL     1      42.523 -11.807  -0.146  1.00  0.00    -0.258 NA
HETATM   20  C   UNL     1      43.034 -10.738  -0.796  1.00  0.00     0.117 A 
HETATM   21  C   UNL     1      43.061 -10.617  -2.172  1.00  0.00     0.020 A 
ENDBRANCH   8  11
ENDBRANCH   1   7
BRANCH   3  22
HETATM   22  C   UNL     1      43.798 -17.061   5.502  1.00  0.00     0.164 C 
BRANCH  22  23
HETATM   23  C   UNL     1      44.040 -18.352   4.761  1.00  0.00    -0.040 A 
HETATM   24  C   UNL     1      43.675 -18.474   3.416  1.00  0.00     0.011 A 
HETATM   25  C   UNL     1      43.925 -19.659   2.720  1.00  0.00     0.037 A 
HETATM   26  C   UNL     1      44.547 -20.737   3.352  1.00  0.00     0.068 A 
HETATM   27  C   UNL     1      44.883 -20.635   4.703  1.00  0.00     0.037 A 
HETATM   28  C   UNL     1      44.632 -19.449   5.403  1.00  0.00     0.011 A 
BRANCH  26  29
HETATM   29  O   UNL     1      44.757 -21.829   2.557  1.00  0.00    -0.356 OA
HETATM   30  C   UNL     1      43.984 -21.902   1.365  1.00  0.00     0.210 C 
ENDBRANCH  26  29
ENDBRANCH  22  23
ENDBRANCH   3  22
TORSDOF 5
ENDMDL
MODEL 5
REMARK VINA RESULT:      -9.0      3.372      6.398
REMARK  5 active torsions:
REMARK  status: ('A' for Active; 'I' for Inactive)
REMARK    1  A    between atoms: C_4  and  N_5 
REMARK       I    between atoms: N_5  and  C_6 
REMARK    2  A    between atoms: C_6  and  C_7 
REMARK    3  A    between atoms: N_9  and  C_10 
REMARK    4  A    between atoms: C_10  and  C_11 
REMARK    5  A    between atoms: C_14  and  O_15 
ROOT
HETATM    1  C   UNL     1      42.149 -16.504   0.487  1.00  0.00     0.105 C 
HETATM    2  C   UNL     1      42.183 -14.996   0.655  1.00  0.00     0.140 C 
HETATM    3  N   UNL     1      41.202 -14.753   1.685  1.00  0.00    -0.347 N 
HETATM    4  C   UNL     1      40.267 -15.770   1.771  1.00  0.00     0.221 C 
HETATM    5  O   UNL     1      39.243 -15.764   2.433  1.00  0.00    -0.273 OA
HETATM    6  C   UNL     1      40.733 -16.910   0.899  1.00  0.00     0.118 C 
ENDROOT
BRANCH   1   7
HETATM    7  C   UNL     1      43.229 -17.188   1.322  1.00  0.00     0.228 C 
HETATM    8  N   UNL     1      42.765 -17.801   2.462  1.00  0.00    -0.325 N 
HETATM    9  H   UNL     1      41.766 -17.776   2.668  1.00  0.00     0.169 HD
HETATM   10  O   UNL     1      44.400 -17.149   0.952  1.00  0.00    -0.273 OA
BRANCH   8  11
HETATM   11  C   UNL     1      43.488 -18.483   3.471  1.00  0.00     0.065 A 
HETATM   12  C   UNL     1      43.872 -17.897   4.682  1.00  0.00     0.038 A 
HETATM   13  C   UNL     1      44.570 -18.641   5.639  1.00  0.00    -0.059 A 
HETATM   14  C   UNL     1      45.003 -18.011   6.930  1.00  0.00     0.048 C 
HETATM   15  C   UNL     1      44.908 -19.969   5.355  1.00  0.00     0.020 A 
HETATM   16  C   UNL     1      44.528 -20.561   4.139  1.00  0.00    -0.005 A 
HETATM   17  C   UNL     1      43.803 -19.821   3.184  1.00  0.00     0.093 A 
HETATM   18  C   UNL     1      44.854 -21.890   3.836  1.00  0.00     0.015 A 
HETATM   19  N   UNL     1      43.411 -20.363   2.005  1.00  0.00    -0.258 NA
HETATM   20  C   UNL     1      43.753 -21.644   1.746  1.00  0.00     0.117 A 
HETATM   21  C   UNL     1      44.466 -22.441   2.621  1.00  0.00     0.020 A 
ENDBRANCH   8  11
ENDBRANCH   1   7
BRANCH   3  22
HETATM   22  C   UNL     1      41.048 -13.461   2.325  1.00  0.00     0.164 C 
BRANCH  22  23
HETATM   23  C   UNL     1      41.736 -13.382   3.664  1.00  0.00    -0.040 A 
HETATM   24  C   UNL     1      42.903 -14.117   3.903  1.00  0.00     0.011 A 
HETATM   25  C   UNL     1      43.557 -14.022   5.133  1.00  0.00     0.037 A 
HETATM   26  C   UNL     1      43.063 -13.192   6.140  1.00  0.00     0.068 A 
HETATM   27  C   UNL     1      41.881 -12.482   5.921  1.00  0.00     0.037 A 
HETATM   28  C   UNL     1      41.222 -12.576   4.690  1.00  0.00     0.011 A 
BRANCH  26  29
HETATM   29  O   UNL     1      43.807 -13.169   7.287  1.00  0.00    -0.356 OA
HETATM   30  C   UNL     1      45.094 -13.772   7.218  1.00  0.00     0.210 C 
ENDBRANCH  26  29
ENDBRANCH  22  23
ENDBRANCH   3  22
TORSDOF 5
ENDMDL
MODEL 6
REMARK VINA RESULT:      -8.9      3.147      5.930
REMARK  5 active torsions:
REMARK  status: ('A' for Active; 'I' for Inactive)
REMARK    1  A    between atoms: C_4  and  N_5 
REMARK       I    between atoms: N_5  and  C_6 
REMARK    2  A    between atoms: C_6  and  C_7 
REMARK    3  A    between atoms: N_9  and  C_10 
REMARK    4  A    between atoms: C_10  and  C_11 
REMARK    5  A    between atoms: C_14  and  O_15 
ROOT
HETATM    1  C   UNL     1      39.677 -13.938   2.994  1.00  0.00     0.105 C 
HETATM    2  C   UNL     1      39.626 -15.157   2.091  1.00  0.00     0.140 C 
HETATM    3  N   UNL     1      40.754 -14.968   1.211  1.00  0.00    -0.347 N 
HETATM    4  C   UNL     1      41.126 -13.638   1.112  1.00  0.00     0.221 C 
HETATM    5  O   UNL     1      41.932 -13.163   0.330  1.00  0.00    -0.273 OA
HETATM    6  C   UNL     1      40.358 -12.858   2.152  1.00  0.00     0.118 C 
ENDROOT
BRANCH   1   7
HETATM    7  C   UNL     1      40.419 -14.230   4.296  1.00  0.00     0.228 C 
HETATM    8  N   UNL     1      41.762 -14.483   4.143  1.00  0.00    -0.325 N 
HETATM    9  H   UNL     1      42.170 -14.448   3.208  1.00  0.00     0.169 HD
HETATM   10  O   UNL     1      39.804 -14.233   5.359  1.00  0.00    -0.273 OA
BRANCH   8  11
HETATM   11  C   UNL     1      42.727 -14.828   5.120  1.00  0.00     0.065 A 
HETATM   12  C   UNL     1      43.542 -13.895   5.769  1.00  0.00     0.038 A 
HETATM   13  C   UNL     1      44.463 -14.312   6.737  1.00  0.00    -0.059 A 
HETATM   14  C   UNL     1      45.355 -13.318   7.421  1.00  0.00     0.048 C 
HETATM   15  C   UNL     1      44.579 -15.676   7.023  1.00  0.00     0.020 A 
HETATM   16  C   UNL     1      43.765 -16.618   6.372  1.00  0.00    -0.005 A 
HETATM   17  C   UNL     1      42.820 -16.198   5.414  1.00  0.00     0.093 A 
HETATM   18  C   UNL     1      43.864 -17.989   6.646  1.00  0.00     0.015 A 
HETATM   19  N   UNL     1      42.011 -17.077   4.774  1.00  0.00    -0.258 NA
HETATM   20  C   UNL     1      42.144 -18.392   5.058  1.00  0.00     0.117 A 
HETATM   21  C   UNL     1      43.045 -18.891   5.978  1.00  0.00     0.020 A 
ENDBRANCH   8  11
ENDBRANCH   1   7
BRANCH   3  22
HETATM   22  C   UNL     1      41.224 -16.005   0.313  1.00  0.00     0.164 C 
BRANCH  22  23
HETATM   23  C   UNL     1      42.153 -16.986   0.983  1.00  0.00    -0.040 A 
HETATM   24  C   UNL     1      41.744 -18.305   1.207  1.00  0.00     0.011 A 
HETATM   25  C   UNL     1      42.614 -19.223   1.800  1.00  0.00     0.037 A 
HETATM   26  C   UNL     1      43.903 -18.841   2.175  1.00  0.00     0.068 A 
HETATM   27  C   UNL     1      44.306 -17.519   1.986  1.00  0.00     0.037 A 
HETATM   28  C   UNL     1      43.436 -16.596   1.393  1.00  0.00     0.011 A 
BRANCH  26  29
HETATM   29  O   UNL     1      44.663 -19.837   2.723  1.00  0.00    -0.356 OA
HETATM   30  C   UNL     1      44.312 -21.169   2.368  1.00  0.00     0.210 C 
ENDBRANCH  26  29
ENDBRANCH  22  23
ENDBRANCH   3  22
TORSDOF 5
ENDMDL
MODEL 7
REMARK VINA RESULT:      -8.7      2.395      2.834
REMARK  5 active torsions:
REMARK  status: ('A' for Active; 'I' for Inactive)
REMARK    1  A    between atoms: C_4  and  N_5 
REMARK       I    between atoms: N_5  and  C_6 
REMARK    2  A    between atoms: C_6  and  C_7 
REMARK    3  A    between atoms: N_9  and  C_10 
REMARK    4  A    between atoms: C_10  and  C_11 
REMARK    5  A    between atoms: C_14  and  O_15 
ROOT
HETATM    1  C   UNL     1      40.792 -16.079   0.932  1.00  0.00     0.105 C 
HETATM    2  C   UNL     1      41.137 -14.866   0.087  1.00  0.00     0.140 C 
HETATM    3  N   UNL     1      41.442 -13.852   1.068  1.00  0.00    -0.347 N 
HETATM    4  C   UNL     1      40.849 -14.110   2.292  1.00  0.00     0.221 C 
HETATM    5  O   UNL     1      40.799 -13.358   3.250  1.00  0.00    -0.273 OA
HETATM    6  C   UNL     1      40.265 -15.501   2.246  1.00  0.00     0.118 C 
ENDROOT
BRANCH   1   7
HETATM    7  C   UNL     1      41.999 -16.992   1.128  1.00  0.00     0.228 C 
HETATM    8  N   UNL     1      41.935 -17.791   2.246  1.00  0.00    -0.325 N 
HETATM    9  H   UNL     1      41.111 -17.739   2.846  1.00  0.00     0.169 HD
HETATM   10  O   UNL     1      42.925 -16.960   0.321  1.00  0.00    -0.273 OA
BRANCH   8  11
HETATM   11  C   UNL     1      42.886 -18.712   2.746  1.00  0.00     0.065 A 
HETATM   12  C   UNL     1      43.240 -19.896   2.092  1.00  0.00     0.038 A 
HETATM   13  C   UNL     1      44.203 -20.749   2.642  1.00  0.00    -0.059 A 
HETATM   14  C   UNL     1      44.571 -22.032   1.955  1.00  0.00     0.048 C 
HETATM   15  C   UNL     1      44.783 -20.418   3.872  1.00  0.00     0.020 A 
HETATM   16  C   UNL     1      44.428 -19.232   4.536  1.00  0.00    -0.005 A 
HETATM   17  C   UNL     1      43.476 -18.359   3.971  1.00  0.00     0.093 A 
HETATM   18  C   UNL     1      44.998 -18.881   5.767  1.00  0.00     0.015 A 
HETATM   19  N   UNL     1      43.118 -17.201   4.578  1.00  0.00    -0.258 NA
HETATM   20  C   UNL     1      43.683 -16.903   5.769  1.00  0.00     0.117 A 
HETATM   21  C   UNL     1      44.618 -17.702   6.397  1.00  0.00     0.020 A 
ENDBRANCH   8  11
ENDBRANCH   1   7
BRANCH   3  22
HETATM   22  C   UNL     1      42.035 -12.578   0.713  1.00  0.00     0.164 C 
BRANCH  22  23
HETATM   23  C   UNL     1      41.735 -12.165  -0.706  1.00  0.00    -0.040 A 
HETATM   24  C   UNL     1      42.736 -12.217  -1.683  1.00  0.00     0.011 A 
HETATM   25  C   UNL     1      42.453 -11.862  -3.004  1.00  0.00     0.037 A 
HETATM   26  C   UNL     1      41.169 -11.455  -3.371  1.00  0.00     0.068 A 
HETATM   27  C   UNL     1      40.175 -11.369  -2.396  1.00  0.00     0.037 A 
HETATM   28  C   UNL     1      40.457 -11.722  -1.071  1.00  0.00     0.011 A 
BRANCH  26  29
HETATM   29  O   UNL     1      41.015 -11.159  -4.697  1.00  0.00    -0.356 OA
HETATM   30  C   UNL     1      42.065 -10.416  -5.306  1.00  0.00     0.210 C 
ENDBRANCH  26  29
ENDBRANCH  22  23
ENDBRANCH   3  22
TORSDOF 5
ENDMDL
MODEL 8
REMARK VINA RESULT:      -8.6      5.604      9.488
REMARK  5 active torsions:
REMARK  status: ('A' for Active; 'I' for Inactive)
REMARK    1  A    between atoms: C_4  and  N_5 
REMARK       I    between atoms: N_5  and  C_6 
REMARK    2  A    between atoms: C_6  and  C_7 
REMARK    3  A    between atoms: N_9  and  C_10 
REMARK    4  A    between atoms: C_10  and  C_11 
REMARK    5  A    between atoms: C_14  and  O_15 
ROOT
HETATM    1  C   UNL     1      42.320 -13.464   5.066  1.00  0.00     0.105 C 
HETATM    2  C   UNL     1      41.736 -14.835   4.778  1.00  0.00     0.140 C 
HETATM    3  N   UNL     1      42.473 -15.704   5.664  1.00  0.00    -0.347 N 
HETATM    4  C   UNL     1      43.698 -15.170   6.025  1.00  0.00     0.221 C 
HETATM    5  O   UNL     1      44.592 -15.739   6.628  1.00  0.00    -0.273 OA
HETATM    6  C   UNL     1      43.747 -13.740   5.543  1.00  0.00     0.118 C 
ENDROOT
BRANCH   1   7
HETATM    7  C   UNL     1      41.488 -12.701   6.093  1.00  0.00     0.228 C 
HETATM    8  N   UNL     1      42.195 -11.778   6.828  1.00  0.00    -0.325 N 
HETATM    9  H   UNL     1      43.191 -11.653   6.642  1.00  0.00     0.169 HD
HETATM   10  O   UNL     1      40.290 -12.946   6.210  1.00  0.00    -0.273 OA
BRANCH   8  11
HETATM   11  C   UNL     1      41.753 -10.939   7.879  1.00  0.00     0.065 A 
HETATM   12  C   UNL     1      40.514 -10.291   7.887  1.00  0.00     0.038 A 
HETATM   13  C   UNL     1      40.140  -9.490   8.971  1.00  0.00    -0.059 A 
HETATM   14  C   UNL     1      38.821  -8.774   8.975  1.00  0.00     0.048 C 
HETATM   15  C   UNL     1      41.036  -9.320  10.032  1.00  0.00     0.020 A 
HETATM   16  C   UNL     1      42.284  -9.966  10.029  1.00  0.00    -0.005 A 
HETATM   17  C   UNL     1      42.652 -10.793   8.948  1.00  0.00     0.093 A 
HETATM   18  C   UNL     1      43.195  -9.810  11.082  1.00  0.00     0.015 A 
HETATM   19  N   UNL     1      43.843 -11.439   8.916  1.00  0.00    -0.258 NA
HETATM   20  C   UNL     1      44.697 -11.257   9.947  1.00  0.00     0.117 A 
HETATM   21  C   UNL     1      44.422 -10.461  11.041  1.00  0.00     0.020 A 
ENDBRANCH   8  11
ENDBRANCH   1   7
BRANCH   3  22
HETATM   22  C   UNL     1      42.100 -17.087   5.886  1.00  0.00     0.164 C 
BRANCH  22  23
HETATM   23  C   UNL     1      42.824 -18.045   4.975  1.00  0.00    -0.040 A 
HETATM   24  C   UNL     1      43.830 -18.877   5.480  1.00  0.00     0.011 A 
HETATM   25  C   UNL     1      44.482 -19.786   4.644  1.00  0.00     0.037 A 
HETATM   26  C   UNL     1      44.139 -19.883   3.294  1.00  0.00     0.068 A 
HETATM   27  C   UNL     1      43.161 -19.033   2.776  1.00  0.00     0.037 A 
HETATM   28  C   UNL     1      42.507 -18.120   3.612  1.00  0.00     0.011 A 
BRANCH  26  29
HETATM   29  O   UNL     1      44.832 -20.827   2.589  1.00  0.00    -0.356 OA
HETATM   30  C   UNL     1      44.059 -21.716   1.791  1.00  0.00     0.210 C 
ENDBRANCH  26  29
ENDBRANCH  22  23
ENDBRANCH   3  22
TORSDOF 5
ENDMDL
MODEL 9
REMARK VINA RESULT:      -8.5      6.314      9.835
REMARK  5 active torsions:
REMARK  status: ('A' for Active; 'I' for Inactive)
REMARK    1  A    between atoms: C_4  and  N_5 
REMARK       I    between atoms: N_5  and  C_6 
REMARK    2  A    between atoms: C_6  and  C_7 
REMARK    3  A    between atoms: N_9  and  C_10 
REMARK    4  A    between atoms: C_10  and  C_11 
REMARK    5  A    between atoms: C_14  and  O_15 
ROOT
HETATM    1  C   UNL     1      39.732 -10.739   6.883  1.00  0.00     0.105 C 
HETATM    2  C   UNL     1      39.442 -12.227   6.950  1.00  0.00     0.140 C 
HETATM    3  N   UNL     1      39.752 -12.687   5.618  1.00  0.00    -0.347 N 
HETATM    4  C   UNL     1      39.675 -11.672   4.680  1.00  0.00     0.221 C 
HETATM    5  O   UNL     1      39.728 -11.794   3.468  1.00  0.00    -0.273 OA
HETATM    6  C   UNL     1      39.514 -10.364   5.417  1.00  0.00     0.118 C 
ENDROOT
BRANCH   1   7
HETATM    7  C   UNL     1      41.142 -10.416   7.374  1.00  0.00     0.228 C 
HETATM    8  N   UNL     1      41.598 -11.238   8.378  1.00  0.00    -0.325 N 
HETATM    9  H   UNL     1      40.998 -11.993   8.713  1.00  0.00     0.169 HD
HETATM   10  O   UNL     1      41.760  -9.479   6.876  1.00  0.00    -0.273 OA
BRANCH   8  11
HETATM   11  C   UNL     1      42.824 -11.196   9.085  1.00  0.00     0.065 A 
HETATM   12  C   UNL     1      44.037 -11.659   8.564  1.00  0.00     0.038 A 
HETATM   13  C   UNL     1      45.212 -11.568   9.317  1.00  0.00    -0.059 A 
HETATM   14  C   UNL     1      46.512 -12.082   8.772  1.00  0.00     0.048 C 
HETATM   15  C   UNL     1      45.152 -11.038  10.610  1.00  0.00     0.020 A 
HETATM   16  C   UNL     1      43.936 -10.574  11.140  1.00  0.00    -0.005 A 
HETATM   17  C   UNL     1      42.755 -10.643  10.374  1.00  0.00     0.093 A 
HETATM   18  C   UNL     1      43.854 -10.039  12.433  1.00  0.00     0.015 A 
HETATM   19  N   UNL     1      41.567 -10.196  10.849  1.00  0.00    -0.258 NA
HETATM   20  C   UNL     1      41.528  -9.695  12.103  1.00  0.00     0.117 A 
HETATM   21  C   UNL     1      42.633  -9.595  12.925  1.00  0.00     0.020 A 
ENDBRANCH   8  11
ENDBRANCH   1   7
BRANCH   3  22
HETATM   22  C   UNL     1      39.825 -14.094   5.277  1.00  0.00     0.164 C 
BRANCH  22  23
HETATM   23  C   UNL     1      41.111 -14.741   5.725  1.00  0.00    -0.040 A 
HETATM   24  C   UNL     1      41.111 -16.057   6.202  1.00  0.00     0.011 A 
HETATM   25  C   UNL     1      42.305 -16.668   6.590  1.00  0.00     0.037 A 
HETATM   26  C   UNL     1      43.517 -15.980   6.505  1.00  0.00     0.068 A 
HETATM   27  C   UNL     1      43.520 -14.656   6.063  1.00  0.00     0.037 A 
HETATM   28  C   UNL     1      42.325 -14.041   5.675  1.00  0.00     0.011 A 
BRANCH  26  29
HETATM   29  O   UNL     1      44.616 -16.696   6.892  1.00  0.00    -0.356 OA
HETATM   30  C   UNL     1      44.784 -17.973   6.287  1.00  0.00     0.210 C 
ENDBRANCH  26  29
ENDBRANCH  22  23
ENDBRANCH   3  22
TORSDOF 5
ENDMDL
MODEL 10
REMARK VINA RESULT:      -8.5      3.042      5.583
REMARK  5 active torsions:
REMARK  status: ('A' for Active; 'I' for Inactive)
REMARK    1  A    between atoms: C_4  and  N_5 
REMARK       I    between atoms: N_5  and  C_6 
REMARK    2  A    between atoms: C_6  and  C_7 
REMARK    3  A    between atoms: N_9  and  C_10 
REMARK    4  A    between atoms: C_10  and  C_11 
REMARK    5  A    between atoms: C_14  and  O_15 
ROOT
HETATM    1  C   UNL     1      41.251 -15.131   0.311  1.00  0.00     0.105 C 
HETATM    2  C   UNL     1      41.970 -13.893   0.814  1.00  0.00     0.140 C 
HETATM    3  N   UNL     1      40.936 -13.167   1.511  1.00  0.00    -0.347 N 
HETATM    4  C   UNL     1      39.669 -13.503   1.068  1.00  0.00     0.221 C 
HETATM    5  O   UNL     1      38.624 -12.944   1.358  1.00  0.00    -0.273 OA
HETATM    6  C   UNL     1      39.792 -14.698   0.155  1.00  0.00     0.118 C 
ENDROOT
BRANCH   1   7
HETATM    7  C   UNL     1      41.421 -16.310   1.266  1.00  0.00     0.228 C 
HETATM    8  N   UNL     1      42.728 -16.639   1.539  1.00  0.00    -0.325 N 
HETATM    9  H   UNL     1      43.477 -16.090   1.116  1.00  0.00     0.169 HD
HETATM   10  O   UNL     1      40.428 -16.880   1.712  1.00  0.00    -0.273 OA
BRANCH   8  11
HETATM   11  C   UNL     1      43.240 -17.689   2.338  1.00  0.00     0.065 A 
HETATM   12  C   UNL     1      43.478 -18.983   1.862  1.00  0.00     0.038 A 
HETATM   13  C   UNL     1      44.003 -19.964   2.710  1.00  0.00    -0.059 A 
HETATM   14  C   UNL     1      44.240 -21.359   2.210  1.00  0.00     0.048 C 
HETATM   15  C   UNL     1      44.256 -19.643   4.048  1.00  0.00     0.020 A 
HETATM   16  C   UNL     1      44.015 -18.347   4.533  1.00  0.00    -0.005 A 
HETATM   17  C   UNL     1      43.510 -17.350   3.674  1.00  0.00     0.093 A 
HETATM   18  C   UNL     1      44.263 -18.004   5.869  1.00  0.00     0.015 A 
HETATM   19  N   UNL     1      43.275 -16.086   4.105  1.00  0.00    -0.258 NA
HETATM   20  C   UNL     1      43.519 -15.798   5.402  1.00  0.00     0.117 A 
HETATM   21  C   UNL     1      44.008 -16.713   6.314  1.00  0.00     0.020 A 
ENDBRANCH   8  11
ENDBRANCH   1   7
BRANCH   3  22
HETATM   22  C   UNL     1      41.220 -12.013   2.342  1.00  0.00     0.164 C 
BRANCH  22  23
HETATM   23  C   UNL     1      40.676 -12.148   3.741  1.00  0.00    -0.040 A 
HETATM   24  C   UNL     1      39.848 -11.155   4.276  1.00  0.00     0.011 A 
HETATM   25  C   UNL     1      39.320 -11.293   5.562  1.00  0.00     0.037 A 
HETATM   26  C   UNL     1      39.605 -12.422   6.331  1.00  0.00     0.068 A 
HETATM   27  C   UNL     1      40.457 -13.400   5.817  1.00  0.00     0.037 A 
HETATM   28  C   UNL     1      40.989 -13.264   4.530  1.00  0.00     0.011 A 
BRANCH  26  29
HETATM   29  O   UNL     1      39.008 -12.448   7.561  1.00  0.00    -0.356 OA
HETATM   30  C   UNL     1      39.347 -11.392   8.452  1.00  0.00     0.210 C 
ENDBRANCH  26  29
ENDBRANCH  22  23
ENDBRANCH   3  22
TORSDOF 5
ENDMDL
