MODEL 1
REMARK VINA RESULT:      -9.1      0.000      0.000
REMARK  5 active torsions:
REMARK  status: ('A' for Active; 'I' for Inactive)
REMARK    1  A    between atoms: C_8  and  C_9 
REMARK    2  A    between atoms: C_9  and  N_10 
REMARK    3  A    between atoms: N_13  and  C_15 
REMARK    4  A    between atoms: C_15  and  C_16 
REMARK    5  A    between atoms: C_19  and  C_20 
ROOT
HETATM    1  N   UNL     1      42.588 -14.829   3.280  1.00  0.00    -0.405 N 
HETATM    2  C   UNL     1      43.465 -14.307   4.337  1.00  0.00     0.150 C 
HETATM    3  C   UNL     1      42.885 -13.952   5.738  1.00  0.00     0.206 C 
HETATM    4  N   UNL     1      42.723 -15.173   6.643  1.00  0.00    -0.059 N 
HETATM    5  H   UNL     1      42.395 -14.777   7.536  1.00  0.00     0.280 HD
HETATM    6  C   UNL     1      41.646 -16.132   6.208  1.00  0.00     0.242 C 
HETATM    7  C   UNL     1      40.831 -15.596   5.029  1.00  0.00     0.029 C 
HETATM    8  C   UNL     1      41.566 -15.795   3.689  1.00  0.00     0.123 C 
HETATM    9  C   UNL     1      41.532 -13.237   5.689  1.00  0.00     0.035 C 
HETATM   10  C   UNL     1      40.383 -14.151   5.265  1.00  0.00     0.010 C 
ENDROOT
BRANCH   4  11
HETATM   11  C   UNL     1      44.011 -15.900   7.038  1.00  0.00     0.302 C 
BRANCH  11  12
HETATM   12  C   UNL     1      44.158 -17.226   6.411  1.00  0.00     0.107 A 
HETATM   13  O   UNL     1      44.136 -18.278   7.267  1.00  0.00    -0.216 OA
HETATM   14  N   UNL     1      44.148 -19.451   6.559  1.00  0.00    -0.128 NA
HETATM   15  C   UNL     1      44.253 -19.120   5.260  1.00  0.00     0.097 A 
HETATM   16  C   UNL     1      44.268 -17.700   5.127  1.00  0.00     0.071 A 
BRANCH  15  17
HETATM   17  C   UNL     1      44.290 -20.131   4.203  1.00  0.00    -0.005 A 
HETATM   18  C   UNL     1      44.672 -21.450   4.496  1.00  0.00     0.014 A 
HETATM   19  C   UNL     1      44.683 -22.428   3.500  1.00  0.00     0.001 A 
HETATM   20  C   UNL     1      44.318 -22.098   2.196  1.00  0.00     0.000 A 
HETATM   21  C   UNL     1      43.948 -20.791   1.888  1.00  0.00     0.001 A 
HETATM   22  C   UNL     1      43.932 -19.812   2.885  1.00  0.00     0.014 A 
ENDBRANCH  15  17
ENDBRANCH  11  12
ENDBRANCH   4  11
BRANCH   1  23
HETATM   23  C   UNL     1      42.102 -13.808   2.327  1.00  0.00     0.176 C 
BRANCH  23  24
HETATM   24  C   UNL     1      41.369 -14.394   1.159  1.00  0.00     0.050 A 
HETATM   25  C   UNL     1      40.021 -14.468   0.851  1.00  0.00     0.030 A 
HETATM   26  C   UNL     1      38.822 -13.988   1.564  1.00  0.00     0.070 C 
HETATM   27  N   UNL     1      39.948 -15.151  -0.356  1.00  0.00    -0.354 N 
HETATM   28  H   UNL     1      39.084 -15.379  -0.847  1.00  0.00     0.166 HD
HETATM   29  C   UNL     1      41.160 -15.503  -0.791  1.00  0.00     0.180 A 
HETATM   30  N   UNL     1      42.024 -15.038   0.111  1.00  0.00    -0.353 N 
HETATM   31  H   UNL     1      43.035 -15.150   0.069  1.00  0.00     0.166 HD
ENDBRANCH  23  24
ENDBRANCH   1  23
TORSDOF 5
ENDMDL
MODEL 2
REMARK VINA RESULT:      -8.6      2.135      3.197
REMARK  5 active torsions:
REMARK  status: ('A' for Active; 'I' for Inactive)
REMARK    1  A    between atoms: C_8  and  C_9 
REMARK    2  A    between atoms: C_9  and  N_10 
REMARK    3  A    between atoms: N_13  and  C_15 
REMARK    4  A    between atoms: C_15  and  C_16 
REMARK    5  A    between atoms: C_19  and  C_20 
ROOT
HETATM    1  N   UNL     1      41.375 -14.089   0.364  1.00  0.00    -0.405 N 
HETATM    2  C   UNL     1      42.186 -13.406   1.381  1.00  0.00     0.150 C 
HETATM    3  C   UNL     1      41.584 -13.083   2.781  1.00  0.00     0.206 C 
HETATM    4  N   UNL     1      41.617 -14.278   3.733  1.00  0.00    -0.059 N 
HETATM    5  H   UNL     1      41.250 -13.900   4.618  1.00  0.00     0.280 HD
HETATM    6  C   UNL     1      40.682 -15.399   3.357  1.00  0.00     0.242 C 
HETATM    7  C   UNL     1      39.778 -15.033   2.178  1.00  0.00     0.029 C 
HETATM    8  C   UNL     1      40.512 -15.176   0.830  1.00  0.00     0.123 C 
HETATM    9  C   UNL     1      40.141 -12.573   2.736  1.00  0.00     0.035 C 
HETATM   10  C   UNL     1      39.130 -13.660   2.372  1.00  0.00     0.010 C 
ENDROOT
BRANCH   4  11
HETATM   11  C   UNL     1      43.003 -14.796   4.125  1.00  0.00     0.302 C 
BRANCH  11  12
HETATM   12  C   UNL     1      43.298 -16.146   3.610  1.00  0.00     0.107 A 
HETATM   13  O   UNL     1      43.716 -16.197   2.321  1.00  0.00    -0.216 OA
HETATM   14  N   UNL     1      44.081 -17.478   2.004  1.00  0.00    -0.128 NA
HETATM   15  C   UNL     1      43.818 -18.237   3.082  1.00  0.00     0.097 A 
HETATM   16  C   UNL     1      43.308 -17.416   4.131  1.00  0.00     0.071 A 
BRANCH  15  17
HETATM   17  C   UNL     1      44.091 -19.674   3.105  1.00  0.00    -0.005 A 
HETATM   18  C   UNL     1      44.565 -20.288   4.276  1.00  0.00     0.014 A 
HETATM   19  C   UNL     1      44.800 -21.664   4.315  1.00  0.00     0.001 A 
HETATM   20  C   UNL     1      44.572 -22.442   3.182  1.00  0.00     0.000 A 
HETATM   21  C   UNL     1      44.112 -21.845   2.011  1.00  0.00     0.001 A 
HETATM   22  C   UNL     1      43.871 -20.470   1.971  1.00  0.00     0.014 A 
ENDBRANCH  15  17
ENDBRANCH  11  12
ENDBRANCH   4  11
BRANCH   1  23
HETATM   23  C   UNL     1      40.731 -13.187  -0.614  1.00  0.00     0.176 C 
BRANCH  23  24
HETATM   24  C   UNL     1      39.779 -13.894  -1.531  1.00  0.00     0.050 A 
HETATM   25  C   UNL     1      39.975 -14.846  -2.517  1.00  0.00     0.030 A 
HETATM   26  C   UNL     1      41.194 -15.511  -3.014  1.00  0.00     0.070 C 
HETATM   27  N   UNL     1      38.716 -15.106  -3.044  1.00  0.00    -0.354 N 
HETATM   28  H   UNL     1      38.523 -15.759  -3.802  1.00  0.00     0.166 HD
HETATM   29  C   UNL     1      37.777 -14.367  -2.449  1.00  0.00     0.180 A 
HETATM   30  N   UNL     1      38.409 -13.643  -1.526  1.00  0.00    -0.353 N 
HETATM   31  H   UNL     1      37.966 -12.969  -0.903  1.00  0.00     0.166 HD
ENDBRANCH  23  24
ENDBRANCH   1  23
TORSDOF 5
ENDMDL
MODEL 3
REMARK VINA RESULT:      -8.5      2.305      3.412
REMARK  5 active torsions:
REMARK  status: ('A' for Active; 'I' for Inactive)
REMARK    1  A    between atoms: C_8  and  C_9 
REMARK    2  A    between atoms: C_9  and  N_10 
REMARK    3  A    between atoms: N_13  and  C_15 
REMARK    4  A    between atoms: C_15  and  C_16 
REMARK    5  A    between atoms: C_19  and  C_20 
ROOT
HETATM    1  N   UNL     1      41.204 -13.984   0.433  1.00  0.00    -0.405 N 
HETATM    2  C   UNL     1      42.105 -13.298   1.369  1.00  0.00     0.150 C 
HETATM    3  C   UNL     1      41.623 -12.939   2.806  1.00  0.00     0.206 C 
HETATM    4  N   UNL     1      41.712 -14.117   3.775  1.00  0.00    -0.059 N 
HETATM    5  H   UNL     1      41.423 -13.717   4.679  1.00  0.00     0.280 HD
HETATM    6  C   UNL     1      40.732 -15.228   3.497  1.00  0.00     0.242 C 
HETATM    7  C   UNL     1      39.742 -14.866   2.388  1.00  0.00     0.029 C 
HETATM    8  C   UNL     1      40.363 -15.046   0.988  1.00  0.00     0.123 C 
HETATM    9  C   UNL     1      40.190 -12.404   2.867  1.00  0.00     0.035 C 
HETATM   10  C   UNL     1      39.135 -13.478   2.606  1.00  0.00     0.010 C 
ENDROOT
BRANCH   4  11
HETATM   11  C   UNL     1      43.116 -14.653   4.066  1.00  0.00     0.302 C 
BRANCH  11  12
HETATM   12  C   UNL     1      43.352 -16.011   3.539  1.00  0.00     0.107 A 
HETATM   13  O   UNL     1      43.749 -16.070   2.244  1.00  0.00    -0.216 OA
HETATM   14  N   UNL     1      44.061 -17.363   1.915  1.00  0.00    -0.128 NA
HETATM   15  C   UNL     1      43.784 -18.117   2.993  1.00  0.00     0.097 A 
HETATM   16  C   UNL     1      43.321 -17.283   4.054  1.00  0.00     0.071 A 
BRANCH  15  17
HETATM   17  C   UNL     1      44.002 -19.563   3.004  1.00  0.00    -0.005 A 
HETATM   18  C   UNL     1      43.640 -20.344   1.894  1.00  0.00     0.014 A 
HETATM   19  C   UNL     1      43.870 -21.721   1.885  1.00  0.00     0.001 A 
HETATM   20  C   UNL     1      44.460 -22.336   2.987  1.00  0.00     0.000 A 
HETATM   21  C   UNL     1      44.814 -21.577   4.099  1.00  0.00     0.001 A 
HETATM   22  C   UNL     1      44.588 -20.198   4.109  1.00  0.00     0.014 A 
ENDBRANCH  15  17
ENDBRANCH  11  12
ENDBRANCH   4  11
BRANCH   1  23
HETATM   23  C   UNL     1      40.498 -13.088  -0.507  1.00  0.00     0.176 C 
BRANCH  23  24
HETATM   24  C   UNL     1      41.211 -12.929  -1.817  1.00  0.00     0.050 A 
HETATM   25  C   UNL     1      41.473 -13.820  -2.845  1.00  0.00     0.030 A 
HETATM   26  C   UNL     1      41.136 -15.245  -3.021  1.00  0.00     0.070 C 
HETATM   27  N   UNL     1      42.194 -13.100  -3.789  1.00  0.00    -0.354 N 
HETATM   28  H   UNL     1      42.550 -13.480  -4.666  1.00  0.00     0.166 HD
HETATM   29  C   UNL     1      42.394 -11.841  -3.394  1.00  0.00     0.180 A 
HETATM   30  N   UNL     1      41.792 -11.727  -2.211  1.00  0.00    -0.353 N 
HETATM   31  H   UNL     1      41.770 -10.882  -1.643  1.00  0.00     0.166 HD
ENDBRANCH  23  24
ENDBRANCH   1  23
TORSDOF 5
ENDMDL
MODEL 4
REMARK VINA RESULT:      -8.4      2.124      3.707
REMARK  5 active torsions:
REMARK  status: ('A' for Active; 'I' for Inactive)
REMARK    1  A    between atoms: C_8  and  C_9 
REMARK    2  A    between atoms: C_9  and  N_10 
REMARK    3  A    between atoms: N_13  and  C_15 
REMARK    4  A    between atoms: C_15  and  C_16 
REMARK    5  A    between atoms: C_19  and  C_20 
ROOT
HETATM    1  N   UNL     1      39.227 -13.554   0.422  1.00  0.00    -0.405 N 
HETATM    2  C   UNL     1      40.262 -14.458   0.942  1.00  0.00     0.150 C 
HETATM    3  C   UNL     1      41.393 -13.913   1.864  1.00  0.00     0.206 C 
HETATM    4  N   UNL     1      40.956 -13.772   3.322  1.00  0.00    -0.059 N 
HETATM    5  H   UNL     1      41.812 -13.466   3.808  1.00  0.00     0.280 HD
HETATM    6  C   UNL     1      39.944 -12.682   3.566  1.00  0.00     0.242 C 
HETATM    7  C   UNL     1      39.684 -11.839   2.316  1.00  0.00     0.029 C 
HETATM    8  C   UNL     1      38.712 -12.541   1.346  1.00  0.00     0.123 C 
HETATM    9  C   UNL     1      41.959 -12.560   1.423  1.00  0.00     0.035 C 
HETATM   10  C   UNL     1      40.991 -11.400   1.651  1.00  0.00     0.010 C 
ENDROOT
BRANCH   4  11
HETATM   11  C   UNL     1      40.589 -15.067   4.049  1.00  0.00     0.302 C 
BRANCH  11  12
HETATM   12  C   UNL     1      41.594 -16.137   3.898  1.00  0.00     0.107 A 
HETATM   13  O   UNL     1      42.749 -15.947   4.583  1.00  0.00    -0.216 OA
HETATM   14  N   UNL     1      43.541 -17.060   4.470  1.00  0.00    -0.128 NA
HETATM   15  C   UNL     1      42.901 -17.912   3.649  1.00  0.00     0.097 A 
HETATM   16  C   UNL     1      41.650 -17.350   3.258  1.00  0.00     0.071 A 
BRANCH  15  17
HETATM   17  C   UNL     1      43.457 -19.219   3.303  1.00  0.00    -0.005 A 
HETATM   18  C   UNL     1      43.098 -19.846   2.098  1.00  0.00     0.014 A 
HETATM   19  C   UNL     1      43.646 -21.081   1.746  1.00  0.00     0.001 A 
HETATM   20  C   UNL     1      44.555 -21.708   2.597  1.00  0.00     0.000 A 
HETATM   21  C   UNL     1      44.911 -21.104   3.799  1.00  0.00     0.001 A 
HETATM   22  C   UNL     1      44.368 -19.866   4.151  1.00  0.00     0.014 A 
ENDBRANCH  15  17
ENDBRANCH  11  12
ENDBRANCH   4  11
BRANCH   1  23
HETATM   23  C   UNL     1      39.485 -13.047  -0.942  1.00  0.00     0.176 C 
BRANCH  23  24
HETATM   24  C   UNL     1      40.255 -14.011  -1.793  1.00  0.00     0.050 A 
HETATM   25  C   UNL     1      41.528 -13.958  -2.335  1.00  0.00     0.030 A 
HETATM   26  C   UNL     1      42.587 -12.934  -2.260  1.00  0.00     0.070 C 
HETATM   27  N   UNL     1      41.679 -15.137  -3.054  1.00  0.00    -0.354 N 
HETATM   28  H   UNL     1      42.510 -15.396  -3.584  1.00  0.00     0.166 HD
HETATM   29  C   UNL     1      40.579 -15.890  -2.992  1.00  0.00     0.180 A 
HETATM   30  N   UNL     1      39.720 -15.223  -2.222  1.00  0.00    -0.353 N 
HETATM   31  H   UNL     1      38.779 -15.534  -1.985  1.00  0.00     0.166 HD
ENDBRANCH  23  24
ENDBRANCH   1  23
TORSDOF 5
ENDMDL
MODEL 5
REMARK VINA RESULT:      -8.3      1.698      2.128
REMARK  5 active torsions:
REMARK  status: ('A' for Active; 'I' for Inactive)
REMARK    1  A    between atoms: C_8  and  C_9 
REMARK    2  A    between atoms: C_9  and  N_10 
REMARK    3  A    between atoms: N_13  and  C_15 
REMARK    4  A    between atoms: C_15  and  C_16 
REMARK    5  A    between atoms: C_19  and  C_20 
ROOT
HETATM    1  N   UNL     1      41.051 -13.816   3.062  1.00  0.00    -0.405 N 
HETATM    2  C   UNL     1      42.205 -13.335   3.834  1.00  0.00     0.150 C 
HETATM    3  C   UNL     1      42.095 -13.141   5.375  1.00  0.00     0.206 C 
HETATM    4  N   UNL     1      42.274 -14.444   6.154  1.00  0.00    -0.059 N 
HETATM    5  H   UNL     1      42.237 -14.150   7.140  1.00  0.00     0.280 HD
HETATM    6  C   UNL     1      41.145 -15.428   5.986  1.00  0.00     0.242 C 
HETATM    7  C   UNL     1      39.977 -14.844   5.189  1.00  0.00     0.029 C 
HETATM    8  C   UNL     1      40.248 -14.878   3.671  1.00  0.00     0.123 C 
HETATM    9  C   UNL     1      40.776 -12.512   5.832  1.00  0.00     0.035 C 
HETATM   10  C   UNL     1      39.583 -13.457   5.703  1.00  0.00     0.010 C 
ENDROOT
BRANCH   4  11
HETATM   11  C   UNL     1      43.643 -15.119   6.043  1.00  0.00     0.302 C 
BRANCH  11  12
HETATM   12  C   UNL     1      43.655 -16.289   5.145  1.00  0.00     0.107 A 
HETATM   13  O   UNL     1      43.526 -16.008   3.824  1.00  0.00    -0.216 OA
HETATM   14  N   UNL     1      43.684 -17.154   3.091  1.00  0.00    -0.128 NA
HETATM   15  C   UNL     1      43.838 -18.161   3.968  1.00  0.00     0.097 A 
HETATM   16  C   UNL     1      43.819 -17.643   5.298  1.00  0.00     0.071 A 
BRANCH  15  17
HETATM   17  C   UNL     1      44.039 -19.543   3.536  1.00  0.00    -0.005 A 
HETATM   18  C   UNL     1      44.638 -20.477   4.397  1.00  0.00     0.014 A 
HETATM   19  C   UNL     1      44.807 -21.805   4.003  1.00  0.00     0.001 A 
HETATM   20  C   UNL     1      44.387 -22.216   2.740  1.00  0.00     0.000 A 
HETATM   21  C   UNL     1      43.801 -21.299   1.870  1.00  0.00     0.001 A 
HETATM   22  C   UNL     1      43.626 -19.970   2.265  1.00  0.00     0.014 A 
ENDBRANCH  15  17
ENDBRANCH  11  12
ENDBRANCH   4  11
BRANCH   1  23
HETATM   23  C   UNL     1      40.252 -12.749   2.423  1.00  0.00     0.176 C 
BRANCH  23  24
HETATM   24  C   UNL     1      39.312 -13.264   1.376  1.00  0.00     0.050 A 
HETATM   25  C   UNL     1      39.525 -13.967   0.202  1.00  0.00     0.030 A 
HETATM   26  C   UNL     1      40.758 -14.468  -0.434  1.00  0.00     0.070 C 
HETATM   27  N   UNL     1      38.269 -14.141  -0.365  1.00  0.00    -0.354 N 
HETATM   28  H   UNL     1      38.088 -14.615  -1.249  1.00  0.00     0.166 HD
HETATM   29  C   UNL     1      37.316 -13.581   0.382  1.00  0.00     0.180 A 
HETATM   30  N   UNL     1      37.935 -13.061   1.441  1.00  0.00    -0.353 N 
HETATM   31  H   UNL     1      37.480 -12.556   2.199  1.00  0.00     0.166 HD
ENDBRANCH  23  24
ENDBRANCH   1  23
TORSDOF 5
ENDMDL
MODEL 6
REMARK VINA RESULT:      -8.3      3.602      8.571
REMARK  5 active torsions:
REMARK  status: ('A' for Active; 'I' for Inactive)
REMARK    1  A    between atoms: C_8  and  C_9 
REMARK    2  A    between atoms: C_9  and  N_10 
REMARK    3  A    between atoms: N_13  and  C_15 
REMARK    4  A    between atoms: C_15  and  C_16 
REMARK    5  A    between atoms: C_19  and  C_20 
ROOT
HETATM    1  N   UNL     1      43.110 -17.437   4.295  1.00  0.00    -0.405 N 
HETATM    2  C   UNL     1      43.400 -16.159   3.632  1.00  0.00     0.150 C 
HETATM    3  C   UNL     1      43.554 -16.092   2.083  1.00  0.00     0.206 C 
HETATM    4  N   UNL     1      42.213 -16.028   1.353  1.00  0.00    -0.059 N 
HETATM    5  H   UNL     1      42.475 -15.928   0.362  1.00  0.00     0.280 HD
HETATM    6  C   UNL     1      41.402 -17.296   1.428  1.00  0.00     0.242 C 
HETATM    7  C   UNL     1      42.170 -18.440   2.093  1.00  0.00     0.029 C 
HETATM    8  C   UNL     1      42.151 -18.322   3.631  1.00  0.00     0.123 C 
HETATM    9  C   UNL     1      44.345 -17.259   1.485  1.00  0.00     0.035 C 
HETATM   10  C   UNL     1      43.580 -18.582   1.515  1.00  0.00     0.010 C 
ENDROOT
BRANCH   4  11
HETATM   11  C   UNL     1      41.358 -14.786   1.612  1.00  0.00     0.302 C 
BRANCH  11  12
HETATM   12  C   UNL     1      41.661 -13.659   0.710  1.00  0.00     0.107 A 
HETATM   13  O   UNL     1      42.389 -12.655   1.259  1.00  0.00    -0.216 OA
HETATM   14  N   UNL     1      42.714 -11.740   0.294  1.00  0.00    -0.128 NA
HETATM   15  C   UNL     1      42.120 -12.143  -0.843  1.00  0.00     0.097 A 
HETATM   16  C   UNL     1      41.429 -13.369  -0.612  1.00  0.00     0.071 A 
BRANCH  15  17
HETATM   17  C   UNL     1      42.256 -11.399  -2.095  1.00  0.00    -0.005 A 
HETATM   18  C   UNL     1      42.434 -10.006  -2.077  1.00  0.00     0.014 A 
HETATM   19  C   UNL     1      42.593  -9.292  -3.266  1.00  0.00     0.001 A 
HETATM   20  C   UNL     1      42.569  -9.960  -4.489  1.00  0.00     0.000 A 
HETATM   21  C   UNL     1      42.382 -11.340  -4.523  1.00  0.00     0.001 A 
HETATM   22  C   UNL     1      42.227 -12.057  -3.333  1.00  0.00     0.014 A 
ENDBRANCH  15  17
ENDBRANCH  11  12
ENDBRANCH   4  11
BRANCH   1  23
HETATM   23  C   UNL     1      44.300 -18.134   4.829  1.00  0.00     0.176 C 
BRANCH  23  24
HETATM   24  C   UNL     1      43.991 -19.006   6.008  1.00  0.00     0.050 A 
HETATM   25  C   UNL     1      43.644 -18.710   7.316  1.00  0.00     0.030 A 
HETATM   26  C   UNL     1      43.446 -17.427   8.015  1.00  0.00     0.070 C 
HETATM   27  N   UNL     1      43.508 -19.937   7.954  1.00  0.00    -0.354 N 
HETATM   28  H   UNL     1      43.267 -20.060   8.938  1.00  0.00     0.166 HD
HETATM   29  C   UNL     1      43.760 -20.950   7.123  1.00  0.00     0.180 A 
HETATM   30  N   UNL     1      44.040 -20.397   5.944  1.00  0.00    -0.353 N 
HETATM   31  H   UNL     1      44.283 -20.909   5.098  1.00  0.00     0.166 HD
ENDBRANCH  23  24
ENDBRANCH   1  23
TORSDOF 5
ENDMDL
MODEL 7
REMARK VINA RESULT:      -7.9      4.540      8.324
REMARK  5 active torsions:
REMARK  status: ('A' for Active; 'I' for Inactive)
REMARK    1  A    between atoms: C_8  and  C_9 
REMARK    2  A    between atoms: C_9  and  N_10 
REMARK    3  A    between atoms: N_13  and  C_15 
REMARK    4  A    between atoms: C_15  and  C_16 
REMARK    5  A    between atoms: C_19  and  C_20 
ROOT
HETATM    1  N   UNL     1      40.483 -13.675   3.203  1.00  0.00    -0.405 N 
HETATM    2  C   UNL     1      39.854 -13.126   4.412  1.00  0.00     0.150 C 
HETATM    3  C   UNL     1      40.279 -13.636   5.821  1.00  0.00     0.206 C 
HETATM    4  N   UNL     1      41.557 -12.974   6.334  1.00  0.00    -0.059 N 
HETATM    5  H   UNL     1      41.673 -13.360   7.281  1.00  0.00     0.280 HD
HETATM    6  C   UNL     1      42.805 -13.367   5.585  1.00  0.00     0.242 C 
HETATM    7  C   UNL     1      42.545 -14.475   4.562  1.00  0.00     0.029 C 
HETATM    8  C   UNL     1      41.926 -13.919   3.264  1.00  0.00     0.123 C 
HETATM    9  C   UNL     1      40.485 -15.151   5.900  1.00  0.00     0.035 C 
HETATM   10  C   UNL     1      41.741 -15.626   5.171  1.00  0.00     0.010 C 
ENDROOT
BRANCH   4  11
HETATM   11  C   UNL     1      41.489 -11.465   6.579  1.00  0.00     0.302 C 
BRANCH  11  12
HETATM   12  C   UNL     1      42.016 -11.055   7.894  1.00  0.00     0.107 A 
HETATM   13  O   UNL     1      43.354 -11.206   8.056  1.00  0.00    -0.216 OA
HETATM   14  N   UNL     1      43.738 -10.672   9.258  1.00  0.00    -0.128 NA
HETATM   15  C   UNL     1      42.618 -10.254   9.874  1.00  0.00     0.097 A 
HETATM   16  C   UNL     1      41.492 -10.489   9.030  1.00  0.00     0.071 A 
BRANCH  15  17
HETATM   17  C   UNL     1      42.649  -9.620  11.191  1.00  0.00    -0.005 A 
HETATM   18  C   UNL     1      41.908  -8.450  11.433  1.00  0.00     0.014 A 
HETATM   19  C   UNL     1      41.909  -7.854  12.696  1.00  0.00     0.001 A 
HETATM   20  C   UNL     1      42.655  -8.415  13.730  1.00  0.00     0.000 A 
HETATM   21  C   UNL     1      43.402  -9.568  13.503  1.00  0.00     0.001 A 
HETATM   22  C   UNL     1      43.399 -10.168  12.241  1.00  0.00     0.014 A 
ENDBRANCH  15  17
ENDBRANCH  11  12
ENDBRANCH   4  11
BRANCH   1  23
HETATM   23  C   UNL     1      39.718 -14.760   2.552  1.00  0.00     0.176 C 
BRANCH  23  24
HETATM   24  C   UNL     1      40.322 -15.212   1.257  1.00  0.00     0.050 A 
HETATM   25  C   UNL     1      41.029 -16.351   0.911  1.00  0.00     0.030 A 
HETATM   26  C   UNL     1      41.436 -17.533   1.694  1.00  0.00     0.070 C 
HETATM   27  N   UNL     1      41.353 -16.198  -0.431  1.00  0.00    -0.354 N 
HETATM   28  H   UNL     1      41.888 -16.868  -0.984  1.00  0.00     0.166 HD
HETATM   29  C   UNL     1      40.898 -15.040  -0.913  1.00  0.00     0.180 A 
HETATM   30  N   UNL     1      40.264 -14.445   0.096  1.00  0.00    -0.353 N 
HETATM   31  H   UNL     1      39.808 -13.535   0.049  1.00  0.00     0.166 HD
ENDBRANCH  23  24
ENDBRANCH   1  23
TORSDOF 5
ENDMDL
MODEL 8
REMARK VINA RESULT:      -7.8      3.496      8.671
REMARK  5 active torsions:
REMARK  status: ('A' for Active; 'I' for Inactive)
REMARK    1  A    between atoms: C_8  and  C_9 
REMARK    2  A    between atoms: C_9  and  N_10 
REMARK    3  A    between atoms: N_13  and  C_15 
REMARK    4  A    between atoms: C_15  and  C_16 
REMARK    5  A    between atoms: C_19  and  C_20 
ROOT
HETATM    1  N   UNL     1      43.059 -17.218   4.308  1.00  0.00    -0.405 N 
HETATM    2  C   UNL     1      43.277 -16.026   3.478  1.00  0.00     0.150 C 
HETATM    3  C   UNL     1      43.448 -16.160   1.936  1.00  0.00     0.206 C 
HETATM    4  N   UNL     1      42.116 -16.281   1.197  1.00  0.00    -0.059 N 
HETATM    5  H   UNL     1      42.385 -16.300   0.203  1.00  0.00     0.280 HD
HETATM    6  C   UNL     1      41.385 -17.577   1.439  1.00  0.00     0.242 C 
HETATM    7  C   UNL     1      42.215 -18.568   2.258  1.00  0.00     0.029 C 
HETATM    8  C   UNL     1      42.167 -18.244   3.765  1.00  0.00     0.123 C 
HETATM    9  C   UNL     1      44.319 -17.344   1.506  1.00  0.00     0.035 C 
HETATM   10  C   UNL     1      43.638 -18.696   1.712  1.00  0.00     0.010 C 
ENDROOT
BRANCH   4  11
HETATM   11  C   UNL     1      41.181 -15.073   1.281  1.00  0.00     0.302 C 
BRANCH  11  12
HETATM   12  C   UNL     1      40.536 -14.733  -0.001  1.00  0.00     0.107 A 
HETATM   13  O   UNL     1      41.235 -15.076  -1.112  1.00  0.00    -0.216 OA
HETATM   14  N   UNL     1      40.479 -14.831  -2.228  1.00  0.00    -0.128 NA
HETATM   15  C   UNL     1      39.335 -14.264  -1.807  1.00  0.00     0.097 A 
HETATM   16  C   UNL     1      39.339 -14.179  -0.383  1.00  0.00     0.071 A 
BRANCH  15  17
HETATM   17  C   UNL     1      38.278 -13.868  -2.737  1.00  0.00    -0.005 A 
HETATM   18  C   UNL     1      38.040 -12.510  -3.005  1.00  0.00     0.014 A 
HETATM   19  C   UNL     1      37.052 -12.125  -3.914  1.00  0.00     0.001 A 
HETATM   20  C   UNL     1      36.285 -13.091  -4.560  1.00  0.00     0.000 A 
HETATM   21  C   UNL     1      36.502 -14.441  -4.296  1.00  0.00     0.001 A 
HETATM   22  C   UNL     1      37.493 -14.829  -3.391  1.00  0.00     0.014 A 
ENDBRANCH  15  17
ENDBRANCH  11  12
ENDBRANCH   4  11
BRANCH   1  23
HETATM   23  C   UNL     1      44.283 -17.758   4.938  1.00  0.00     0.176 C 
BRANCH  23  24
HETATM   24  C   UNL     1      43.997 -18.716   6.055  1.00  0.00     0.050 A 
HETATM   25  C   UNL     1      43.616 -18.518   7.372  1.00  0.00     0.030 A 
HETATM   26  C   UNL     1      43.349 -17.291   8.145  1.00  0.00     0.070 C 
HETATM   27  N   UNL     1      43.526 -19.787   7.931  1.00  0.00    -0.354 N 
HETATM   28  H   UNL     1      43.276 -19.983   8.900  1.00  0.00     0.166 HD
HETATM   29  C   UNL     1      43.837 -20.734   7.043  1.00  0.00     0.180 A 
HETATM   30  N   UNL     1      44.110 -20.096   5.905  1.00  0.00    -0.353 N 
HETATM   31  H   UNL     1      44.389 -20.543   5.034  1.00  0.00     0.166 HD
ENDBRANCH  23  24
ENDBRANCH   1  23
TORSDOF 5
ENDMDL
MODEL 9
REMARK VINA RESULT:      -7.8      2.986      5.345
REMARK  5 active torsions:
REMARK  status: ('A' for Active; 'I' for Inactive)
REMARK    1  A    between atoms: C_8  and  C_9 
REMARK    2  A    between atoms: C_9  and  N_10 
REMARK    3  A    between atoms: N_13  and  C_15 
REMARK    4  A    between atoms: C_15  and  C_16 
REMARK    5  A    between atoms: C_19  and  C_20 
ROOT
HETATM    1  N   UNL     1      40.800 -12.573   5.955  1.00  0.00    -0.405 N 
HETATM    2  C   UNL     1      41.045 -13.973   5.584  1.00  0.00     0.150 C 
HETATM    3  C   UNL     1      40.758 -14.466   4.134  1.00  0.00     0.206 C 
HETATM    4  N   UNL     1      41.889 -14.138   3.160  1.00  0.00    -0.059 N 
HETATM    5  H   UNL     1      41.587 -14.571   2.275  1.00  0.00     0.280 HD
HETATM    6  C   UNL     1      42.042 -12.670   2.855  1.00  0.00     0.242 C 
HETATM    7  C   UNL     1      40.923 -11.828   3.472  1.00  0.00     0.029 C 
HETATM    8  C   UNL     1      41.172 -11.556   4.969  1.00  0.00     0.123 C 
HETATM    9  C   UNL     1      39.462 -13.914   3.534  1.00  0.00     0.035 C 
HETATM   10  C   UNL     1      39.545 -12.429   3.187  1.00  0.00     0.010 C 
ENDROOT
BRANCH   4  11
HETATM   11  C   UNL     1      43.237 -14.809   3.433  1.00  0.00     0.302 C 
BRANCH  11  12
HETATM   12  C   UNL     1      43.250 -16.254   3.136  1.00  0.00     0.107 A 
HETATM   13  O   UNL     1      42.640 -16.614   1.979  1.00  0.00    -0.216 OA
HETATM   14  N   UNL     1      42.833 -17.951   1.752  1.00  0.00    -0.128 NA
HETATM   15  C   UNL     1      43.503 -18.434   2.813  1.00  0.00     0.097 A 
HETATM   16  C   UNL     1      43.783 -17.373   3.725  1.00  0.00     0.071 A 
BRANCH  15  17
HETATM   17  C   UNL     1      43.890 -19.841   2.911  1.00  0.00    -0.005 A 
HETATM   18  C   UNL     1      43.714 -20.703   1.816  1.00  0.00     0.014 A 
HETATM   19  C   UNL     1      44.107 -22.041   1.891  1.00  0.00     0.001 A 
HETATM   20  C   UNL     1      44.674 -22.536   3.064  1.00  0.00     0.000 A 
HETATM   21  C   UNL     1      44.845 -21.695   4.161  1.00  0.00     0.001 A 
HETATM   22  C   UNL     1      44.456 -20.355   4.086  1.00  0.00     0.014 A 
ENDBRANCH  15  17
ENDBRANCH  11  12
ENDBRANCH   4  11
BRANCH   1  23
HETATM   23  C   UNL     1      39.495 -12.330   6.606  1.00  0.00     0.176 C 
BRANCH  23  24
HETATM   24  C   UNL     1      39.576 -11.355   7.742  1.00  0.00     0.050 A 
HETATM   25  C   UNL     1      39.468  -9.975   7.790  1.00  0.00     0.030 A 
HETATM   26  C   UNL     1      39.226  -8.971   6.738  1.00  0.00     0.070 C 
HETATM   27  N   UNL     1      39.656  -9.631   9.122  1.00  0.00    -0.354 N 
HETATM   28  H   UNL     1      39.647  -8.678   9.486  1.00  0.00     0.166 HD
HETATM   29  C   UNL     1      39.882 -10.708   9.877  1.00  0.00     0.180 A 
HETATM   30  N   UNL     1      39.822 -11.753   9.054  1.00  0.00    -0.353 N 
HETATM   31  H   UNL     1      39.959 -12.725   9.327  1.00  0.00     0.166 HD
ENDBRANCH  23  24
ENDBRANCH   1  23
TORSDOF 5
ENDMDL
MODEL 10
REMARK VINA RESULT:      -7.6      4.021      7.550
REMARK  5 active torsions:
REMARK  status: ('A' for Active; 'I' for Inactive)
REMARK    1  A    between atoms: C_8  and  C_9 
REMARK    2  A    between atoms: C_9  and  N_10 
REMARK    3  A    between atoms: N_13  and  C_15 
REMARK    4  A    between atoms: C_15  and  C_16 
REMARK    5  A    between atoms: C_19  and  C_20 
ROOT
HETATM    1  N   UNL     1      42.412 -15.358   3.555  1.00  0.00    -0.405 N 
HETATM    2  C   UNL     1      42.248 -14.279   4.539  1.00  0.00     0.150 C 
HETATM    3  C   UNL     1      42.037 -14.614   6.046  1.00  0.00     0.206 C 
HETATM    4  N   UNL     1      43.344 -14.917   6.777  1.00  0.00    -0.059 N 
HETATM    5  H   UNL     1      43.054 -15.056   7.756  1.00  0.00     0.280 HD
HETATM    6  C   UNL     1      44.002 -16.209   6.366  1.00  0.00     0.242 C 
HETATM    7  C   UNL     1      43.133 -17.026   5.408  1.00  0.00     0.029 C 
HETATM    8  C   UNL     1      43.231 -16.501   3.961  1.00  0.00     0.123 C 
HETATM    9  C   UNL     1      41.089 -15.790   6.296  1.00  0.00     0.035 C 
HETATM   10  C   UNL     1      41.693 -17.141   5.914  1.00  0.00     0.010 C 
ENDROOT
BRANCH   4  11
HETATM   11  C   UNL     1      44.350 -13.768   6.873  1.00  0.00     0.302 C 
BRANCH  11  12
HETATM   12  C   UNL     1      44.242 -12.988   8.120  1.00  0.00     0.107 A 
HETATM   13  O   UNL     1      45.242 -13.182   9.015  1.00  0.00    -0.216 OA
HETATM   14  N   UNL     1      45.099 -12.312  10.063  1.00  0.00    -0.128 NA
HETATM   15  C   UNL     1      43.962 -11.627   9.850  1.00  0.00     0.097 A 
HETATM   16  C   UNL     1      43.381 -12.039   8.614  1.00  0.00     0.071 A 
BRANCH  15  17
HETATM   17  C   UNL     1      43.491 -10.597  10.775  1.00  0.00    -0.005 A 
HETATM   18  C   UNL     1      44.055 -10.483  12.057  1.00  0.00     0.014 A 
HETATM   19  C   UNL     1      43.632  -9.484  12.936  1.00  0.00     0.001 A 
HETATM   20  C   UNL     1      42.636  -8.590  12.547  1.00  0.00     0.000 A 
HETATM   21  C   UNL     1      42.061  -8.697  11.284  1.00  0.00     0.001 A 
HETATM   22  C   UNL     1      42.486  -9.693  10.401  1.00  0.00     0.014 A 
ENDBRANCH  15  17
ENDBRANCH  11  12
ENDBRANCH   4  11
BRANCH   1  23
HETATM   23  C   UNL     1      41.172 -15.730   2.841  1.00  0.00     0.176 C 
BRANCH  23  24
HETATM   24  C   UNL     1      41.324 -15.717   1.350  1.00  0.00     0.050 A 
HETATM   25  C   UNL     1      42.139 -16.438   0.494  1.00  0.00     0.030 A 
HETATM   26  C   UNL     1      43.147 -17.485   0.745  1.00  0.00     0.070 C 
HETATM   27  N   UNL     1      41.851 -15.970  -0.782  1.00  0.00    -0.354 N 
HETATM   28  H   UNL     1      42.298 -16.296  -1.639  1.00  0.00     0.166 HD
HETATM   29  C   UNL     1      40.926 -15.009  -0.751  1.00  0.00     0.180 A 
HETATM   30  N   UNL     1      40.593 -14.859   0.531  1.00  0.00    -0.353 N 
HETATM   31  H   UNL     1      39.911 -14.192   0.887  1.00  0.00     0.166 HD
ENDBRANCH  23  24
ENDBRANCH   1  23
TORSDOF 5
ENDMDL
