MODEL 1
REMARK VINA RESULT:      -8.2      0.000      0.000
REMARK  2 active torsions:
REMARK  status: ('A' for Active; 'I' for Inactive)
REMARK    1  A    between atoms: C_8  and  N_9 
REMARK    2  A    between atoms: N_9  and  C_10 
ROOT
HETATM    1  N   UNL     1      41.917 -16.867   3.970  1.00  0.00    -0.340 N 
HETATM    2  H   UNL     1      40.982 -16.932   4.339  1.00  0.00     0.167 HD
ENDROOT
BRANCH   1   3
HETATM    3  C   UNL     1      42.224 -15.601   3.444  1.00  0.00     0.143 A 
HETATM    4  C   UNL     1      41.949 -15.252   2.094  1.00  0.00     0.053 A 
HETATM    5  C   UNL     1      41.447 -15.988   0.935  1.00  0.00    -0.032 A 
HETATM    6  C   UNL     1      42.218 -13.934   1.751  1.00  0.00     0.114 A 
HETATM    7  C   UNL     1      41.124 -17.450   0.918  1.00  0.00     0.050 C 
HETATM    8  C   UNL     1      41.312 -15.161  -0.175  1.00  0.00    -0.012 A 
HETATM    9  S   UNL     1      41.828 -13.568   0.141  1.00  0.00    -0.074 SA
HETATM   10  C   UNL     1      40.812 -15.508  -1.541  1.00  0.00     0.057 C 
HETATM   11  N   UNL     1      42.726 -12.978   2.545  1.00  0.00    -0.234 NA
HETATM   12  C   UNL     1      42.972 -13.419   3.774  1.00  0.00     0.236 A 
HETATM   13  N   UNL     1      42.752 -14.648   4.252  1.00  0.00    -0.223 NA
ENDBRANCH   1   3
BRANCH   1  14
HETATM   14  C   UNL     1      42.732 -17.969   4.286  1.00  0.00     0.036 A 
HETATM   15  C   UNL     1      43.278 -18.728   3.238  1.00  0.00     0.069 A 
HETATM   16  C   UNL     1      44.057 -19.860   3.494  1.00  0.00     0.104 A 
HETATM   17  C   UNL     1      44.339 -20.229   4.809  1.00  0.00     0.102 A 
HETATM   18  O   UNL     1      44.587 -20.499   2.406  1.00  0.00    -0.348 OA
HETATM   19  O   UNL     1      45.176 -21.259   5.135  1.00  0.00    -0.348 OA
HETATM   20  C   UNL     1      43.838 -19.467   5.860  1.00  0.00     0.042 A 
HETATM   21  C   UNL     1      44.674 -22.520   4.692  1.00  0.00     0.178 C 
HETATM   22  C   UNL     1      44.983 -22.771   3.224  1.00  0.00     0.053 C 
HETATM   23  C   UNL     1      44.161 -21.860   2.326  1.00  0.00     0.178 C 
HETATM   24  C   UNL     1      43.027 -18.357   5.598  1.00  0.00     0.032 A 
ENDBRANCH   1  14
TORSDOF 2
ENDMDL
MODEL 2
REMARK VINA RESULT:      -8.1      3.522      6.880
REMARK  2 active torsions:
REMARK  status: ('A' for Active; 'I' for Inactive)
REMARK    1  A    between atoms: C_8  and  N_9 
REMARK    2  A    between atoms: N_9  and  C_10 
ROOT
HETATM    1  N   UNL     1      43.384 -16.374   3.442  1.00  0.00    -0.340 N 
HETATM    2  H   UNL     1      44.160 -15.803   3.146  1.00  0.00     0.167 HD
ENDROOT
BRANCH   1   3
HETATM    3  C   UNL     1      43.729 -17.320   4.421  1.00  0.00     0.143 A 
HETATM    4  C   UNL     1      44.029 -18.672   4.098  1.00  0.00     0.053 A 
HETATM    5  C   UNL     1      43.982 -19.459   2.867  1.00  0.00    -0.032 A 
HETATM    6  C   UNL     1      44.449 -19.461   5.161  1.00  0.00     0.114 A 
HETATM    7  C   UNL     1      43.505 -18.954   1.541  1.00  0.00     0.050 C 
HETATM    8  C   UNL     1      44.429 -20.759   3.075  1.00  0.00    -0.012 A 
HETATM    9  S   UNL     1      44.835 -21.049   4.705  1.00  0.00    -0.074 SA
HETATM   10  C   UNL     1      44.562 -21.870   2.083  1.00  0.00     0.057 C 
HETATM   11  N   UNL     1      44.575 -19.090   6.445  1.00  0.00    -0.234 NA
HETATM   12  C   UNL     1      44.241 -17.818   6.639  1.00  0.00     0.236 A 
HETATM   13  N   UNL     1      43.837 -16.938   5.717  1.00  0.00    -0.223 NA
ENDBRANCH   1   3
BRANCH   1  14
HETATM   14  C   UNL     1      42.135 -15.924   2.978  1.00  0.00     0.036 A 
HETATM   15  C   UNL     1      41.931 -15.803   1.594  1.00  0.00     0.069 A 
HETATM   16  C   UNL     1      40.725 -15.318   1.080  1.00  0.00     0.104 A 
HETATM   17  C   UNL     1      39.683 -14.983   1.943  1.00  0.00     0.102 A 
HETATM   18  O   UNL     1      40.607 -15.290  -0.284  1.00  0.00    -0.348 OA
HETATM   19  O   UNL     1      38.445 -14.601   1.511  1.00  0.00    -0.348 OA
HETATM   20  C   UNL     1      39.854 -15.132   3.316  1.00  0.00     0.042 A 
HETATM   21  C   UNL     1      38.485 -13.374   0.783  1.00  0.00     0.178 C 
HETATM   22  C   UNL     1      38.894 -13.584  -0.666  1.00  0.00     0.053 C 
HETATM   23  C   UNL     1      40.361 -13.970  -0.772  1.00  0.00     0.178 C 
HETATM   24  C   UNL     1      41.076 -15.582   3.828  1.00  0.00     0.032 A 
ENDBRANCH   1  14
TORSDOF 2
ENDMDL
MODEL 3
REMARK VINA RESULT:      -7.8      3.727      6.962
REMARK  2 active torsions:
REMARK  status: ('A' for Active; 'I' for Inactive)
REMARK    1  A    between atoms: C_8  and  N_9 
REMARK    2  A    between atoms: N_9  and  C_10 
ROOT
HETATM    1  N   UNL     1      43.786 -17.269   5.041  1.00  0.00    -0.340 N 
HETATM    2  H   UNL     1      44.694 -16.850   4.920  1.00  0.00     0.167 HD
ENDROOT
BRANCH   1   3
HETATM    3  C   UNL     1      43.833 -18.548   5.619  1.00  0.00     0.143 A 
HETATM    4  C   UNL     1      44.085 -19.719   4.854  1.00  0.00     0.053 A 
HETATM    5  C   UNL     1      44.242 -19.987   3.425  1.00  0.00    -0.032 A 
HETATM    6  C   UNL     1      44.200 -20.896   5.582  1.00  0.00     0.114 A 
HETATM    7  C   UNL     1      44.105 -18.966   2.339  1.00  0.00     0.050 C 
HETATM    8  C   UNL     1      44.526 -21.326   3.185  1.00  0.00    -0.012 A 
HETATM    9  S   UNL     1      44.545 -22.249   4.618  1.00  0.00    -0.074 SA
HETATM   10  C   UNL     1      44.780 -22.006   1.877  1.00  0.00     0.057 C 
HETATM   11  N   UNL     1      44.075 -21.042   6.910  1.00  0.00    -0.234 NA
HETATM   12  C   UNL     1      43.811 -19.892   7.523  1.00  0.00     0.236 A 
HETATM   13  N   UNL     1      43.688 -18.685   6.961  1.00  0.00    -0.223 NA
ENDBRANCH   1   3
BRANCH   1  14
HETATM   14  C   UNL     1      42.715 -16.383   4.821  1.00  0.00     0.036 A 
HETATM   15  C   UNL     1      41.866 -16.609   3.726  1.00  0.00     0.069 A 
HETATM   16  C   UNL     1      40.814 -15.736   3.434  1.00  0.00     0.104 A 
HETATM   17  C   UNL     1      40.568 -14.639   4.259  1.00  0.00     0.102 A 
HETATM   18  O   UNL     1      40.012 -16.073   2.378  1.00  0.00    -0.348 OA
HETATM   19  O   UNL     1      39.500 -13.803   4.097  1.00  0.00    -0.348 OA
HETATM   20  C   UNL     1      41.377 -14.421   5.371  1.00  0.00     0.042 A 
HETATM   21  C   UNL     1      39.557 -13.094   2.860  1.00  0.00     0.178 C 
HETATM   22  C   UNL     1      39.041 -13.931   1.700  1.00  0.00     0.053 C 
HETATM   23  C   UNL     1      40.002 -15.063   1.369  1.00  0.00     0.178 C 
HETATM   24  C   UNL     1      42.452 -15.277   5.637  1.00  0.00     0.032 A 
ENDBRANCH   1  14
TORSDOF 2
ENDMDL
MODEL 4
REMARK VINA RESULT:      -7.8      3.694      6.905
REMARK  2 active torsions:
REMARK  status: ('A' for Active; 'I' for Inactive)
REMARK    1  A    between atoms: C_8  and  N_9 
REMARK    2  A    between atoms: N_9  and  C_10 
ROOT
HETATM    1  N   UNL     1      40.709 -16.484   3.702  1.00  0.00    -0.340 N 
HETATM    2  H   UNL     1      39.896 -17.027   3.458  1.00  0.00     0.167 HD
ENDROOT
BRANCH   1   3
HETATM    3  C   UNL     1      41.460 -17.042   4.749  1.00  0.00     0.143 A 
HETATM    4  C   UNL     1      42.482 -18.004   4.522  1.00  0.00     0.053 A 
HETATM    5  C   UNL     1      42.958 -18.724   3.342  1.00  0.00    -0.032 A 
HETATM    6  C   UNL     1      43.203 -18.386   5.646  1.00  0.00     0.114 A 
HETATM    7  C   UNL     1      42.363 -18.617   1.972  1.00  0.00     0.050 C 
HETATM    8  C   UNL     1      44.040 -19.543   3.646  1.00  0.00    -0.012 A 
HETATM    9  S   UNL     1      44.436 -19.501   5.303  1.00  0.00    -0.074 SA
HETATM   10  C   UNL     1      44.830 -20.422   2.730  1.00  0.00     0.057 C 
HETATM   11  N   UNL     1      43.021 -17.965   6.907  1.00  0.00    -0.234 NA
HETATM   12  C   UNL     1      42.024 -17.093   7.010  1.00  0.00     0.236 A 
HETATM   13  N   UNL     1      41.256 -16.621   6.022  1.00  0.00    -0.223 NA
ENDBRANCH   1   3
BRANCH   1  14
HETATM   14  C   UNL     1      41.001 -15.454   2.790  1.00  0.00     0.036 A 
HETATM   15  C   UNL     1      40.203 -15.321   1.643  1.00  0.00     0.069 A 
HETATM   16  C   UNL     1      40.476 -14.344   0.680  1.00  0.00     0.104 A 
HETATM   17  C   UNL     1      41.532 -13.454   0.870  1.00  0.00     0.102 A 
HETATM   18  O   UNL     1      39.607 -14.262  -0.374  1.00  0.00    -0.348 OA
HETATM   19  O   UNL     1      41.796 -12.412   0.027  1.00  0.00    -0.348 OA
HETATM   20  C   UNL     1      42.311 -13.548   2.020  1.00  0.00     0.042 A 
HETATM   21  C   UNL     1      42.161 -12.858  -1.279  1.00  0.00     0.178 C 
HETATM   22  C   UNL     1      40.944 -13.198  -2.126  1.00  0.00     0.053 C 
HETATM   23  C   UNL     1      40.264 -14.463  -1.626  1.00  0.00     0.178 C 
HETATM   24  C   UNL     1      42.057 -14.552   2.961  1.00  0.00     0.032 A 
ENDBRANCH   1  14
TORSDOF 2
ENDMDL
MODEL 5
REMARK VINA RESULT:      -7.7      2.216      2.336
REMARK  2 active torsions:
REMARK  status: ('A' for Active; 'I' for Inactive)
REMARK    1  A    between atoms: C_8  and  N_9 
REMARK    2  A    between atoms: N_9  and  C_10 
ROOT
HETATM    1  N   UNL     1      40.700 -16.438   4.852  1.00  0.00    -0.340 N 
HETATM    2  H   UNL     1      39.840 -16.870   5.151  1.00  0.00     0.167 HD
ENDROOT
BRANCH   1   3
HETATM    3  C   UNL     1      40.635 -15.036   4.812  1.00  0.00     0.143 A 
HETATM    4  C   UNL     1      40.030 -14.334   3.734  1.00  0.00     0.053 A 
HETATM    5  C   UNL     1      39.462 -14.736   2.448  1.00  0.00    -0.032 A 
HETATM    6  C   UNL     1      39.955 -12.955   3.886  1.00  0.00     0.114 A 
HETATM    7  C   UNL     1      39.442 -16.136   1.918  1.00  0.00     0.050 C 
HETATM    8  C   UNL     1      38.944 -13.647   1.756  1.00  0.00    -0.012 A 
HETATM    9  S   UNL     1      39.184 -12.179   2.589  1.00  0.00    -0.074 SA
HETATM   10  C   UNL     1      38.260 -13.627   0.427  1.00  0.00     0.057 C 
HETATM   11  N   UNL     1      40.410 -12.228   4.918  1.00  0.00    -0.234 NA
HETATM   12  C   UNL     1      40.982 -12.980   5.854  1.00  0.00     0.236 A 
HETATM   13  N   UNL     1      41.113 -14.311   5.854  1.00  0.00    -0.223 NA
ENDBRANCH   1   3
BRANCH   1  14
HETATM   14  C   UNL     1      41.790 -17.324   4.782  1.00  0.00     0.036 A 
HETATM   15  C   UNL     1      42.186 -17.809   3.526  1.00  0.00     0.069 A 
HETATM   16  C   UNL     1      43.233 -18.727   3.402  1.00  0.00     0.104 A 
HETATM   17  C   UNL     1      43.931 -19.146   4.533  1.00  0.00     0.102 A 
HETATM   18  O   UNL     1      43.577 -19.097   2.130  1.00  0.00    -0.348 OA
HETATM   19  O   UNL     1      45.029 -19.959   4.480  1.00  0.00    -0.348 OA
HETATM   20  C   UNL     1      43.577 -18.646   5.783  1.00  0.00     0.042 A 
HETATM   21  C   UNL     1      44.714 -21.253   3.968  1.00  0.00     0.178 C 
HETATM   22  C   UNL     1      44.664 -21.267   2.447  1.00  0.00     0.053 C 
HETATM   23  C   UNL     1      43.453 -20.506   1.930  1.00  0.00     0.178 C 
HETATM   24  C   UNL     1      42.503 -17.757   5.906  1.00  0.00     0.032 A 
ENDBRANCH   1  14
TORSDOF 2
ENDMDL
MODEL 6
REMARK VINA RESULT:      -7.7      3.854      7.107
REMARK  2 active torsions:
REMARK  status: ('A' for Active; 'I' for Inactive)
REMARK    1  A    between atoms: C_8  and  N_9 
REMARK    2  A    between atoms: N_9  and  C_10 
ROOT
HETATM    1  N   UNL     1      43.250 -15.808   3.628  1.00  0.00    -0.340 N 
HETATM    2  H   UNL     1      44.012 -15.565   3.015  1.00  0.00     0.167 HD
ENDROOT
BRANCH   1   3
HETATM    3  C   UNL     1      43.588 -16.784   4.580  1.00  0.00     0.143 A 
HETATM    4  C   UNL     1      43.875 -18.129   4.219  1.00  0.00     0.053 A 
HETATM    5  C   UNL     1      43.818 -18.881   2.967  1.00  0.00    -0.032 A 
HETATM    6  C   UNL     1      44.289 -18.951   5.259  1.00  0.00     0.114 A 
HETATM    7  C   UNL     1      43.343 -18.334   1.656  1.00  0.00     0.050 C 
HETATM    8  C   UNL     1      44.253 -20.190   3.137  1.00  0.00    -0.012 A 
HETATM    9  S   UNL     1      44.659 -20.530   4.758  1.00  0.00    -0.074 SA
HETATM   10  C   UNL     1      44.374 -21.274   2.114  1.00  0.00     0.057 C 
HETATM   11  N   UNL     1      44.421 -18.617   6.552  1.00  0.00    -0.234 NA
HETATM   12  C   UNL     1      44.099 -17.348   6.782  1.00  0.00     0.236 A 
HETATM   13  N   UNL     1      43.702 -16.439   5.886  1.00  0.00    -0.223 NA
ENDBRANCH   1   3
BRANCH   1  14
HETATM   14  C   UNL     1      42.140 -14.951   3.525  1.00  0.00     0.036 A 
HETATM   15  C   UNL     1      41.017 -15.384   2.801  1.00  0.00     0.069 A 
HETATM   16  C   UNL     1      39.904 -14.556   2.627  1.00  0.00     0.104 A 
HETATM   17  C   UNL     1      39.879 -13.291   3.212  1.00  0.00     0.102 A 
HETATM   18  O   UNL     1      38.841 -15.092   1.953  1.00  0.00    -0.348 OA
HETATM   19  O   UNL     1      38.788 -12.468   3.172  1.00  0.00    -0.348 OA
HETATM   20  C   UNL     1      40.967 -12.859   3.964  1.00  0.00     0.042 A 
HETATM   21  C   UNL     1      38.468 -12.064   1.841  1.00  0.00     0.178 C 
HETATM   22  C   UNL     1      37.662 -13.122   1.103  1.00  0.00     0.053 C 
HETATM   23  C   UNL     1      38.515 -14.339   0.783  1.00  0.00     0.178 C 
HETATM   24  C   UNL     1      42.094 -13.677   4.102  1.00  0.00     0.032 A 
ENDBRANCH   1  14
TORSDOF 2
ENDMDL
MODEL 7
REMARK VINA RESULT:      -7.6      2.075      3.258
REMARK  2 active torsions:
REMARK  status: ('A' for Active; 'I' for Inactive)
REMARK    1  A    between atoms: C_8  and  N_9 
REMARK    2  A    between atoms: N_9  and  C_10 
ROOT
HETATM    1  N   UNL     1      40.611 -16.723   3.336  1.00  0.00    -0.340 N 
HETATM    2  H   UNL     1      39.812 -16.923   3.917  1.00  0.00     0.167 HD
ENDROOT
BRANCH   1   3
HETATM    3  C   UNL     1      40.496 -15.515   2.627  1.00  0.00     0.143 A 
HETATM    4  C   UNL     1      40.520 -14.250   3.275  1.00  0.00     0.053 A 
HETATM    5  C   UNL     1      40.546 -13.821   4.672  1.00  0.00    -0.032 A 
HETATM    6  C   UNL     1      40.497 -13.147   2.431  1.00  0.00     0.114 A 
HETATM    7  C   UNL     1      40.500 -14.740   5.854  1.00  0.00     0.050 C 
HETATM    8  C   UNL     1      40.607 -12.437   4.781  1.00  0.00    -0.012 A 
HETATM    9  S   UNL     1      40.572 -11.668   3.260  1.00  0.00    -0.074 SA
HETATM   10  C   UNL     1      40.674 -11.601   6.019  1.00  0.00     0.057 C 
HETATM   11  N   UNL     1      40.433 -13.153   1.091  1.00  0.00    -0.234 NA
HETATM   12  C   UNL     1      40.386 -14.384   0.593  1.00  0.00     0.236 A 
HETATM   13  N   UNL     1      40.415 -15.535   1.274  1.00  0.00    -0.223 NA
ENDBRANCH   1   3
BRANCH   1  14
HETATM   14  C   UNL     1      41.710 -17.570   3.564  1.00  0.00     0.036 A 
HETATM   15  C   UNL     1      42.168 -18.379   2.512  1.00  0.00     0.069 A 
HETATM   16  C   UNL     1      43.227 -19.273   2.695  1.00  0.00     0.104 A 
HETATM   17  C   UNL     1      43.875 -19.343   3.927  1.00  0.00     0.102 A 
HETATM   18  O   UNL     1      43.634 -19.977   1.594  1.00  0.00    -0.348 OA
HETATM   19  O   UNL     1      44.980 -20.115   4.151  1.00  0.00    -0.348 OA
HETATM   20  C   UNL     1      43.459 -18.521   4.971  1.00  0.00     0.042 A 
HETATM   21  C   UNL     1      44.700 -21.508   4.009  1.00  0.00     0.178 C 
HETATM   22  C   UNL     1      44.722 -21.948   2.554  1.00  0.00     0.053 C 
HETATM   23  C   UNL     1      43.531 -21.387   1.792  1.00  0.00     0.178 C 
HETATM   24  C   UNL     1      42.373 -17.656   4.793  1.00  0.00     0.032 A 
ENDBRANCH   1  14
TORSDOF 2
ENDMDL
MODEL 8
REMARK VINA RESULT:      -7.5      4.559      7.565
REMARK  2 active torsions:
REMARK  status: ('A' for Active; 'I' for Inactive)
REMARK    1  A    between atoms: C_8  and  N_9 
REMARK    2  A    between atoms: N_9  and  C_10 
ROOT
HETATM    1  N   UNL     1      42.850 -15.595   4.463  1.00  0.00    -0.340 N 
HETATM    2  H   UNL     1      43.222 -15.326   3.566  1.00  0.00     0.167 HD
ENDROOT
BRANCH   1   3
HETATM    3  C   UNL     1      43.550 -16.654   5.064  1.00  0.00     0.143 A 
HETATM    4  C   UNL     1      43.732 -17.907   4.418  1.00  0.00     0.053 A 
HETATM    5  C   UNL     1      43.244 -18.489   3.169  1.00  0.00    -0.032 A 
HETATM    6  C   UNL     1      44.530 -18.818   5.097  1.00  0.00     0.114 A 
HETATM    7  C   UNL     1      42.299 -17.819   2.220  1.00  0.00     0.050 C 
HETATM    8  C   UNL     1      43.758 -19.764   2.964  1.00  0.00    -0.012 A 
HETATM    9  S   UNL     1      44.746 -20.276   4.256  1.00  0.00    -0.074 SA
HETATM   10  C   UNL     1      43.532 -20.688   1.810  1.00  0.00     0.057 C 
HETATM   11  N   UNL     1      45.118 -18.648   6.291  1.00  0.00    -0.234 NA
HETATM   12  C   UNL     1      44.859 -17.456   6.817  1.00  0.00     0.236 A 
HETATM   13  N   UNL     1      44.126 -16.476   6.278  1.00  0.00    -0.223 NA
ENDBRANCH   1   3
BRANCH   1  14
HETATM   14  C   UNL     1      41.892 -14.700   4.974  1.00  0.00     0.036 A 
HETATM   15  C   UNL     1      42.298 -13.402   5.321  1.00  0.00     0.069 A 
HETATM   16  C   UNL     1      41.399 -12.487   5.877  1.00  0.00     0.104 A 
HETATM   17  C   UNL     1      40.064 -12.843   6.058  1.00  0.00     0.102 A 
HETATM   18  O   UNL     1      41.880 -11.231   6.130  1.00  0.00    -0.348 OA
HETATM   19  O   UNL     1      39.108 -11.972   6.499  1.00  0.00    -0.348 OA
HETATM   20  C   UNL     1      39.635 -14.114   5.686  1.00  0.00     0.042 A 
HETATM   21  C   UNL     1      39.362 -11.523   7.829  1.00  0.00     0.178 C 
HETATM   22  C   UNL     1      40.373 -10.387   7.864  1.00  0.00     0.053 C 
HETATM   23  C   UNL     1      41.767 -10.882   7.510  1.00  0.00     0.178 C 
HETATM   24  C   UNL     1      40.547 -15.039   5.165  1.00  0.00     0.032 A 
ENDBRANCH   1  14
TORSDOF 2
ENDMDL
MODEL 9
REMARK VINA RESULT:      -7.5      3.617      7.176
REMARK  2 active torsions:
REMARK  status: ('A' for Active; 'I' for Inactive)
REMARK    1  A    between atoms: C_8  and  N_9 
REMARK    2  A    between atoms: N_9  and  C_10 
ROOT
HETATM    1  N   UNL     1      40.601 -16.645   3.013  1.00  0.00    -0.340 N 
HETATM    2  H   UNL     1      39.915 -17.343   2.776  1.00  0.00     0.167 HD
ENDROOT
BRANCH   1   3
HETATM    3  C   UNL     1      41.174 -16.831   4.282  1.00  0.00     0.143 A 
HETATM    4  C   UNL     1      42.260 -17.722   4.501  1.00  0.00     0.053 A 
HETATM    5  C   UNL     1      42.971 -18.686   3.664  1.00  0.00    -0.032 A 
HETATM    6  C   UNL     1      42.781 -17.722   5.788  1.00  0.00     0.114 A 
HETATM    7  C   UNL     1      42.629 -19.005   2.241  1.00  0.00     0.050 C 
HETATM    8  C   UNL     1      44.013 -19.292   4.355  1.00  0.00    -0.012 A 
HETATM    9  S   UNL     1      44.101 -18.772   5.976  1.00  0.00    -0.074 SA
HETATM   10  C   UNL     1      44.993 -20.310   3.863  1.00  0.00     0.057 C 
HETATM   11  N   UNL     1      42.357 -16.997   6.835  1.00  0.00    -0.234 NA
HETATM   12  C   UNL     1      41.322 -16.222   6.526  1.00  0.00     0.236 A 
HETATM   13  N   UNL     1      40.726 -16.104   5.335  1.00  0.00    -0.223 NA
ENDBRANCH   1   3
BRANCH   1  14
HETATM   14  C   UNL     1      40.969 -15.818   1.935  1.00  0.00     0.036 A 
HETATM   15  C   UNL     1      41.476 -14.538   2.209  1.00  0.00     0.069 A 
HETATM   16  C   UNL     1      41.815 -13.658   1.177  1.00  0.00     0.104 A 
HETATM   17  C   UNL     1      41.690 -14.061  -0.152  1.00  0.00     0.102 A 
HETATM   18  O   UNL     1      42.350 -12.455   1.547  1.00  0.00    -0.348 OA
HETATM   19  O   UNL     1      42.096 -13.296  -1.209  1.00  0.00    -0.348 OA
HETATM   20  C   UNL     1      41.224 -15.340  -0.442  1.00  0.00     0.042 A 
HETATM   21  C   UNL     1      41.351 -12.083  -1.312  1.00  0.00     0.178 C 
HETATM   22  C   UNL     1      41.876 -11.010  -0.371  1.00  0.00     0.053 C 
HETATM   23  C   UNL     1      41.570 -11.354   1.079  1.00  0.00     0.178 C 
HETATM   24  C   UNL     1      40.850 -16.203   0.595  1.00  0.00     0.032 A 
ENDBRANCH   1  14
TORSDOF 2
ENDMDL
MODEL 10
REMARK VINA RESULT:      -7.5      3.577      7.331
REMARK  2 active torsions:
REMARK  status: ('A' for Active; 'I' for Inactive)
REMARK    1  A    between atoms: C_8  and  N_9 
REMARK    2  A    between atoms: N_9  and  C_10 
ROOT
HETATM    1  N   UNL     1      43.559 -16.313   2.612  1.00  0.00    -0.340 N 
HETATM    2  H   UNL     1      44.241 -15.614   2.862  1.00  0.00     0.167 HD
ENDROOT
BRANCH   1   3
HETATM    3  C   UNL     1      43.852 -17.588   3.124  1.00  0.00     0.143 A 
HETATM    4  C   UNL     1      43.815 -17.874   4.516  1.00  0.00     0.053 A 
HETATM    5  C   UNL     1      43.611 -17.065   5.717  1.00  0.00    -0.032 A 
HETATM    6  C   UNL     1      44.031 -19.202   4.859  1.00  0.00     0.114 A 
HETATM    7  C   UNL     1      43.425 -15.580   5.731  1.00  0.00     0.050 C 
HETATM    8  C   UNL     1      43.623 -17.846   6.867  1.00  0.00    -0.012 A 
HETATM    9  S   UNL     1      43.930 -19.488   6.528  1.00  0.00    -0.074 SA
HETATM   10  C   UNL     1      43.429 -17.419   8.287  1.00  0.00     0.057 C 
HETATM   11  N   UNL     1      44.291 -20.222   4.026  1.00  0.00    -0.234 NA
HETATM   12  C   UNL     1      44.332 -19.838   2.754  1.00  0.00     0.236 A 
HETATM   13  N   UNL     1      44.130 -18.606   2.274  1.00  0.00    -0.223 NA
ENDBRANCH   1   3
BRANCH   1  14
HETATM   14  C   UNL     1      42.392 -15.789   2.027  1.00  0.00     0.036 A 
HETATM   15  C   UNL     1      42.203 -15.941   0.645  1.00  0.00     0.069 A 
HETATM   16  C   UNL     1      41.084 -15.401   0.003  1.00  0.00     0.104 A 
HETATM   17  C   UNL     1      40.112 -14.731   0.744  1.00  0.00     0.102 A 
HETATM   18  O   UNL     1      40.965 -15.651  -1.337  1.00  0.00    -0.348 OA
HETATM   19  O   UNL     1      38.945 -14.267   0.205  1.00  0.00    -0.348 OA
HETATM   20  C   UNL     1      40.264 -14.603   2.122  1.00  0.00     0.042 A 
HETATM   21  C   UNL     1      39.172 -13.248  -0.768  1.00  0.00     0.178 C 
HETATM   22  C   UNL     1      39.536 -13.828  -2.126  1.00  0.00     0.053 C 
HETATM   23  C   UNL     1      40.925 -14.447  -2.104  1.00  0.00     0.178 C 
HETATM   24  C   UNL     1      41.405 -15.112   2.753  1.00  0.00     0.032 A 
ENDBRANCH   1  14
TORSDOF 2
ENDMDL
