MODEL 1
REMARK VINA RESULT:      -8.3      0.000      0.000
REMARK  5 active torsions:
REMARK  status: ('A' for Active; 'I' for Inactive)
REMARK    1  A    between atoms: C_6  and  N_7 
REMARK       I    between atoms: N_7  and  C_8 
REMARK    2  A    between atoms: C_8  and  C_9 
REMARK    3  A    between atoms: C_9  and  O_10 
REMARK    4  A    between atoms: O_10  and  C_11 
REMARK    5  A    between atoms: C_20  and  C_21 
ROOT
HETATM    1  C   UNL     1      43.354 -21.853   1.626  1.00  0.00     0.073 C 
HETATM    2  C   UNL     1      44.056 -21.361   2.837  1.00  0.00     0.065 A 
HETATM    3  N   UNL     1      44.665 -22.229   3.655  1.00  0.00    -0.177 NA
HETATM    4  N   UNL     1      45.178 -21.456   4.627  1.00  0.00    -0.262 N 
HETATM    5  H   UNL     1      45.757 -21.900   5.333  1.00  0.00     0.191 HD
HETATM    6  C   UNL     1      44.892 -20.123   4.489  1.00  0.00     0.137 A 
HETATM    7  C   UNL     1      44.176 -20.024   3.308  1.00  0.00     0.046 A 
ENDROOT
BRANCH   6   8
HETATM    8  N   UNL     1      45.337 -19.113   5.319  1.00  0.00    -0.309 N 
HETATM    9  C   UNL     1      44.670 -18.467   6.325  1.00  0.00     0.247 C 
HETATM   10  O   UNL     1      45.301 -17.687   7.044  1.00  0.00    -0.271 OA
HETATM   11  H   UNL     1      46.281 -18.772   5.169  1.00  0.00     0.170 HD
BRANCH   9  12
HETATM   12  C   UNL     1      43.154 -18.587   6.452  1.00  0.00     0.278 C 
BRANCH  12  13
HETATM   13  O   UNL     1      42.588 -17.490   7.154  1.00  0.00    -0.339 OA
BRANCH  13  14
HETATM   14  C   UNL     1      42.195 -16.426   6.382  1.00  0.00     0.108 A 
HETATM   15  C   UNL     1      40.815 -16.281   6.191  1.00  0.00     0.152 A 
HETATM   16  F   UNL     1      39.967 -17.153   6.758  1.00  0.00    -0.203 F 
HETATM   17  C   UNL     1      40.291 -15.242   5.429  1.00  0.00     0.087 A 
HETATM   18  C   UNL     1      41.166 -14.343   4.837  1.00  0.00     0.119 A 
HETATM   19  F   UNL     1      40.680 -13.336   4.101  1.00  0.00    -0.206 F 
HETATM   20  C   UNL     1      42.542 -14.473   4.993  1.00  0.00     0.045 A 
HETATM   21  C   UNL     1      43.061 -15.518   5.764  1.00  0.00     0.043 A 
ENDBRANCH  13  14
ENDBRANCH  12  13
ENDBRANCH   9  12
ENDBRANCH   6   8
BRANCH   7  22
HETATM   22  C   UNL     1      43.620 -18.792   2.776  1.00  0.00    -0.020 A 
HETATM   23  C   UNL     1      44.347 -18.021   1.862  1.00  0.00     0.014 A 
HETATM   24  C   UNL     1      43.798 -16.848   1.337  1.00  0.00     0.020 A 
HETATM   25  C   UNL     1      42.520 -16.446   1.725  1.00  0.00     0.011 A 
HETATM   26 BR   UNL     1      41.775 -14.862   1.010  1.00  0.00    -0.051 Br
HETATM   27  C   UNL     1      41.785 -17.204   2.632  1.00  0.00     0.020 A 
HETATM   28  C   UNL     1      42.335 -18.379   3.154  1.00  0.00     0.014 A 
ENDBRANCH   7  22
TORSDOF 5
ENDMDL
MODEL 2
REMARK VINA RESULT:      -7.8      4.081      6.739
REMARK  5 active torsions:
REMARK  status: ('A' for Active; 'I' for Inactive)
REMARK    1  A    between atoms: C_6  and  N_7 
REMARK       I    between atoms: N_7  and  C_8 
REMARK    2  A    between atoms: C_8  and  C_9 
REMARK    3  A    between atoms: C_9  and  O_10 
REMARK    4  A    between atoms: O_10  and  C_11 
REMARK    5  A    between atoms: C_20  and  C_21 
ROOT
HETATM    1  C   UNL     1      39.661 -14.269   5.265  1.00  0.00     0.073 C 
HETATM    2  C   UNL     1      40.602 -14.495   4.139  1.00  0.00     0.065 A 
HETATM    3  N   UNL     1      40.349 -13.958   2.939  1.00  0.00    -0.177 NA
HETATM    4  N   UNL     1      41.379 -14.364   2.178  1.00  0.00    -0.262 N 
HETATM    5  H   UNL     1      41.439 -14.008   1.228  1.00  0.00     0.191 HD
HETATM    6  C   UNL     1      42.270 -15.175   2.830  1.00  0.00     0.137 A 
HETATM    7  C   UNL     1      41.800 -15.262   4.130  1.00  0.00     0.046 A 
ENDROOT
BRANCH   6   8
HETATM    8  N   UNL     1      43.435 -15.689   2.295  1.00  0.00    -0.309 N 
HETATM    9  C   UNL     1      43.677 -16.941   1.799  1.00  0.00     0.247 C 
HETATM   10  O   UNL     1      44.754 -17.152   1.233  1.00  0.00    -0.271 OA
HETATM   11  H   UNL     1      44.244 -15.076   2.273  1.00  0.00     0.170 HD
BRANCH   9  12
HETATM   12  C   UNL     1      42.709 -18.087   2.080  1.00  0.00     0.278 C 
BRANCH  12  13
HETATM   13  O   UNL     1      43.244 -19.345   1.694  1.00  0.00    -0.339 OA
BRANCH  13  14
HETATM   14  C   UNL     1      43.808 -20.087   2.701  1.00  0.00     0.108 A 
HETATM   15  C   UNL     1      43.988 -21.450   2.433  1.00  0.00     0.152 A 
HETATM   16  F   UNL     1      43.623 -21.951   1.242  1.00  0.00    -0.203 F 
HETATM   17  C   UNL     1      44.551 -22.308   3.372  1.00  0.00     0.087 A 
HETATM   18  C   UNL     1      44.925 -21.794   4.604  1.00  0.00     0.119 A 
HETATM   19  F   UNL     1      45.469 -22.605   5.521  1.00  0.00    -0.206 F 
HETATM   20  C   UNL     1      44.739 -20.449   4.906  1.00  0.00     0.045 A 
HETATM   21  C   UNL     1      44.176 -19.592   3.956  1.00  0.00     0.043 A 
ENDBRANCH  13  14
ENDBRANCH  12  13
ENDBRANCH   9  12
ENDBRANCH   6   8
BRANCH   7  22
HETATM   22  C   UNL     1      42.408 -16.060   5.180  1.00  0.00    -0.020 A 
HETATM   23  C   UNL     1      41.785 -17.226   5.639  1.00  0.00     0.014 A 
HETATM   24  C   UNL     1      42.386 -18.001   6.634  1.00  0.00     0.020 A 
HETATM   25  C   UNL     1      43.614 -17.612   7.170  1.00  0.00     0.011 A 
HETATM   26 BR   UNL     1      44.430 -18.664   8.512  1.00  0.00    -0.051 Br
HETATM   27  C   UNL     1      44.246 -16.455   6.722  1.00  0.00     0.020 A 
HETATM   28  C   UNL     1      43.644 -15.683   5.724  1.00  0.00     0.014 A 
ENDBRANCH   7  22
TORSDOF 5
ENDMDL
MODEL 3
REMARK VINA RESULT:      -7.6      3.880      6.484
REMARK  5 active torsions:
REMARK  status: ('A' for Active; 'I' for Inactive)
REMARK    1  A    between atoms: C_6  and  N_7 
REMARK       I    between atoms: N_7  and  C_8 
REMARK    2  A    between atoms: C_8  and  C_9 
REMARK    3  A    between atoms: C_9  and  O_10 
REMARK    4  A    between atoms: O_10  and  C_11 
REMARK    5  A    between atoms: C_20  and  C_21 
ROOT
HETATM    1  C   UNL     1      42.991 -13.558   2.794  1.00  0.00     0.073 C 
HETATM    2  C   UNL     1      42.707 -14.799   3.558  1.00  0.00     0.065 A 
HETATM    3  N   UNL     1      42.142 -15.846   2.945  1.00  0.00    -0.177 NA
HETATM    4  N   UNL     1      42.028 -16.769   3.914  1.00  0.00    -0.262 N 
HETATM    5  H   UNL     1      41.687 -17.690   3.658  1.00  0.00     0.191 HD
HETATM    6  C   UNL     1      42.462 -16.344   5.143  1.00  0.00     0.137 A 
HETATM    7  C   UNL     1      42.937 -15.060   4.937  1.00  0.00     0.046 A 
ENDROOT
BRANCH   6   8
HETATM    8  N   UNL     1      42.499 -17.107   6.294  1.00  0.00    -0.309 N 
HETATM    9  C   UNL     1      43.498 -17.919   6.758  1.00  0.00     0.247 C 
HETATM   10  O   UNL     1      43.387 -18.403   7.887  1.00  0.00    -0.271 OA
HETATM   11  H   UNL     1      41.674 -17.094   6.885  1.00  0.00     0.170 HD
BRANCH   9  12
HETATM   12  C   UNL     1      44.643 -18.342   5.840  1.00  0.00     0.278 C 
BRANCH  12  13
HETATM   13  O   UNL     1      44.783 -19.754   5.778  1.00  0.00    -0.339 OA
BRANCH  13  14
HETATM   14  C   UNL     1      44.554 -20.322   4.550  1.00  0.00     0.108 A 
HETATM   15  C   UNL     1      44.803 -21.697   4.453  1.00  0.00     0.152 A 
HETATM   16  F   UNL     1      45.229 -22.376   5.529  1.00  0.00    -0.203 F 
HETATM   17  C   UNL     1      44.609 -22.390   3.263  1.00  0.00     0.087 A 
HETATM   18  C   UNL     1      44.173 -21.690   2.148  1.00  0.00     0.119 A 
HETATM   19  F   UNL     1      43.980 -22.339   0.993  1.00  0.00    -0.206 F 
HETATM   20  C   UNL     1      43.938 -20.320   2.208  1.00  0.00     0.045 A 
HETATM   21  C   UNL     1      44.131 -19.631   3.410  1.00  0.00     0.043 A 
ENDBRANCH  13  14
ENDBRANCH  12  13
ENDBRANCH   9  12
ENDBRANCH   6   8
BRANCH   7  22
HETATM   22  C   UNL     1      43.463 -14.194   5.978  1.00  0.00    -0.020 A 
HETATM   23  C   UNL     1      42.700 -13.127   6.467  1.00  0.00     0.014 A 
HETATM   24  C   UNL     1      43.203 -12.310   7.484  1.00  0.00     0.020 A 
HETATM   25  C   UNL     1      44.468 -12.561   8.015  1.00  0.00     0.011 A 
HETATM   26 BR   UNL     1      45.145 -11.461   9.394  1.00  0.00    -0.051 Br
HETATM   27  C   UNL     1      45.236 -13.621   7.539  1.00  0.00     0.020 A 
HETATM   28  C   UNL     1      44.731 -14.438   6.523  1.00  0.00     0.014 A 
ENDBRANCH   7  22
TORSDOF 5
ENDMDL
MODEL 4
REMARK VINA RESULT:      -7.3      3.588      6.234
REMARK  5 active torsions:
REMARK  status: ('A' for Active; 'I' for Inactive)
REMARK    1  A    between atoms: C_6  and  N_7 
REMARK       I    between atoms: N_7  and  C_8 
REMARK    2  A    between atoms: C_8  and  C_9 
REMARK    3  A    between atoms: C_9  and  O_10 
REMARK    4  A    between atoms: O_10  and  C_11 
REMARK    5  A    between atoms: C_20  and  C_21 
ROOT
HETATM    1  C   UNL     1      40.196 -14.375   1.179  1.00  0.00     0.073 C 
HETATM    2  C   UNL     1      40.398 -15.472   2.158  1.00  0.00     0.065 A 
HETATM    3  N   UNL     1      40.277 -16.747   1.768  1.00  0.00    -0.177 NA
HETATM    4  N   UNL     1      40.514 -17.454   2.885  1.00  0.00    -0.262 N 
HETATM    5  H   UNL     1      40.550 -18.466   2.810  1.00  0.00     0.191 HD
HETATM    6  C   UNL     1      40.745 -16.683   3.994  1.00  0.00     0.137 A 
HETATM    7  C   UNL     1      40.699 -15.374   3.545  1.00  0.00     0.046 A 
ENDROOT
BRANCH   6   8
HETATM    8  N   UNL     1      41.059 -17.155   5.254  1.00  0.00    -0.309 N 
HETATM    9  C   UNL     1      42.291 -17.358   5.815  1.00  0.00     0.247 C 
HETATM   10  O   UNL     1      42.351 -17.653   7.013  1.00  0.00    -0.271 OA
HETATM   11  H   UNL     1      40.286 -17.412   5.859  1.00  0.00     0.170 HD
BRANCH   9  12
HETATM   12  C   UNL     1      43.546 -17.375   4.947  1.00  0.00     0.278 C 
BRANCH  12  13
HETATM   13  O   UNL     1      44.258 -18.598   5.062  1.00  0.00    -0.339 OA
BRANCH  13  14
HETATM   14  C   UNL     1      44.128 -19.466   4.006  1.00  0.00     0.108 A 
HETATM   15  C   UNL     1      44.657 -20.749   4.197  1.00  0.00     0.152 A 
HETATM   16  F   UNL     1      45.238 -21.066   5.365  1.00  0.00    -0.203 F 
HETATM   17  C   UNL     1      44.587 -21.719   3.203  1.00  0.00     0.087 A 
HETATM   18  C   UNL     1      43.992 -21.393   1.994  1.00  0.00     0.119 A 
HETATM   19  F   UNL     1      43.915 -22.314   1.026  1.00  0.00    -0.206 F 
HETATM   20  C   UNL     1      43.477 -20.121   1.769  1.00  0.00     0.045 A 
HETATM   21  C   UNL     1      43.547 -19.152   2.775  1.00  0.00     0.043 A 
ENDBRANCH  13  14
ENDBRANCH  12  13
ENDBRANCH   9  12
ENDBRANCH   6   8
BRANCH   7  22
HETATM   22  C   UNL     1      40.848 -14.202   4.389  1.00  0.00    -0.020 A 
HETATM   23  C   UNL     1      39.794 -13.773   5.203  1.00  0.00     0.014 A 
HETATM   24  C   UNL     1      39.952 -12.657   6.030  1.00  0.00     0.020 A 
HETATM   25  C   UNL     1      41.165 -11.970   6.045  1.00  0.00     0.011 A 
HETATM   26 BR   UNL     1      41.380 -10.464   7.167  1.00  0.00    -0.051 Br
HETATM   27  C   UNL     1      42.223 -12.387   5.241  1.00  0.00     0.020 A 
HETATM   28  C   UNL     1      42.064 -13.504   4.417  1.00  0.00     0.014 A 
ENDBRANCH   7  22
TORSDOF 5
ENDMDL
MODEL 5
REMARK VINA RESULT:      -7.3      3.676      6.439
REMARK  5 active torsions:
REMARK  status: ('A' for Active; 'I' for Inactive)
REMARK    1  A    between atoms: C_6  and  N_7 
REMARK       I    between atoms: N_7  and  C_8 
REMARK    2  A    between atoms: C_8  and  C_9 
REMARK    3  A    between atoms: C_9  and  O_10 
REMARK    4  A    between atoms: O_10  and  C_11 
REMARK    5  A    between atoms: C_20  and  C_21 
ROOT
HETATM    1  C   UNL     1      40.226 -11.109   4.470  1.00  0.00     0.073 C 
HETATM    2  C   UNL     1      40.194 -12.473   5.056  1.00  0.00     0.065 A 
HETATM    3  N   UNL     1      40.109 -12.629   6.383  1.00  0.00    -0.177 NA
HETATM    4  N   UNL     1      40.109 -13.961   6.556  1.00  0.00    -0.262 N 
HETATM    5  H   UNL     1      39.976 -14.319   7.496  1.00  0.00     0.191 HD
HETATM    6  C   UNL     1      40.230 -14.674   5.392  1.00  0.00     0.137 A 
HETATM    7  C   UNL     1      40.263 -13.725   4.384  1.00  0.00     0.046 A 
ENDROOT
BRANCH   6   8
HETATM    8  N   UNL     1      40.209 -16.051   5.284  1.00  0.00    -0.309 N 
HETATM    9  C   UNL     1      41.252 -16.936   5.338  1.00  0.00     0.247 C 
HETATM   10  O   UNL     1      40.998 -18.144   5.363  1.00  0.00    -0.271 OA
HETATM   11  H   UNL     1      39.307 -16.490   5.123  1.00  0.00     0.170 HD
BRANCH   9  12
HETATM   12  C   UNL     1      42.691 -16.446   5.209  1.00  0.00     0.278 C 
BRANCH  12  13
HETATM   13  O   UNL     1      43.186 -16.582   3.885  1.00  0.00    -0.339 OA
BRANCH  13  14
HETATM   14  C   UNL     1      43.520 -17.857   3.501  1.00  0.00     0.108 A 
HETATM   15  C   UNL     1      42.982 -18.292   2.283  1.00  0.00     0.152 A 
HETATM   16  F   UNL     1      42.200 -17.470   1.566  1.00  0.00    -0.203 F 
HETATM   17  C   UNL     1      43.247 -19.563   1.783  1.00  0.00     0.087 A 
HETATM   18  C   UNL     1      44.051 -20.416   2.525  1.00  0.00     0.119 A 
HETATM   19  F   UNL     1      44.317 -21.643   2.060  1.00  0.00    -0.206 F 
HETATM   20  C   UNL     1      44.582 -20.018   3.747  1.00  0.00     0.045 A 
HETATM   21  C   UNL     1      44.315 -18.737   4.241  1.00  0.00     0.043 A 
ENDBRANCH  13  14
ENDBRANCH  12  13
ENDBRANCH   9  12
ENDBRANCH   6   8
BRANCH   7  22
HETATM   22  C   UNL     1      40.426 -14.021   2.972  1.00  0.00    -0.020 A 
HETATM   23  C   UNL     1      39.337 -14.447   2.204  1.00  0.00     0.014 A 
HETATM   24  C   UNL     1      39.496 -14.709   0.840  1.00  0.00     0.020 A 
HETATM   25  C   UNL     1      40.745 -14.543   0.242  1.00  0.00     0.011 A 
HETATM   26 BR   UNL     1      40.959 -14.892  -1.603  1.00  0.00    -0.051 Br
HETATM   27  C   UNL     1      41.837 -14.118   0.994  1.00  0.00     0.020 A 
HETATM   28  C   UNL     1      41.676 -13.854   2.358  1.00  0.00     0.014 A 
ENDBRANCH   7  22
TORSDOF 5
ENDMDL
MODEL 6
REMARK VINA RESULT:      -7.3      3.867      6.337
REMARK  5 active torsions:
REMARK  status: ('A' for Active; 'I' for Inactive)
REMARK    1  A    between atoms: C_6  and  N_7 
REMARK       I    between atoms: N_7  and  C_8 
REMARK    2  A    between atoms: C_8  and  C_9 
REMARK    3  A    between atoms: C_9  and  O_10 
REMARK    4  A    between atoms: O_10  and  C_11 
REMARK    5  A    between atoms: C_20  and  C_21 
ROOT
HETATM    1  C   UNL     1      41.372 -13.710  -0.747  1.00  0.00     0.073 C 
HETATM    2  C   UNL     1      41.166 -14.862   0.167  1.00  0.00     0.065 A 
HETATM    3  N   UNL     1      41.236 -16.112  -0.308  1.00  0.00    -0.177 NA
HETATM    4  N   UNL     1      40.998 -16.882   0.767  1.00  0.00    -0.262 N 
HETATM    5  H   UNL     1      41.077 -17.889   0.658  1.00  0.00     0.191 HD
HETATM    6  C   UNL     1      40.739 -16.177   1.912  1.00  0.00     0.137 A 
HETATM    7  C   UNL     1      40.865 -14.845   1.557  1.00  0.00     0.046 A 
ENDROOT
BRANCH   6   8
HETATM    8  N   UNL     1      40.510 -16.722   3.161  1.00  0.00    -0.309 N 
HETATM    9  C   UNL     1      41.378 -16.867   4.210  1.00  0.00     0.247 C 
HETATM   10  O   UNL     1      40.931 -17.252   5.295  1.00  0.00    -0.271 OA
HETATM   11  H   UNL     1      39.582 -17.089   3.344  1.00  0.00     0.170 HD
BRANCH   9  12
HETATM   12  C   UNL     1      42.882 -16.712   4.000  1.00  0.00     0.278 C 
BRANCH  12  13
HETATM   13  O   UNL     1      43.618 -17.760   4.613  1.00  0.00    -0.339 OA
BRANCH  13  14
HETATM   14  C   UNL     1      43.820 -18.877   3.842  1.00  0.00     0.108 A 
HETATM   15  C   UNL     1      44.491 -19.939   4.464  1.00  0.00     0.152 A 
HETATM   16  F   UNL     1      44.884 -19.825   5.741  1.00  0.00    -0.203 F 
HETATM   17  C   UNL     1      44.755 -21.126   3.789  1.00  0.00     0.087 A 
HETATM   18  C   UNL     1      44.354 -21.245   2.467  1.00  0.00     0.119 A 
HETATM   19  F   UNL     1      44.599 -22.381   1.802  1.00  0.00    -0.206 F 
HETATM   20  C   UNL     1      43.704 -20.200   1.818  1.00  0.00     0.045 A 
HETATM   21  C   UNL     1      43.438 -19.011   2.504  1.00  0.00     0.043 A 
ENDBRANCH  13  14
ENDBRANCH  12  13
ENDBRANCH   9  12
ENDBRANCH   6   8
BRANCH   7  22
HETATM   22  C   UNL     1      40.634 -13.723   2.450  1.00  0.00    -0.020 A 
HETATM   23  C   UNL     1      41.687 -13.180   3.195  1.00  0.00     0.014 A 
HETATM   24  C   UNL     1      41.463 -12.086   4.036  1.00  0.00     0.020 A 
HETATM   25  C   UNL     1      40.186 -11.533   4.131  1.00  0.00     0.011 A 
HETATM   26 BR   UNL     1      39.885 -10.050   5.264  1.00  0.00    -0.051 Br
HETATM   27  C   UNL     1      39.130 -12.062   3.394  1.00  0.00     0.020 A 
HETATM   28  C   UNL     1      39.357 -13.155   2.551  1.00  0.00     0.014 A 
ENDBRANCH   7  22
TORSDOF 5
ENDMDL
MODEL 7
REMARK VINA RESULT:      -7.3      3.688      6.418
REMARK  5 active torsions:
REMARK  status: ('A' for Active; 'I' for Inactive)
REMARK    1  A    between atoms: C_6  and  N_7 
REMARK       I    between atoms: N_7  and  C_8 
REMARK    2  A    between atoms: C_8  and  C_9 
REMARK    3  A    between atoms: C_9  and  O_10 
REMARK    4  A    between atoms: O_10  and  C_11 
REMARK    5  A    between atoms: C_20  and  C_21 
ROOT
HETATM    1  C   UNL     1      40.978 -11.076   4.092  1.00  0.00     0.073 C 
HETATM    2  C   UNL     1      40.817 -12.416   4.709  1.00  0.00     0.065 A 
HETATM    3  N   UNL     1      40.803 -12.541   6.042  1.00  0.00    -0.177 NA
HETATM    4  N   UNL     1      40.652 -13.860   6.244  1.00  0.00    -0.262 N 
HETATM    5  H   UNL     1      40.537 -14.186   7.199  1.00  0.00     0.191 HD
HETATM    6  C   UNL     1      40.606 -14.600   5.092  1.00  0.00     0.137 A 
HETATM    7  C   UNL     1      40.688 -13.677   4.063  1.00  0.00     0.046 A 
ENDROOT
BRANCH   6   8
HETATM    8  N   UNL     1      40.409 -15.965   5.016  1.00  0.00    -0.309 N 
HETATM    9  C   UNL     1      41.331 -16.974   5.096  1.00  0.00     0.247 C 
HETATM   10  O   UNL     1      40.925 -18.139   5.148  1.00  0.00    -0.271 OA
HETATM   11  H   UNL     1      39.460 -16.289   4.861  1.00  0.00     0.170 HD
BRANCH   9  12
HETATM   12  C   UNL     1      42.821 -16.676   4.962  1.00  0.00     0.278 C 
BRANCH  12  13
HETATM   13  O   UNL     1      43.309 -16.961   3.659  1.00  0.00    -0.339 OA
BRANCH  13  14
HETATM   14  C   UNL     1      43.684 -18.261   3.433  1.00  0.00     0.108 A 
HETATM   15  C   UNL     1      43.254 -18.823   2.224  1.00  0.00     0.152 A 
HETATM   16  F   UNL     1      42.529 -18.089   1.367  1.00  0.00    -0.203 F 
HETATM   17  C   UNL     1      43.569 -20.133   1.879  1.00  0.00     0.087 A 
HETATM   18  C   UNL     1      44.315 -20.896   2.766  1.00  0.00     0.119 A 
HETATM   19  F   UNL     1      44.629 -22.158   2.450  1.00  0.00    -0.206 F 
HETATM   20  C   UNL     1      44.738 -20.371   3.982  1.00  0.00     0.045 A 
HETATM   21  C   UNL     1      44.420 -19.052   4.321  1.00  0.00     0.043 A 
ENDBRANCH  13  14
ENDBRANCH  12  13
ENDBRANCH   9  12
ENDBRANCH   6   8
BRANCH   7  22
HETATM   22  C   UNL     1      40.720 -14.011   2.650  1.00  0.00    -0.020 A 
HETATM   23  C   UNL     1      41.926 -14.351   2.027  1.00  0.00     0.014 A 
HETATM   24  C   UNL     1      41.946 -14.693   0.671  1.00  0.00     0.020 A 
HETATM   25  C   UNL     1      40.760 -14.697  -0.062  1.00  0.00     0.011 A 
HETATM   26 BR   UNL     1      40.787 -15.165  -1.893  1.00  0.00    -0.051 Br
HETATM   27  C   UNL     1      39.553 -14.362   0.546  1.00  0.00     0.020 A 
HETATM   28  C   UNL     1      39.534 -14.023   1.902  1.00  0.00     0.014 A 
ENDBRANCH   7  22
TORSDOF 5
ENDMDL
MODEL 8
REMARK VINA RESULT:      -7.2      4.492      6.740
REMARK  5 active torsions:
REMARK  status: ('A' for Active; 'I' for Inactive)
REMARK    1  A    between atoms: C_6  and  N_7 
REMARK       I    between atoms: N_7  and  C_8 
REMARK    2  A    between atoms: C_8  and  C_9 
REMARK    3  A    between atoms: C_9  and  O_10 
REMARK    4  A    between atoms: O_10  and  C_11 
REMARK    5  A    between atoms: C_20  and  C_21 
ROOT
HETATM    1  C   UNL     1      44.577 -14.486   6.321  1.00  0.00     0.073 C 
HETATM    2  C   UNL     1      43.198 -14.369   5.785  1.00  0.00     0.065 A 
HETATM    3  N   UNL     1      42.432 -13.327   6.130  1.00  0.00    -0.177 NA
HETATM    4  N   UNL     1      41.276 -13.543   5.483  1.00  0.00    -0.262 N 
HETATM    5  H   UNL     1      40.557 -12.827   5.538  1.00  0.00     0.191 HD
HETATM    6  C   UNL     1      41.249 -14.707   4.761  1.00  0.00     0.137 A 
HETATM    7  C   UNL     1      42.508 -15.263   4.919  1.00  0.00     0.046 A 
ENDROOT
BRANCH   6   8
HETATM    8  N   UNL     1      40.204 -15.142   3.969  1.00  0.00    -0.309 N 
HETATM    9  C   UNL     1      39.950 -14.872   2.652  1.00  0.00     0.247 C 
HETATM   10  O   UNL     1      39.034 -15.480   2.092  1.00  0.00    -0.271 OA
HETATM   11  H   UNL     1      39.504 -15.732   4.409  1.00  0.00     0.170 HD
BRANCH   9  12
HETATM   12  C   UNL     1      40.676 -13.734   1.940  1.00  0.00     0.278 C 
BRANCH  12  13
HETATM   13  O   UNL     1      41.637 -14.211   1.009  1.00  0.00    -0.339 OA
BRANCH  13  14
HETATM   14  C   UNL     1      41.226 -14.260  -0.300  1.00  0.00     0.108 A 
HETATM   15  C   UNL     1      41.238 -15.525  -0.901  1.00  0.00     0.152 A 
HETATM   16  F   UNL     1      41.627 -16.597  -0.193  1.00  0.00    -0.203 F 
HETATM   17  C   UNL     1      40.844 -15.706  -2.222  1.00  0.00     0.087 A 
HETATM   18  C   UNL     1      40.447 -14.599  -2.957  1.00  0.00     0.119 A 
HETATM   19  F   UNL     1      40.064 -14.754  -4.230  1.00  0.00    -0.206 F 
HETATM   20  C   UNL     1      40.445 -13.328  -2.393  1.00  0.00     0.045 A 
HETATM   21  C   UNL     1      40.838 -13.154  -1.062  1.00  0.00     0.043 A 
ENDBRANCH  13  14
ENDBRANCH  12  13
ENDBRANCH   9  12
ENDBRANCH   6   8
BRANCH   7  22
HETATM   22  C   UNL     1      42.928 -16.536   4.361  1.00  0.00    -0.020 A 
HETATM   23  C   UNL     1      43.365 -16.621   3.034  1.00  0.00     0.014 A 
HETATM   24  C   UNL     1      43.790 -17.846   2.510  1.00  0.00     0.020 A 
HETATM   25  C   UNL     1      43.779 -18.986   3.313  1.00  0.00     0.011 A 
HETATM   26 BR   UNL     1      44.357 -20.640   2.605  1.00  0.00    -0.051 Br
HETATM   27  C   UNL     1      43.347 -18.915   4.635  1.00  0.00     0.020 A 
HETATM   28  C   UNL     1      42.926 -17.689   5.158  1.00  0.00     0.014 A 
ENDBRANCH   7  22
TORSDOF 5
ENDMDL
MODEL 9
REMARK VINA RESULT:      -7.2      4.258      7.311
REMARK  5 active torsions:
REMARK  status: ('A' for Active; 'I' for Inactive)
REMARK    1  A    between atoms: C_6  and  N_7 
REMARK       I    between atoms: N_7  and  C_8 
REMARK    2  A    between atoms: C_8  and  C_9 
REMARK    3  A    between atoms: C_9  and  O_10 
REMARK    4  A    between atoms: O_10  and  C_11 
REMARK    5  A    between atoms: C_20  and  C_21 
ROOT
HETATM    1  C   UNL     1      39.186 -11.966   3.195  1.00  0.00     0.073 C 
HETATM    2  C   UNL     1      39.648 -13.234   3.814  1.00  0.00     0.065 A 
HETATM    3  N   UNL     1      39.565 -14.381   3.130  1.00  0.00    -0.177 NA
HETATM    4  N   UNL     1      40.054 -15.302   3.977  1.00  0.00    -0.262 N 
HETATM    5  H   UNL     1      40.158 -16.254   3.638  1.00  0.00     0.191 HD
HETATM    6  C   UNL     1      40.415 -14.800   5.199  1.00  0.00     0.137 A 
HETATM    7  C   UNL     1      40.183 -13.437   5.116  1.00  0.00     0.046 A 
ENDROOT
BRANCH   6   8
HETATM    8  N   UNL     1      40.987 -15.519   6.230  1.00  0.00    -0.309 N 
HETATM    9  C   UNL     1      42.208 -16.137   6.277  1.00  0.00     0.247 C 
HETATM   10  O   UNL     1      42.588 -16.608   7.353  1.00  0.00    -0.271 OA
HETATM   11  H   UNL     1      40.437 -15.635   7.076  1.00  0.00     0.170 HD
BRANCH   9  12
HETATM   12  C   UNL     1      43.005 -16.377   4.998  1.00  0.00     0.278 C 
BRANCH  12  13
HETATM   13  O   UNL     1      42.337 -17.263   4.111  1.00  0.00    -0.339 OA
BRANCH  13  14
HETATM   14  C   UNL     1      43.053 -18.367   3.720  1.00  0.00     0.108 A 
HETATM   15  C   UNL     1      42.776 -18.855   2.436  1.00  0.00     0.152 A 
HETATM   16  F   UNL     1      41.864 -18.239   1.669  1.00  0.00    -0.203 F 
HETATM   17  C   UNL     1      43.435 -19.968   1.924  1.00  0.00     0.087 A 
HETATM   18  C   UNL     1      44.375 -20.609   2.716  1.00  0.00     0.119 A 
HETATM   19  F   UNL     1      45.019 -21.681   2.240  1.00  0.00    -0.206 F 
HETATM   20  C   UNL     1      44.655 -20.159   4.002  1.00  0.00     0.045 A 
HETATM   21  C   UNL     1      43.992 -19.038   4.509  1.00  0.00     0.043 A 
ENDBRANCH  13  14
ENDBRANCH  12  13
ENDBRANCH   9  12
ENDBRANCH   6   8
BRANCH   7  22
HETATM   22  C   UNL     1      40.385 -12.494   6.203  1.00  0.00    -0.020 A 
HETATM   23  C   UNL     1      39.365 -12.249   7.129  1.00  0.00     0.014 A 
HETATM   24  C   UNL     1      39.573 -11.357   8.185  1.00  0.00     0.020 A 
HETATM   25  C   UNL     1      40.802 -10.711   8.316  1.00  0.00     0.011 A 
HETATM   26 BR   UNL     1      41.084  -9.509   9.747  1.00  0.00    -0.051 Br
HETATM   27  C   UNL     1      41.825 -10.946   7.402  1.00  0.00     0.020 A 
HETATM   28  C   UNL     1      41.616 -11.841   6.349  1.00  0.00     0.014 A 
ENDBRANCH   7  22
TORSDOF 5
ENDMDL
MODEL 10
REMARK VINA RESULT:      -7.2      3.541      5.493
REMARK  5 active torsions:
REMARK  status: ('A' for Active; 'I' for Inactive)
REMARK    1  A    between atoms: C_6  and  N_7 
REMARK       I    between atoms: N_7  and  C_8 
REMARK    2  A    between atoms: C_8  and  C_9 
REMARK    3  A    between atoms: C_9  and  O_10 
REMARK    4  A    between atoms: O_10  and  C_11 
REMARK    5  A    between atoms: C_20  and  C_21 
ROOT
HETATM    1  C   UNL     1      39.097 -15.240   1.901  1.00  0.00     0.073 C 
HETATM    2  C   UNL     1      40.125 -14.380   2.538  1.00  0.00     0.065 A 
HETATM    3  N   UNL     1      39.871 -13.084   2.757  1.00  0.00    -0.177 NA
HETATM    4  N   UNL     1      40.996 -12.622   3.327  1.00  0.00    -0.262 N 
HETATM    5  H   UNL     1      41.005 -11.661   3.654  1.00  0.00     0.191 HD
HETATM    6  C   UNL     1      41.985 -13.562   3.451  1.00  0.00     0.137 A 
HETATM    7  C   UNL     1      41.436 -14.736   2.963  1.00  0.00     0.046 A 
ENDROOT
BRANCH   6   8
HETATM    8  N   UNL     1      43.217 -13.364   4.042  1.00  0.00    -0.309 N 
HETATM    9  C   UNL     1      43.743 -13.957   5.158  1.00  0.00     0.247 C 
HETATM   10  O   UNL     1      44.926 -13.742   5.438  1.00  0.00    -0.271 OA
HETATM   11  H   UNL     1      43.829 -12.673   3.619  1.00  0.00     0.170 HD
BRANCH   9  12
HETATM   12  C   UNL     1      42.848 -14.736   6.118  1.00  0.00     0.278 C 
BRANCH  12  13
HETATM   13  O   UNL     1      43.598 -15.439   7.097  1.00  0.00    -0.339 OA
BRANCH  13  14
HETATM   14  C   UNL     1      43.894 -16.745   6.797  1.00  0.00     0.108 A 
HETATM   15  C   UNL     1      42.884 -17.680   7.059  1.00  0.00     0.152 A 
HETATM   16  F   UNL     1      41.710 -17.271   7.564  1.00  0.00    -0.203 F 
HETATM   17  C   UNL     1      43.061 -19.034   6.797  1.00  0.00     0.087 A 
HETATM   18  C   UNL     1      44.275 -19.460   6.279  1.00  0.00     0.119 A 
HETATM   19  F   UNL     1      44.463 -20.760   6.020  1.00  0.00    -0.206 F 
HETATM   20  C   UNL     1      45.303 -18.558   6.028  1.00  0.00     0.045 A 
HETATM   21  C   UNL     1      45.116 -17.197   6.290  1.00  0.00     0.043 A 
ENDBRANCH  13  14
ENDBRANCH  12  13
ENDBRANCH   9  12
ENDBRANCH   6   8
BRANCH   7  22
HETATM   22  C   UNL     1      42.142 -16.001   2.857  1.00  0.00    -0.020 A 
HETATM   23  C   UNL     1      41.701 -17.122   3.569  1.00  0.00     0.014 A 
HETATM   24  C   UNL     1      42.372 -18.342   3.445  1.00  0.00     0.020 A 
HETATM   25  C   UNL     1      43.483 -18.442   2.608  1.00  0.00     0.011 A 
HETATM   26 BR   UNL     1      44.387 -20.093   2.437  1.00  0.00    -0.051 Br
HETATM   27  C   UNL     1      43.931 -17.334   1.893  1.00  0.00     0.020 A 
HETATM   28  C   UNL     1      43.257 -16.116   2.016  1.00  0.00     0.014 A 
ENDBRANCH   7  22
TORSDOF 5
ENDMDL
