MODEL 1
REMARK VINA RESULT:      -9.3      0.000      0.000
REMARK  8 active torsions:
REMARK  status: ('A' for Active; 'I' for Inactive)
REMARK    1  A    between atoms: C_7  and  C_8 
REMARK    2  A    between atoms: C_11  and  O_12 
REMARK    3  A    between atoms: O_12  and  C_13 
REMARK    4  A    between atoms: C_13  and  C_14 
REMARK       I    between atoms: C_14  and  N_15 
REMARK    5  A    between atoms: N_15  and  N_16 
REMARK       I    between atoms: N_16  and  C_17 
REMARK    6  A    between atoms: C_17  and  C_18 
REMARK    7  A    between atoms: C_18  and  N_19 
REMARK       I    between atoms: N_19  and  C_20 
REMARK    8  A    between atoms: C_20  and  C_21 
ROOT
HETATM    1  C   UNL     1      44.064 -19.660   4.044  1.00  0.00     0.023 A 
HETATM    2  C   UNL     1      43.950 -20.037   2.704  1.00  0.00     0.044 A 
HETATM    3  C   UNL     1      44.259 -21.378   2.303  1.00  0.00     0.099 C 
HETATM    4  N   UNL     1      44.510 -22.464   1.978  1.00  0.00    -0.191 NA
HETATM    5  C   UNL     1      43.533 -19.098   1.758  1.00  0.00     0.023 A 
HETATM    6  C   UNL     1      43.235 -17.789   2.153  1.00  0.00     0.014 A 
HETATM    7  C   UNL     1      43.343 -17.388   3.496  1.00  0.00    -0.026 A 
HETATM    8  C   UNL     1      43.762 -18.350   4.433  1.00  0.00     0.014 A 
ENDROOT
BRANCH   7   9
HETATM    9  C   UNL     1      43.030 -16.006   3.909  1.00  0.00    -0.026 A 
HETATM   10  C   UNL     1      43.392 -14.906   3.116  1.00  0.00     0.015 A 
HETATM   11  C   UNL     1      43.097 -13.598   3.515  1.00  0.00     0.037 A 
HETATM   12  C   UNL     1      42.423 -13.352   4.712  1.00  0.00     0.069 A 
HETATM   13  C   UNL     1      42.058 -14.432   5.514  1.00  0.00     0.037 A 
HETATM   14  C   UNL     1      42.360 -15.742   5.115  1.00  0.00     0.015 A 
BRANCH  12  15
HETATM   15  O   UNL     1      42.199 -12.031   4.989  1.00  0.00    -0.342 OA
BRANCH  15  16
HETATM   16  C   UNL     1      41.006 -11.727   5.705  1.00  0.00     0.280 C 
BRANCH  16  17
HETATM   17  C   UNL     1      41.277 -11.423   7.176  1.00  0.00     0.260 C 
HETATM   18  N   UNL     1      42.610 -11.410   7.533  1.00  0.00    -0.266 N 
HETATM   19  H   UNL     1      43.300 -11.824   6.903  1.00  0.00     0.190 HD
HETATM   20  O   UNL     1      40.366 -11.234   7.984  1.00  0.00    -0.269 OA
BRANCH  18  21
HETATM   21  N   UNL     1      42.914 -11.438   8.901  1.00  0.00    -0.266 N 
HETATM   22  C   UNL     1      44.104 -12.015   9.295  1.00  0.00     0.253 C 
HETATM   23  O   UNL     1      45.031 -12.242   8.516  1.00  0.00    -0.270 OA
HETATM   24  H   UNL     1      42.138 -11.300   9.551  1.00  0.00     0.190 HD
BRANCH  22  25
HETATM   25  C   UNL     1      44.221 -12.248  10.798  1.00  0.00     0.227 C 
BRANCH  25  26
HETATM   26  N   UNL     1      44.181 -10.986  11.509  1.00  0.00    -0.352 N 
HETATM   27  C   UNL     1      43.162 -10.717  12.396  1.00  0.00     0.222 C 
HETATM   28  O   UNL     1      42.280 -11.536  12.638  1.00  0.00    -0.273 OA
HETATM   29  H   UNL     1      44.712 -10.214  11.124  1.00  0.00     0.162 HD
BRANCH  27  30
HETATM   30  C   UNL     1      43.224  -9.316  13.012  1.00  0.00     0.078 C 
HETATM   31  C   UNL     1      42.254  -8.337  12.335  1.00  0.00     0.014 C 
HETATM   32  C   UNL     1      40.796  -8.542  12.745  1.00  0.00     0.001 C 
HETATM   33  C   UNL     1      40.625  -8.565  14.259  1.00  0.00     0.000 C 
HETATM   34  C   UNL     1      41.546  -9.590  14.910  1.00  0.00     0.001 C 
HETATM   35  C   UNL     1      43.007  -9.349  14.532  1.00  0.00     0.014 C 
ENDBRANCH  27  30
ENDBRANCH  25  26
ENDBRANCH  22  25
ENDBRANCH  18  21
ENDBRANCH  16  17
ENDBRANCH  15  16
ENDBRANCH  12  15
ENDBRANCH   7   9
TORSDOF 8
ENDMDL
MODEL 2
REMARK VINA RESULT:      -9.2      1.882      2.501
REMARK  8 active torsions:
REMARK  status: ('A' for Active; 'I' for Inactive)
REMARK    1  A    between atoms: C_7  and  C_8 
REMARK    2  A    between atoms: C_11  and  O_12 
REMARK    3  A    between atoms: O_12  and  C_13 
REMARK    4  A    between atoms: C_13  and  C_14 
REMARK       I    between atoms: C_14  and  N_15 
REMARK    5  A    between atoms: N_15  and  N_16 
REMARK       I    between atoms: N_16  and  C_17 
REMARK    6  A    between atoms: C_17  and  C_18 
REMARK    7  A    between atoms: C_18  and  N_19 
REMARK       I    between atoms: N_19  and  C_20 
REMARK    8  A    between atoms: C_20  and  C_21 
ROOT
HETATM    1  C   UNL     1      44.254 -19.694   4.152  1.00  0.00     0.023 A 
HETATM    2  C   UNL     1      44.067 -20.376   2.948  1.00  0.00     0.044 A 
HETATM    3  C   UNL     1      44.433 -21.758   2.837  1.00  0.00     0.099 C 
HETATM    4  N   UNL     1      44.730 -22.876   2.747  1.00  0.00    -0.191 NA
HETATM    5  C   UNL     1      43.522 -19.702   1.853  1.00  0.00     0.023 A 
HETATM    6  C   UNL     1      43.168 -18.352   1.964  1.00  0.00     0.014 A 
HETATM    7  C   UNL     1      43.348 -17.647   3.166  1.00  0.00    -0.026 A 
HETATM    8  C   UNL     1      43.896 -18.344   4.257  1.00  0.00     0.014 A 
ENDROOT
BRANCH   7   9
HETATM    9  C   UNL     1      42.976 -16.223   3.280  1.00  0.00    -0.026 A 
HETATM   10  C   UNL     1      43.669 -15.353   4.135  1.00  0.00     0.015 A 
HETATM   11  C   UNL     1      43.310 -14.004   4.241  1.00  0.00     0.037 A 
HETATM   12  C   UNL     1      42.256 -13.486   3.489  1.00  0.00     0.069 A 
HETATM   13  C   UNL     1      41.553 -14.336   2.637  1.00  0.00     0.037 A 
HETATM   14  C   UNL     1      41.911 -15.688   2.537  1.00  0.00     0.015 A 
BRANCH  12  15
HETATM   15  O   UNL     1      42.003 -12.156   3.687  1.00  0.00    -0.342 OA
BRANCH  15  16
HETATM   16  C   UNL     1      40.797 -11.835   4.372  1.00  0.00     0.280 C 
BRANCH  16  17
HETATM   17  C   UNL     1      41.055 -11.116   5.693  1.00  0.00     0.260 C 
HETATM   18  N   UNL     1      41.047 -11.929   6.810  1.00  0.00    -0.266 N 
HETATM   19  H   UNL     1      40.646 -12.866   6.742  1.00  0.00     0.190 HD
HETATM   20  O   UNL     1      41.227  -9.898   5.755  1.00  0.00    -0.269 OA
BRANCH  18  21
HETATM   21  N   UNL     1      40.976 -11.305   8.063  1.00  0.00    -0.266 N 
HETATM   22  C   UNL     1      39.746 -11.229   8.686  1.00  0.00     0.253 C 
HETATM   23  O   UNL     1      38.780 -11.916   8.351  1.00  0.00    -0.270 OA
HETATM   24  H   UNL     1      41.753 -10.696   8.322  1.00  0.00     0.190 HD
BRANCH  22  25
HETATM   25  C   UNL     1      39.715 -10.303   9.898  1.00  0.00     0.227 C 
BRANCH  25  26
HETATM   26  N   UNL     1      40.544 -10.834  10.961  1.00  0.00    -0.352 N 
HETATM   27  C   UNL     1      40.370 -10.408  12.260  1.00  0.00     0.222 C 
HETATM   28  O   UNL     1      39.498  -9.600  12.566  1.00  0.00    -0.273 OA
HETATM   29  H   UNL     1      41.423 -11.263  10.700  1.00  0.00     0.162 HD
BRANCH  27  30
HETATM   30  C   UNL     1      41.369 -11.010  13.253  1.00  0.00     0.078 C 
HETATM   31  C   UNL     1      42.734 -11.292  12.609  1.00  0.00     0.014 C 
HETATM   32  C   UNL     1      43.578 -10.036  12.394  1.00  0.00     0.001 C 
HETATM   33  C   UNL     1      43.703  -9.206  13.666  1.00  0.00     0.000 C 
HETATM   34  C   UNL     1      42.337  -8.877  14.256  1.00  0.00     0.001 C 
HETATM   35  C   UNL     1      41.519 -10.142  14.511  1.00  0.00     0.014 C 
ENDBRANCH  27  30
ENDBRANCH  25  26
ENDBRANCH  22  25
ENDBRANCH  18  21
ENDBRANCH  16  17
ENDBRANCH  15  16
ENDBRANCH  12  15
ENDBRANCH   7   9
TORSDOF 8
ENDMDL
MODEL 3
REMARK VINA RESULT:      -9.2      1.812      2.769
REMARK  8 active torsions:
REMARK  status: ('A' for Active; 'I' for Inactive)
REMARK    1  A    between atoms: C_7  and  C_8 
REMARK    2  A    between atoms: C_11  and  O_12 
REMARK    3  A    between atoms: O_12  and  C_13 
REMARK    4  A    between atoms: C_13  and  C_14 
REMARK       I    between atoms: C_14  and  N_15 
REMARK    5  A    between atoms: N_15  and  N_16 
REMARK       I    between atoms: N_16  and  C_17 
REMARK    6  A    between atoms: C_17  and  C_18 
REMARK    7  A    between atoms: C_18  and  N_19 
REMARK       I    between atoms: N_19  and  C_20 
REMARK    8  A    between atoms: C_20  and  C_21 
ROOT
HETATM    1  C   UNL     1      44.029 -19.668   3.903  1.00  0.00     0.023 A 
HETATM    2  C   UNL     1      43.753 -20.138   2.617  1.00  0.00     0.044 A 
HETATM    3  C   UNL     1      44.279 -21.399   2.181  1.00  0.00     0.099 C 
HETATM    4  N   UNL     1      44.705 -22.419   1.828  1.00  0.00    -0.191 NA
HETATM    5  C   UNL     1      42.964 -19.370   1.759  1.00  0.00     0.023 A 
HETATM    6  C   UNL     1      42.454 -18.138   2.186  1.00  0.00     0.014 A 
HETATM    7  C   UNL     1      42.719 -17.647   3.476  1.00  0.00    -0.026 A 
HETATM    8  C   UNL     1      43.515 -18.437   4.326  1.00  0.00     0.014 A 
ENDROOT
BRANCH   7   9
HETATM    9  C   UNL     1      42.184 -16.347   3.924  1.00  0.00    -0.026 A 
HETATM   10  C   UNL     1      41.642 -15.426   3.014  1.00  0.00     0.015 A 
HETATM   11  C   UNL     1      41.140 -14.193   3.444  1.00  0.00     0.037 A 
HETATM   12  C   UNL     1      41.154 -13.849   4.796  1.00  0.00     0.069 A 
HETATM   13  C   UNL     1      41.691 -14.750   5.715  1.00  0.00     0.037 A 
HETATM   14  C   UNL     1      42.200 -15.982   5.281  1.00  0.00     0.015 A 
BRANCH  12  15
HETATM   15  O   UNL     1      40.639 -12.615   5.085  1.00  0.00    -0.342 OA
BRANCH  15  16
HETATM   16  C   UNL     1      41.539 -11.667   5.646  1.00  0.00     0.280 C 
BRANCH  16  17
HETATM   17  C   UNL     1      41.301 -11.455   7.138  1.00  0.00     0.260 C 
HETATM   18  N   UNL     1      40.078 -11.899   7.602  1.00  0.00    -0.266 N 
HETATM   19  H   UNL     1      39.335 -12.104   6.932  1.00  0.00     0.190 HD
HETATM   20  O   UNL     1      42.129 -10.900   7.862  1.00  0.00    -0.269 OA
BRANCH  18  21
HETATM   21  N   UNL     1      39.675 -11.470   8.874  1.00  0.00    -0.266 N 
HETATM   22  C   UNL     1      38.944 -10.303   8.970  1.00  0.00     0.253 C 
HETATM   23  O   UNL     1      38.388  -9.778   8.004  1.00  0.00    -0.270 OA
HETATM   24  H   UNL     1      40.169 -11.867   9.675  1.00  0.00     0.190 HD
BRANCH  22  25
HETATM   25  C   UNL     1      38.790  -9.776  10.393  1.00  0.00     0.227 C 
BRANCH  25  26
HETATM   26  N   UNL     1      39.684 -10.476  11.291  1.00  0.00    -0.352 N 
HETATM   27  C   UNL     1      40.049  -9.910  12.494  1.00  0.00     0.222 C 
HETATM   28  O   UNL     1      39.612  -8.823  12.857  1.00  0.00    -0.273 OA
HETATM   29  H   UNL     1      40.263 -11.210  10.900  1.00  0.00     0.162 HD
BRANCH  27  30
HETATM   30  C   UNL     1      41.054 -10.743  13.296  1.00  0.00     0.078 C 
HETATM   31  C   UNL     1      41.995 -11.553  12.391  1.00  0.00     0.014 C 
HETATM   32  C   UNL     1      43.089 -10.710  11.739  1.00  0.00     0.001 C 
HETATM   33  C   UNL     1      43.852  -9.874  12.760  1.00  0.00     0.000 C 
HETATM   34  C   UNL     1      42.910  -9.025  13.604  1.00  0.00     0.001 C 
HETATM   35  C   UNL     1      41.847  -9.882  14.290  1.00  0.00     0.014 C 
ENDBRANCH  27  30
ENDBRANCH  25  26
ENDBRANCH  22  25
ENDBRANCH  18  21
ENDBRANCH  16  17
ENDBRANCH  15  16
ENDBRANCH  12  15
ENDBRANCH   7   9
TORSDOF 8
ENDMDL
MODEL 4
REMARK VINA RESULT:      -9.1      2.964     12.001
REMARK  8 active torsions:
REMARK  status: ('A' for Active; 'I' for Inactive)
REMARK    1  A    between atoms: C_7  and  C_8 
REMARK    2  A    between atoms: C_11  and  O_12 
REMARK    3  A    between atoms: O_12  and  C_13 
REMARK    4  A    between atoms: C_13  and  C_14 
REMARK       I    between atoms: C_14  and  N_15 
REMARK    5  A    between atoms: N_15  and  N_16 
REMARK       I    between atoms: N_16  and  C_17 
REMARK    6  A    between atoms: C_17  and  C_18 
REMARK    7  A    between atoms: C_18  and  N_19 
REMARK       I    between atoms: N_19  and  C_20 
REMARK    8  A    between atoms: C_20  and  C_21 
ROOT
HETATM    1  C   UNL     1      41.087  -7.972  13.166  1.00  0.00     0.023 A 
HETATM    2  C   UNL     1      41.068  -8.570  14.427  1.00  0.00     0.044 A 
HETATM    3  C   UNL     1      40.321  -7.977  15.497  1.00  0.00     0.099 C 
HETATM    4  N   UNL     1      39.716  -7.496  16.363  1.00  0.00    -0.191 NA
HETATM    5  C   UNL     1      41.785  -9.750  14.639  1.00  0.00     0.023 A 
HETATM    6  C   UNL     1      42.516 -10.326  13.593  1.00  0.00     0.014 A 
HETATM    7  C   UNL     1      42.547  -9.740  12.316  1.00  0.00    -0.026 A 
HETATM    8  C   UNL     1      41.818  -8.553  12.123  1.00  0.00     0.014 A 
ENDROOT
BRANCH   7   9
HETATM    9  C   UNL     1      43.321 -10.347  11.215  1.00  0.00    -0.026 A 
HETATM   10  C   UNL     1      42.759 -10.537   9.944  1.00  0.00     0.015 A 
HETATM   11  C   UNL     1      43.496 -11.117   8.905  1.00  0.00     0.037 A 
HETATM   12  C   UNL     1      44.818 -11.513   9.105  1.00  0.00     0.069 A 
HETATM   13  C   UNL     1      45.393 -11.335  10.362  1.00  0.00     0.037 A 
HETATM   14  C   UNL     1      44.650 -10.760  11.403  1.00  0.00     0.015 A 
BRANCH  12  15
HETATM   15  O   UNL     1      45.427 -12.069   8.013  1.00  0.00    -0.342 OA
BRANCH  15  16
HETATM   16  C   UNL     1      45.419 -13.491   7.937  1.00  0.00     0.280 C 
BRANCH  16  17
HETATM   17  C   UNL     1      44.354 -14.012   6.977  1.00  0.00     0.260 C 
HETATM   18  N   UNL     1      43.594 -15.059   7.461  1.00  0.00    -0.266 N 
HETATM   19  H   UNL     1      43.919 -15.573   8.282  1.00  0.00     0.190 HD
HETATM   20  O   UNL     1      44.209 -13.550   5.844  1.00  0.00    -0.269 OA
BRANCH  18  21
HETATM   21  N   UNL     1      42.818 -15.775   6.539  1.00  0.00    -0.266 N 
HETATM   22  C   UNL     1      42.554 -17.105   6.800  1.00  0.00     0.253 C 
HETATM   23  O   UNL     1      42.711 -17.616   7.910  1.00  0.00    -0.270 OA
HETATM   24  H   UNL     1      42.727 -15.379   5.602  1.00  0.00     0.190 HD
BRANCH  22  25
HETATM   25  C   UNL     1      41.947 -17.865   5.625  1.00  0.00     0.227 C 
BRANCH  25  26
HETATM   26  N   UNL     1      42.988 -18.340   4.737  1.00  0.00    -0.352 N 
HETATM   27  C   UNL     1      43.683 -19.493   5.031  1.00  0.00     0.222 C 
HETATM   28  O   UNL     1      43.429 -20.168   6.023  1.00  0.00    -0.273 OA
HETATM   29  H   UNL     1      43.396 -17.672   4.093  1.00  0.00     0.162 HD
BRANCH  27  30
HETATM   30  C   UNL     1      44.797 -19.821   4.031  1.00  0.00     0.078 C 
HETATM   31  C   UNL     1      45.343 -21.245   4.213  1.00  0.00     0.014 C 
HETATM   32  C   UNL     1      44.415 -22.328   3.662  1.00  0.00     0.001 C 
HETATM   33  C   UNL     1      44.004 -22.050   2.221  1.00  0.00     0.000 C 
HETATM   34  C   UNL     1      43.402 -20.658   2.071  1.00  0.00     0.001 C 
HETATM   35  C   UNL     1      44.354 -19.578   2.581  1.00  0.00     0.014 C 
ENDBRANCH  27  30
ENDBRANCH  25  26
ENDBRANCH  22  25
ENDBRANCH  18  21
ENDBRANCH  16  17
ENDBRANCH  15  16
ENDBRANCH  12  15
ENDBRANCH   7   9
TORSDOF 8
ENDMDL
MODEL 5
REMARK VINA RESULT:      -8.9      1.812      2.652
REMARK  8 active torsions:
REMARK  status: ('A' for Active; 'I' for Inactive)
REMARK    1  A    between atoms: C_7  and  C_8 
REMARK    2  A    between atoms: C_11  and  O_12 
REMARK    3  A    between atoms: O_12  and  C_13 
REMARK    4  A    between atoms: C_13  and  C_14 
REMARK       I    between atoms: C_14  and  N_15 
REMARK    5  A    between atoms: N_15  and  N_16 
REMARK       I    between atoms: N_16  and  C_17 
REMARK    6  A    between atoms: C_17  and  C_18 
REMARK    7  A    between atoms: C_18  and  N_19 
REMARK       I    between atoms: N_19  and  C_20 
REMARK    8  A    between atoms: C_20  and  C_21 
ROOT
HETATM    1  C   UNL     1      44.356 -19.647   4.022  1.00  0.00     0.023 A 
HETATM    2  C   UNL     1      44.109 -20.101   2.724  1.00  0.00     0.044 A 
HETATM    3  C   UNL     1      44.429 -21.450   2.358  1.00  0.00     0.099 C 
HETATM    4  N   UNL     1      44.688 -22.542   2.063  1.00  0.00    -0.191 NA
HETATM    5  C   UNL     1      43.550 -19.231   1.786  1.00  0.00     0.023 A 
HETATM    6  C   UNL     1      43.241 -17.914   2.145  1.00  0.00     0.014 A 
HETATM    7  C   UNL     1      43.480 -17.437   3.445  1.00  0.00    -0.026 A 
HETATM    8  C   UNL     1      44.042 -18.329   4.376  1.00  0.00     0.014 A 
ENDROOT
BRANCH   7   9
HETATM    9  C   UNL     1      43.157 -16.047   3.821  1.00  0.00    -0.026 A 
HETATM   10  C   UNL     1      42.701 -15.725   5.109  1.00  0.00     0.015 A 
HETATM   11  C   UNL     1      42.391 -14.405   5.458  1.00  0.00     0.037 A 
HETATM   12  C   UNL     1      42.539 -13.370   4.535  1.00  0.00     0.069 A 
HETATM   13  C   UNL     1      42.987 -13.671   3.249  1.00  0.00     0.037 A 
HETATM   14  C   UNL     1      43.290 -14.995   2.900  1.00  0.00     0.015 A 
BRANCH  12  15
HETATM   15  O   UNL     1      42.199 -12.128   4.998  1.00  0.00    -0.342 OA
BRANCH  15  16
HETATM   16  C   UNL     1      40.834 -11.750   4.859  1.00  0.00     0.280 C 
BRANCH  16  17
HETATM   17  C   UNL     1      40.126 -11.635   6.205  1.00  0.00     0.260 C 
HETATM   18  N   UNL     1      39.860 -10.343   6.615  1.00  0.00    -0.266 N 
HETATM   19  H   UNL     1      40.339  -9.566   6.157  1.00  0.00     0.190 HD
HETATM   20  O   UNL     1      39.843 -12.623   6.884  1.00  0.00    -0.269 OA
BRANCH  18  21
HETATM   21  N   UNL     1      39.493 -10.152   7.955  1.00  0.00    -0.266 N 
HETATM   22  C   UNL     1      39.472  -8.863   8.450  1.00  0.00     0.253 C 
HETATM   23  O   UNL     1      39.473  -7.866   7.726  1.00  0.00    -0.270 OA
HETATM   24  H   UNL     1      39.539 -10.967   8.569  1.00  0.00     0.190 HD
BRANCH  22  25
HETATM   25  C   UNL     1      39.333  -8.777   9.966  1.00  0.00     0.227 C 
BRANCH  25  26
HETATM   26  N   UNL     1      40.610  -8.465  10.573  1.00  0.00    -0.352 N 
HETATM   27  C   UNL     1      41.470  -9.474  10.948  1.00  0.00     0.222 C 
HETATM   28  O   UNL     1      41.205 -10.656  10.755  1.00  0.00    -0.273 OA
HETATM   29  H   UNL     1      40.719  -7.548  10.991  1.00  0.00     0.162 HD
BRANCH  27  30
HETATM   30  C   UNL     1      42.746  -8.982  11.639  1.00  0.00     0.078 C 
HETATM   31  C   UNL     1      42.472  -7.833  12.621  1.00  0.00     0.014 C 
HETATM   32  C   UNL     1      41.839  -8.292  13.934  1.00  0.00     0.001 C 
HETATM   33  C   UNL     1      42.624  -9.427  14.582  1.00  0.00     0.000 C 
HETATM   34  C   UNL     1      42.828 -10.587  13.616  1.00  0.00     0.001 C 
HETATM   35  C   UNL     1      43.504 -10.128  12.325  1.00  0.00     0.014 C 
ENDBRANCH  27  30
ENDBRANCH  25  26
ENDBRANCH  22  25
ENDBRANCH  18  21
ENDBRANCH  16  17
ENDBRANCH  15  16
ENDBRANCH  12  15
ENDBRANCH   7   9
TORSDOF 8
ENDMDL
MODEL 6
REMARK VINA RESULT:      -8.8      2.745     11.481
REMARK  8 active torsions:
REMARK  status: ('A' for Active; 'I' for Inactive)
REMARK    1  A    between atoms: C_7  and  C_8 
REMARK    2  A    between atoms: C_11  and  O_12 
REMARK    3  A    between atoms: O_12  and  C_13 
REMARK    4  A    between atoms: C_13  and  C_14 
REMARK       I    between atoms: C_14  and  N_15 
REMARK    5  A    between atoms: N_15  and  N_16 
REMARK       I    between atoms: N_16  and  C_17 
REMARK    6  A    between atoms: C_17  and  C_18 
REMARK    7  A    between atoms: C_18  and  N_19 
REMARK       I    between atoms: N_19  and  C_20 
REMARK    8  A    between atoms: C_20  and  C_21 
ROOT
HETATM    1  C   UNL     1      41.368  -8.089  13.222  1.00  0.00     0.023 A 
HETATM    2  C   UNL     1      41.205  -8.679  14.477  1.00  0.00     0.044 A 
HETATM    3  C   UNL     1      40.515  -7.977  15.520  1.00  0.00     0.099 C 
HETATM    4  N   UNL     1      39.957  -7.409  16.364  1.00  0.00    -0.191 NA
HETATM    5  C   UNL     1      41.720  -9.956  14.709  1.00  0.00     0.023 A 
HETATM    6  C   UNL     1      42.395 -10.637  13.689  1.00  0.00     0.014 A 
HETATM    7  C   UNL     1      42.570 -10.062  12.419  1.00  0.00    -0.026 A 
HETATM    8  C   UNL     1      42.042  -8.776  12.205  1.00  0.00     0.014 A 
ENDROOT
BRANCH   7   9
HETATM    9  C   UNL     1      43.285 -10.780  11.346  1.00  0.00    -0.026 A 
HETATM   10  C   UNL     1      43.094 -10.456   9.994  1.00  0.00     0.015 A 
HETATM   11  C   UNL     1      43.771 -11.144   8.981  1.00  0.00     0.037 A 
HETATM   12  C   UNL     1      44.667 -12.168   9.291  1.00  0.00     0.069 A 
HETATM   13  C   UNL     1      44.868 -12.507  10.628  1.00  0.00     0.037 A 
HETATM   14  C   UNL     1      44.183 -11.820  11.641  1.00  0.00     0.015 A 
BRANCH  12  15
HETATM   15  O   UNL     1      45.261 -12.763   8.212  1.00  0.00    -0.342 OA
BRANCH  15  16
HETATM   16  C   UNL     1      44.610 -13.913   7.684  1.00  0.00     0.280 C 
BRANCH  16  17
HETATM   17  C   UNL     1      43.954 -13.638   6.333  1.00  0.00     0.260 C 
HETATM   18  N   UNL     1      42.640 -13.217   6.398  1.00  0.00    -0.266 N 
HETATM   19  H   UNL     1      42.118 -13.343   7.267  1.00  0.00     0.190 HD
HETATM   20  O   UNL     1      44.549 -13.809   5.268  1.00  0.00    -0.269 OA
BRANCH  18  21
HETATM   21  N   UNL     1      41.895 -13.238   5.211  1.00  0.00    -0.266 N 
HETATM   22  C   UNL     1      40.601 -13.717   5.259  1.00  0.00     0.253 C 
HETATM   23  O   UNL     1      39.974 -13.852   6.311  1.00  0.00    -0.270 OA
HETATM   24  H   UNL     1      42.417 -13.176   4.335  1.00  0.00     0.190 HD
BRANCH  22  25
HETATM   25  C   UNL     1      39.971 -13.958   3.891  1.00  0.00     0.227 C 
BRANCH  25  26
HETATM   26  N   UNL     1      40.135 -15.342   3.497  1.00  0.00    -0.352 N 
HETATM   27  C   UNL     1      41.270 -15.748   2.830  1.00  0.00     0.222 C 
HETATM   28  O   UNL     1      42.185 -14.972   2.577  1.00  0.00    -0.273 OA
HETATM   29  H   UNL     1      39.301 -15.915   3.438  1.00  0.00     0.162 HD
BRANCH  27  30
HETATM   30  C   UNL     1      41.259 -17.225   2.421  1.00  0.00     0.078 C 
HETATM   31  C   UNL     1      41.809 -17.442   1.003  1.00  0.00     0.014 C 
HETATM   32  C   UNL     1      43.332 -17.344   0.919  1.00  0.00     0.001 C 
HETATM   33  C   UNL     1      44.020 -18.236   1.945  1.00  0.00     0.000 C 
HETATM   34  C   UNL     1      43.512 -17.960   3.355  1.00  0.00     0.001 C 
HETATM   35  C   UNL     1      41.994 -18.106   3.441  1.00  0.00     0.014 C 
ENDBRANCH  27  30
ENDBRANCH  25  26
ENDBRANCH  22  25
ENDBRANCH  18  21
ENDBRANCH  16  17
ENDBRANCH  15  16
ENDBRANCH  12  15
ENDBRANCH   7   9
TORSDOF 8
ENDMDL
MODEL 7
REMARK VINA RESULT:      -8.6      5.556      9.333
REMARK  8 active torsions:
REMARK  status: ('A' for Active; 'I' for Inactive)
REMARK    1  A    between atoms: C_7  and  C_8 
REMARK    2  A    between atoms: C_11  and  O_12 
REMARK    3  A    between atoms: O_12  and  C_13 
REMARK    4  A    between atoms: C_13  and  C_14 
REMARK       I    between atoms: C_14  and  N_15 
REMARK    5  A    between atoms: N_15  and  N_16 
REMARK       I    between atoms: N_16  and  C_17 
REMARK    6  A    between atoms: C_17  and  C_18 
REMARK    7  A    between atoms: C_18  and  N_19 
REMARK       I    between atoms: N_19  and  C_20 
REMARK    8  A    between atoms: C_20  and  C_21 
ROOT
HETATM    1  C   UNL     1      44.037 -19.708   4.099  1.00  0.00     0.023 A 
HETATM    2  C   UNL     1      44.074 -20.161   2.778  1.00  0.00     0.044 A 
HETATM    3  C   UNL     1      44.405 -21.526   2.492  1.00  0.00     0.099 C 
HETATM    4  N   UNL     1      44.673 -22.631   2.261  1.00  0.00    -0.191 NA
HETATM    5  C   UNL     1      43.788 -19.274   1.738  1.00  0.00     0.023 A 
HETATM    6  C   UNL     1      43.468 -17.940   2.020  1.00  0.00     0.014 A 
HETATM    7  C   UNL     1      43.424 -17.464   3.342  1.00  0.00    -0.026 A 
HETATM    8  C   UNL     1      43.713 -18.374   4.375  1.00  0.00     0.014 A 
ENDROOT
BRANCH   7   9
HETATM    9  C   UNL     1      43.089 -16.057   3.637  1.00  0.00    -0.026 A 
HETATM   10  C   UNL     1      42.459 -15.691   4.836  1.00  0.00     0.015 A 
HETATM   11  C   UNL     1      42.140 -14.356   5.109  1.00  0.00     0.037 A 
HETATM   12  C   UNL     1      42.451 -13.348   4.195  1.00  0.00     0.069 A 
HETATM   13  C   UNL     1      43.074 -13.693   2.997  1.00  0.00     0.037 A 
HETATM   14  C   UNL     1      43.387 -15.032   2.724  1.00  0.00     0.015 A 
BRANCH  12  15
HETATM   15  O   UNL     1      42.084 -12.087   4.578  1.00  0.00    -0.342 OA
BRANCH  15  16
HETATM   16  C   UNL     1      40.686 -11.836   4.676  1.00  0.00     0.280 C 
BRANCH  16  17
HETATM   17  C   UNL     1      40.011 -11.780   3.308  1.00  0.00     0.260 C 
HETATM   18  N   UNL     1      39.201 -12.859   3.014  1.00  0.00    -0.266 N 
HETATM   19  H   UNL     1      39.279 -13.709   3.574  1.00  0.00     0.190 HD
HETATM   20  O   UNL     1      40.205 -10.854   2.519  1.00  0.00    -0.269 OA
BRANCH  18  21
HETATM   21  N   UNL     1      38.798 -13.020   1.681  1.00  0.00    -0.266 N 
HETATM   22  C   UNL     1      39.409 -14.002   0.927  1.00  0.00     0.253 C 
HETATM   23  O   UNL     1      40.067 -14.918   1.424  1.00  0.00    -0.270 OA
HETATM   24  H   UNL     1      38.296 -12.242   1.250  1.00  0.00     0.190 HD
BRANCH  22  25
HETATM   25  C   UNL     1      39.110 -13.923  -0.566  1.00  0.00     0.227 C 
BRANCH  25  26
HETATM   26  N   UNL     1      40.326 -13.672  -1.313  1.00  0.00    -0.352 N 
HETATM   27  C   UNL     1      40.390 -12.630  -2.212  1.00  0.00     0.222 C 
HETATM   28  O   UNL     1      39.445 -11.867  -2.388  1.00  0.00    -0.273 OA
HETATM   29  H   UNL     1      40.991 -14.432  -1.396  1.00  0.00     0.162 HD
BRANCH  27  30
HETATM   30  C   UNL     1      41.718 -12.541  -2.971  1.00  0.00     0.078 C 
HETATM   31  C   UNL     1      41.786 -11.309  -3.885  1.00  0.00     0.014 C 
HETATM   32  C   UNL     1      42.035 -10.003  -3.132  1.00  0.00     0.001 C 
HETATM   33  C   UNL     1      43.241 -10.098  -2.205  1.00  0.00     0.000 C 
HETATM   34  C   UNL     1      43.125 -11.285  -1.257  1.00  0.00     0.001 C 
HETATM   35  C   UNL     1      42.924 -12.593  -2.021  1.00  0.00     0.014 C 
ENDBRANCH  27  30
ENDBRANCH  25  26
ENDBRANCH  22  25
ENDBRANCH  18  21
ENDBRANCH  16  17
ENDBRANCH  15  16
ENDBRANCH  12  15
ENDBRANCH   7   9
TORSDOF 8
ENDMDL
MODEL 8
REMARK VINA RESULT:      -8.3      6.100      9.582
REMARK  8 active torsions:
REMARK  status: ('A' for Active; 'I' for Inactive)
REMARK    1  A    between atoms: C_7  and  C_8 
REMARK    2  A    between atoms: C_11  and  O_12 
REMARK    3  A    between atoms: O_12  and  C_13 
REMARK    4  A    between atoms: C_13  and  C_14 
REMARK       I    between atoms: C_14  and  N_15 
REMARK    5  A    between atoms: N_15  and  N_16 
REMARK       I    between atoms: N_16  and  C_17 
REMARK    6  A    between atoms: C_17  and  C_18 
REMARK    7  A    between atoms: C_18  and  N_19 
REMARK       I    between atoms: N_19  and  C_20 
REMARK    8  A    between atoms: C_20  and  C_21 
ROOT
HETATM    1  C   UNL     1      44.269 -19.975   4.557  1.00  0.00     0.023 A 
HETATM    2  C   UNL     1      44.052 -20.607   3.331  1.00  0.00     0.044 A 
HETATM    3  C   UNL     1      44.520 -21.944   3.115  1.00  0.00     0.099 C 
HETATM    4  N   UNL     1      44.899 -23.027   2.940  1.00  0.00    -0.191 NA
HETATM    5  C   UNL     1      43.377 -19.925   2.316  1.00  0.00     0.023 A 
HETATM    6  C   UNL     1      42.923 -18.618   2.529  1.00  0.00     0.014 A 
HETATM    7  C   UNL     1      43.131 -17.964   3.756  1.00  0.00    -0.026 A 
HETATM    8  C   UNL     1      43.811 -18.669   4.765  1.00  0.00     0.014 A 
ENDROOT
BRANCH   7   9
HETATM    9  C   UNL     1      42.654 -16.585   3.978  1.00  0.00    -0.026 A 
HETATM   10  C   UNL     1      43.431 -15.475   3.610  1.00  0.00     0.015 A 
HETATM   11  C   UNL     1      42.976 -14.169   3.826  1.00  0.00     0.037 A 
HETATM   12  C   UNL     1      41.728 -13.936   4.406  1.00  0.00     0.069 A 
HETATM   13  C   UNL     1      40.944 -15.026   4.781  1.00  0.00     0.037 A 
HETATM   14  C   UNL     1      41.405 -16.333   4.569  1.00  0.00     0.015 A 
BRANCH  12  15
HETATM   15  O   UNL     1      41.402 -12.617   4.567  1.00  0.00    -0.342 OA
BRANCH  15  16
HETATM   16  C   UNL     1      40.284 -12.145   3.823  1.00  0.00     0.280 C 
BRANCH  16  17
HETATM   17  C   UNL     1      40.485 -12.299   2.318  1.00  0.00     0.260 C 
HETATM   18  N   UNL     1      39.632 -13.195   1.705  1.00  0.00    -0.266 N 
HETATM   19  H   UNL     1      39.110 -13.859   2.279  1.00  0.00     0.190 HD
HETATM   20  O   UNL     1      41.364 -11.689   1.708  1.00  0.00    -0.269 OA
BRANCH  18  21
HETATM   21  N   UNL     1      39.952 -13.607   0.404  1.00  0.00    -0.266 N 
HETATM   22  C   UNL     1      40.491 -14.866   0.230  1.00  0.00     0.253 C 
HETATM   23  O   UNL     1      40.440 -15.743   1.094  1.00  0.00    -0.270 OA
HETATM   24  H   UNL     1      40.044 -12.876  -0.304  1.00  0.00     0.190 HD
BRANCH  22  25
HETATM   25  C   UNL     1      41.058 -15.118  -1.163  1.00  0.00     0.227 C 
BRANCH  25  26
HETATM   26  N   UNL     1      41.880 -14.002  -1.584  1.00  0.00    -0.352 N 
HETATM   27  C   UNL     1      41.703 -13.434  -2.827  1.00  0.00     0.222 C 
HETATM   28  O   UNL     1      40.834 -13.826  -3.600  1.00  0.00    -0.273 OA
HETATM   29  H   UNL     1      42.759 -13.859  -1.101  1.00  0.00     0.162 HD
BRANCH  27  30
HETATM   30  C   UNL     1      42.696 -12.313  -3.148  1.00  0.00     0.078 C 
HETATM   31  C   UNL     1      42.217 -11.423  -4.305  1.00  0.00     0.014 C 
HETATM   32  C   UNL     1      41.113 -10.444  -3.905  1.00  0.00     0.001 C 
HETATM   33  C   UNL     1      41.490  -9.631  -2.672  1.00  0.00     0.000 C 
HETATM   34  C   UNL     1      41.897 -10.531  -1.511  1.00  0.00     0.001 C 
HETATM   35  C   UNL     1      43.032 -11.474  -1.907  1.00  0.00     0.014 C 
ENDBRANCH  27  30
ENDBRANCH  25  26
ENDBRANCH  22  25
ENDBRANCH  18  21
ENDBRANCH  16  17
ENDBRANCH  15  16
ENDBRANCH  12  15
ENDBRANCH   7   9
TORSDOF 8
ENDMDL
MODEL 9
REMARK VINA RESULT:      -8.2      2.890     11.064
REMARK  8 active torsions:
REMARK  status: ('A' for Active; 'I' for Inactive)
REMARK    1  A    between atoms: C_7  and  C_8 
REMARK    2  A    between atoms: C_11  and  O_12 
REMARK    3  A    between atoms: O_12  and  C_13 
REMARK    4  A    between atoms: C_13  and  C_14 
REMARK       I    between atoms: C_14  and  N_15 
REMARK    5  A    between atoms: N_15  and  N_16 
REMARK       I    between atoms: N_16  and  C_17 
REMARK    6  A    between atoms: C_17  and  C_18 
REMARK    7  A    between atoms: C_18  and  N_19 
REMARK       I    between atoms: N_19  and  C_20 
REMARK    8  A    between atoms: C_20  and  C_21 
ROOT
HETATM    1  C   UNL     1      42.664 -10.668  12.513  1.00  0.00     0.023 A 
HETATM    2  C   UNL     1      41.686 -10.059  13.302  1.00  0.00     0.044 A 
HETATM    3  C   UNL     1      41.922  -9.831  14.698  1.00  0.00     0.099 C 
HETATM    4  N   UNL     1      42.114  -9.647  15.827  1.00  0.00    -0.191 NA
HETATM    5  C   UNL     1      40.475  -9.675  12.722  1.00  0.00     0.023 A 
HETATM    6  C   UNL     1      40.246  -9.902  11.359  1.00  0.00     0.014 A 
HETATM    7  C   UNL     1      41.218 -10.512  10.548  1.00  0.00    -0.026 A 
HETATM    8  C   UNL     1      42.431 -10.890  11.151  1.00  0.00     0.014 A 
ENDROOT
BRANCH   7   9
HETATM    9  C   UNL     1      40.973 -10.753   9.112  1.00  0.00    -0.026 A 
HETATM   10  C   UNL     1      42.011 -10.679   8.171  1.00  0.00     0.015 A 
HETATM   11  C   UNL     1      41.772 -10.904   6.810  1.00  0.00     0.037 A 
HETATM   12  C   UNL     1      40.492 -11.219   6.354  1.00  0.00     0.069 A 
HETATM   13  C   UNL     1      39.447 -11.293   7.273  1.00  0.00     0.037 A 
HETATM   14  C   UNL     1      39.688 -11.061   8.635  1.00  0.00     0.015 A 
BRANCH  12  15
HETATM   15  O   UNL     1      40.390 -11.411   5.003  1.00  0.00    -0.342 OA
BRANCH  15  16
HETATM   16  C   UNL     1      41.519 -11.990   4.358  1.00  0.00     0.280 C 
BRANCH  16  17
HETATM   17  C   UNL     1      41.292 -13.457   4.002  1.00  0.00     0.260 C 
HETATM   18  N   UNL     1      40.240 -14.061   4.661  1.00  0.00    -0.266 N 
HETATM   19  H   UNL     1      39.844 -13.610   5.488  1.00  0.00     0.190 HD
HETATM   20  O   UNL     1      42.016 -14.059   3.207  1.00  0.00    -0.269 OA
BRANCH  18  21
HETATM   21  N   UNL     1      40.164 -15.460   4.614  1.00  0.00    -0.266 N 
HETATM   22  C   UNL     1      41.059 -16.189   5.370  1.00  0.00     0.253 C 
HETATM   23  O   UNL     1      41.717 -15.700   6.289  1.00  0.00    -0.270 OA
HETATM   24  H   UNL     1      39.661 -15.870   3.825  1.00  0.00     0.190 HD
BRANCH  22  25
HETATM   25  C   UNL     1      41.083 -17.680   5.046  1.00  0.00     0.227 C 
BRANCH  25  26
HETATM   26  N   UNL     1      42.254 -18.007   4.260  1.00  0.00    -0.352 N 
HETATM   27  C   UNL     1      43.220 -18.851   4.764  1.00  0.00     0.222 C 
HETATM   28  O   UNL     1      43.110 -19.374   5.869  1.00  0.00    -0.273 OA
HETATM   29  H   UNL     1      42.497 -17.385   3.498  1.00  0.00     0.162 HD
BRANCH  27  30
HETATM   30  C   UNL     1      44.427 -19.041   3.840  1.00  0.00     0.078 C 
HETATM   31  C   UNL     1      45.250 -20.287   4.204  1.00  0.00     0.014 C 
HETATM   32  C   UNL     1      44.600 -21.597   3.761  1.00  0.00     0.001 C 
HETATM   33  C   UNL     1      44.212 -21.574   2.288  1.00  0.00     0.000 C 
HETATM   34  C   UNL     1      43.340 -20.370   1.957  1.00  0.00     0.001 C 
HETATM   35  C   UNL     1      44.017 -19.061   2.360  1.00  0.00     0.014 C 
ENDBRANCH  27  30
ENDBRANCH  25  26
ENDBRANCH  22  25
ENDBRANCH  18  21
ENDBRANCH  16  17
ENDBRANCH  15  16
ENDBRANCH  12  15
ENDBRANCH   7   9
TORSDOF 8
ENDMDL
MODEL 10
REMARK VINA RESULT:      -8.2      1.472      1.916
REMARK  8 active torsions:
REMARK  status: ('A' for Active; 'I' for Inactive)
REMARK    1  A    between atoms: C_7  and  C_8 
REMARK    2  A    between atoms: C_11  and  O_12 
REMARK    3  A    between atoms: O_12  and  C_13 
REMARK    4  A    between atoms: C_13  and  C_14 
REMARK       I    between atoms: C_14  and  N_15 
REMARK    5  A    between atoms: N_15  and  N_16 
REMARK       I    between atoms: N_16  and  C_17 
REMARK    6  A    between atoms: C_17  and  C_18 
REMARK    7  A    between atoms: C_18  and  N_19 
REMARK       I    between atoms: N_19  and  C_20 
REMARK    8  A    between atoms: C_20  and  C_21 
ROOT
HETATM    1  C   UNL     1      43.944 -19.847   6.082  1.00  0.00     0.023 A 
HETATM    2  C   UNL     1      44.415 -20.484   4.931  1.00  0.00     0.044 A 
HETATM    3  C   UNL     1      44.992 -21.793   5.016  1.00  0.00     0.099 C 
HETATM    4  N   UNL     1      45.460 -22.853   5.085  1.00  0.00    -0.191 NA
HETATM    5  C   UNL     1      44.320 -19.835   3.698  1.00  0.00     0.023 A 
HETATM    6  C   UNL     1      43.758 -18.555   3.619  1.00  0.00     0.014 A 
HETATM    7  C   UNL     1      43.277 -17.897   4.765  1.00  0.00    -0.026 A 
HETATM    8  C   UNL     1      43.381 -18.568   5.996  1.00  0.00     0.014 A 
ENDROOT
BRANCH   7   9
HETATM    9  C   UNL     1      42.688 -16.546   4.679  1.00  0.00    -0.026 A 
HETATM   10  C   UNL     1      43.476 -15.421   4.393  1.00  0.00     0.015 A 
HETATM   11  C   UNL     1      42.912 -14.143   4.318  1.00  0.00     0.037 A 
HETATM   12  C   UNL     1      41.544 -13.954   4.516  1.00  0.00     0.069 A 
HETATM   13  C   UNL     1      40.745 -15.060   4.805  1.00  0.00     0.037 A 
HETATM   14  C   UNL     1      41.314 -16.339   4.886  1.00  0.00     0.015 A 
BRANCH  12  15
HETATM   15  O   UNL     1      41.119 -12.657   4.420  1.00  0.00    -0.342 OA
BRANCH  15  16
HETATM   16  C   UNL     1      40.382 -12.148   5.526  1.00  0.00     0.280 C 
BRANCH  16  17
HETATM   17  C   UNL     1      41.288 -11.541   6.594  1.00  0.00     0.260 C 
HETATM   18  N   UNL     1      42.385 -12.308   6.933  1.00  0.00    -0.266 N 
HETATM   19  H   UNL     1      42.407 -13.293   6.662  1.00  0.00     0.190 HD
HETATM   20  O   UNL     1      41.037 -10.460   7.130  1.00  0.00    -0.269 OA
BRANCH  18  21
HETATM   21  N   UNL     1      43.080 -11.963   8.100  1.00  0.00    -0.266 N 
HETATM   22  C   UNL     1      44.192 -12.706   8.443  1.00  0.00     0.253 C 
HETATM   23  O   UNL     1      44.770 -13.453   7.652  1.00  0.00    -0.270 OA
HETATM   24  H   UNL     1      42.585 -11.384   8.781  1.00  0.00     0.190 HD
BRANCH  22  25
HETATM   25  C   UNL     1      44.714 -12.439   9.851  1.00  0.00     0.227 C 
BRANCH  25  26
HETATM   26  N   UNL     1      43.617 -12.140  10.748  1.00  0.00    -0.352 N 
HETATM   27  C   UNL     1      43.710 -11.095  11.641  1.00  0.00     0.222 C 
HETATM   28  O   UNL     1      44.698 -10.368  11.687  1.00  0.00    -0.273 OA
HETATM   29  H   UNL     1      42.940 -12.874  10.923  1.00  0.00     0.162 HD
BRANCH  27  30
HETATM   30  C   UNL     1      42.497 -10.954  12.566  1.00  0.00     0.078 C 
HETATM   31  C   UNL     1      42.501  -9.624  13.335  1.00  0.00     0.014 C 
HETATM   32  C   UNL     1      42.092  -8.425  12.480  1.00  0.00     0.001 C 
HETATM   33  C   UNL     1      40.775  -8.664  11.752  1.00  0.00     0.000 C 
HETATM   34  C   UNL     1      40.812  -9.952  10.939  1.00  0.00     0.001 C 
HETATM   35  C   UNL     1      41.175 -11.153  11.811  1.00  0.00     0.014 C 
ENDBRANCH  27  30
ENDBRANCH  25  26
ENDBRANCH  22  25
ENDBRANCH  18  21
ENDBRANCH  16  17
ENDBRANCH  15  16
ENDBRANCH  12  15
ENDBRANCH   7   9
TORSDOF 8
ENDMDL
