MODEL 1
REMARK VINA RESULT:      -7.6      0.000      0.000
REMARK  8 active torsions:
REMARK  status: ('A' for Active; 'I' for Inactive)
REMARK    1  A    between atoms: C_2  and  N_3 
REMARK    2  A    between atoms: C_2  and  C_17 
REMARK    3  A    between atoms: N_3  and  N_4 
REMARK       I    between atoms: N_4  and  C_5 
REMARK    4  A    between atoms: C_5  and  C_6 
REMARK    5  A    between atoms: C_6  and  N_7 
REMARK    6  A    between atoms: N_7  and  C_8 
REMARK    7  A    between atoms: C_9  and  O_10 
REMARK       I    between atoms: C_17  and  N_18 
REMARK    8  A    between atoms: N_18  and  C_19 
ROOT
HETATM    1  N   UNL     1      39.642 -15.332   1.298  1.00  0.00    -0.225 NA
HETATM    2  H   UNL     1      39.044 -16.122   1.017  1.00  0.00     0.147 HD
ENDROOT
BRANCH   1   3
HETATM    3  C   UNL     1      41.016 -15.677   0.826  1.00  0.00     0.165 C 
HETATM    4  C   UNL     1      41.162 -15.672  -0.694  1.00  0.00     0.038 C 
BRANCH   3   5
HETATM    5  C   UNL     1      41.375 -17.094   1.348  1.00  0.00     0.241 C 
HETATM    6  N   UNL     1      42.617 -17.140   1.962  1.00  0.00    -0.326 N 
HETATM    7  H   UNL     1      43.114 -16.253   1.940  1.00  0.00     0.169 HD
HETATM    8  O   UNL     1      40.591 -18.032   1.234  1.00  0.00    -0.271 OA
BRANCH   6   9
HETATM    9  C   UNL     1      43.280 -18.243   2.527  1.00  0.00     0.036 A 
HETATM   10  C   UNL     1      43.504 -19.446   1.856  1.00  0.00     0.053 A 
HETATM   11  C   UNL     1      44.181 -20.484   2.499  1.00  0.00     0.036 A 
HETATM   12 CL   UNL     1      44.446 -21.973   1.673  1.00  0.00    -0.084 Cl
HETATM   13  C   UNL     1      44.645 -20.337   3.805  1.00  0.00     0.024 A 
HETATM   14  C   UNL     1      44.423 -19.140   4.480  1.00  0.00     0.004 A 
HETATM   15  C   UNL     1      43.738 -18.101   3.845  1.00  0.00     0.029 A 
ENDBRANCH   6   9
ENDBRANCH   3   5
ENDBRANCH   1   3
BRANCH   1  16
HETATM   16  N   UNL     1      39.550 -15.243   2.710  1.00  0.00    -0.290 N 
HETATM   17  C   UNL     1      39.865 -14.044   3.345  1.00  0.00     0.245 C 
HETATM   18  O   UNL     1      39.960 -12.966   2.762  1.00  0.00    -0.271 OA
HETATM   19  H   UNL     1      39.777 -16.074   3.269  1.00  0.00     0.183 HD
BRANCH  17  20
HETATM   20  C   UNL     1      40.074 -14.212   4.854  1.00  0.00     0.196 C 
BRANCH  20  21
HETATM   21  N   UNL     1      41.508 -14.244   5.196  1.00  0.00    -0.282 NA
HETATM   22  H   UNL     1      42.116 -14.077   4.390  1.00  0.00     0.128 HD
BRANCH  21  23
HETATM   23  C   UNL     1      42.026 -15.357   5.899  1.00  0.00     0.042 A 
HETATM   24  C   UNL     1      43.319 -15.251   6.470  1.00  0.00     0.089 A 
HETATM   25  C   UNL     1      43.835 -16.289   7.254  1.00  0.00     0.038 A 
HETATM   26  C   UNL     1      43.070 -17.429   7.499  1.00  0.00     0.003 A 
HETATM   27  C   UNL     1      41.789 -17.533   6.969  1.00  0.00     0.002 A 
HETATM   28  C   UNL     1      41.268 -16.502   6.185  1.00  0.00     0.026 A 
BRANCH  24  29
HETATM   29  O   UNL     1      43.996 -14.090   6.165  1.00  0.00    -0.354 OA
HETATM   30  C   UNL     1      44.945 -13.629   7.120  1.00  0.00     0.210 C 
ENDBRANCH  24  29
ENDBRANCH  21  23
ENDBRANCH  20  21
ENDBRANCH  17  20
ENDBRANCH   1  16
TORSDOF 8
ENDMDL
MODEL 2
REMARK VINA RESULT:      -7.5      5.277      9.333
REMARK  8 active torsions:
REMARK  status: ('A' for Active; 'I' for Inactive)
REMARK    1  A    between atoms: C_2  and  N_3 
REMARK    2  A    between atoms: C_2  and  C_17 
REMARK    3  A    between atoms: N_3  and  N_4 
REMARK       I    between atoms: N_4  and  C_5 
REMARK    4  A    between atoms: C_5  and  C_6 
REMARK    5  A    between atoms: C_6  and  N_7 
REMARK    6  A    between atoms: N_7  and  C_8 
REMARK    7  A    between atoms: C_9  and  O_10 
REMARK       I    between atoms: C_17  and  N_18 
REMARK    8  A    between atoms: N_18  and  C_19 
ROOT
HETATM    1  N   UNL     1      44.228 -13.929   8.343  1.00  0.00    -0.225 NA
HETATM    2  H   UNL     1      43.431 -13.860   8.993  1.00  0.00     0.147 HD
ENDROOT
BRANCH   1   3
HETATM    3  C   UNL     1      44.746 -12.537   8.191  1.00  0.00     0.165 C 
HETATM    4  C   UNL     1      46.146 -12.339   8.766  1.00  0.00     0.038 C 
BRANCH   3   5
HETATM    5  C   UNL     1      43.776 -11.567   8.916  1.00  0.00     0.241 C 
HETATM    6  N   UNL     1      43.856 -11.664  10.297  1.00  0.00    -0.326 N 
HETATM    7  H   UNL     1      44.503 -12.379  10.618  1.00  0.00     0.169 HD
HETATM    8  O   UNL     1      43.061 -10.793   8.287  1.00  0.00    -0.271 OA
BRANCH   6   9
HETATM    9  C   UNL     1      43.121 -10.969  11.273  1.00  0.00     0.036 A 
HETATM   10  C   UNL     1      41.727 -10.940  11.326  1.00  0.00     0.053 A 
HETATM   11  C   UNL     1      41.084 -10.226  12.340  1.00  0.00     0.036 A 
HETATM   12 CL   UNL     1      39.363 -10.183  12.397  1.00  0.00    -0.084 Cl
HETATM   13  C   UNL     1      41.816  -9.543  13.309  1.00  0.00     0.024 A 
HETATM   14  C   UNL     1      43.207  -9.566  13.260  1.00  0.00     0.004 A 
HETATM   15  C   UNL     1      43.855 -10.271  12.242  1.00  0.00     0.029 A 
ENDBRANCH   6   9
ENDBRANCH   3   5
ENDBRANCH   1   3
BRANCH   1  16
HETATM   16  N   UNL     1      43.712 -14.460   7.134  1.00  0.00    -0.290 N 
HETATM   17  C   UNL     1      43.549 -15.837   7.003  1.00  0.00     0.245 C 
HETATM   18  O   UNL     1      43.563 -16.621   7.950  1.00  0.00    -0.271 OA
HETATM   19  H   UNL     1      43.947 -13.990   6.252  1.00  0.00     0.183 HD
BRANCH  17  20
HETATM   20  C   UNL     1      43.343 -16.271   5.547  1.00  0.00     0.196 C 
BRANCH  20  21
HETATM   21  N   UNL     1      42.903 -17.676   5.464  1.00  0.00    -0.282 NA
HETATM   22  H   UNL     1      42.903 -18.150   6.371  1.00  0.00     0.128 HD
BRANCH  21  23
HETATM   23  C   UNL     1      43.523 -18.540   4.530  1.00  0.00     0.042 A 
HETATM   24  C   UNL     1      44.225 -19.670   5.021  1.00  0.00     0.089 A 
HETATM   25  C   UNL     1      44.772 -20.604   4.135  1.00  0.00     0.038 A 
HETATM   26  C   UNL     1      44.612 -20.442   2.759  1.00  0.00     0.003 A 
HETATM   27  C   UNL     1      43.902 -19.354   2.265  1.00  0.00     0.002 A 
HETATM   28  C   UNL     1      43.353 -18.417   3.144  1.00  0.00     0.026 A 
BRANCH  24  29
HETATM   29  O   UNL     1      44.333 -19.736   6.393  1.00  0.00    -0.354 OA
HETATM   30  C   UNL     1      43.712 -20.844   7.034  1.00  0.00     0.210 C 
ENDBRANCH  24  29
ENDBRANCH  21  23
ENDBRANCH  20  21
ENDBRANCH  17  20
ENDBRANCH   1  16
TORSDOF 8
ENDMDL
MODEL 3
REMARK VINA RESULT:      -7.4      3.692      5.999
REMARK  8 active torsions:
REMARK  status: ('A' for Active; 'I' for Inactive)
REMARK    1  A    between atoms: C_2  and  N_3 
REMARK    2  A    between atoms: C_2  and  C_17 
REMARK    3  A    between atoms: N_3  and  N_4 
REMARK       I    between atoms: N_4  and  C_5 
REMARK    4  A    between atoms: C_5  and  C_6 
REMARK    5  A    between atoms: C_6  and  N_7 
REMARK    6  A    between atoms: N_7  and  C_8 
REMARK    7  A    between atoms: C_9  and  O_10 
REMARK       I    between atoms: C_17  and  N_18 
REMARK    8  A    between atoms: N_18  and  C_19 
ROOT
HETATM    1  N   UNL     1      44.274 -15.440   6.943  1.00  0.00    -0.225 NA
HETATM    2  H   UNL     1      44.150 -15.161   5.958  1.00  0.00     0.147 HD
ENDROOT
BRANCH   1   3
HETATM    3  C   UNL     1      43.167 -16.399   7.233  1.00  0.00     0.165 C 
HETATM    4  C   UNL     1      43.528 -17.451   8.279  1.00  0.00     0.038 C 
BRANCH   3   5
HETATM    5  C   UNL     1      42.788 -17.127   5.916  1.00  0.00     0.241 C 
HETATM    6  N   UNL     1      43.872 -17.748   5.316  1.00  0.00    -0.326 N 
HETATM    7  H   UNL     1      44.750 -17.597   5.806  1.00  0.00     0.169 HD
HETATM    8  O   UNL     1      41.629 -17.150   5.512  1.00  0.00    -0.271 OA
BRANCH   6   9
HETATM    9  C   UNL     1      43.917 -18.474   4.113  1.00  0.00     0.036 A 
HETATM   10  C   UNL     1      44.161 -19.846   4.039  1.00  0.00     0.053 A 
HETATM   11  C   UNL     1      44.178 -20.483   2.796  1.00  0.00     0.036 A 
HETATM   12 CL   UNL     1      44.490 -22.175   2.706  1.00  0.00    -0.084 Cl
HETATM   13  C   UNL     1      43.949 -19.768   1.622  1.00  0.00     0.024 A 
HETATM   14  C   UNL     1      43.708 -18.398   1.689  1.00  0.00     0.004 A 
HETATM   15  C   UNL     1      43.699 -17.755   2.929  1.00  0.00     0.029 A 
ENDBRANCH   6   9
ENDBRANCH   3   5
ENDBRANCH   1   3
BRANCH   1  16
HETATM   16  N   UNL     1      44.186 -14.250   7.709  1.00  0.00    -0.290 N 
HETATM   17  C   UNL     1      45.209 -13.307   7.633  1.00  0.00     0.245 C 
HETATM   18  O   UNL     1      46.063 -13.294   6.748  1.00  0.00    -0.271 OA
HETATM   19  H   UNL     1      43.736 -14.292   8.631  1.00  0.00     0.183 HD
BRANCH  17  20
HETATM   20  C   UNL     1      45.152 -12.282   8.771  1.00  0.00     0.196 C 
BRANCH  20  21
HETATM   21  N   UNL     1      43.779 -12.124   9.283  1.00  0.00    -0.282 NA
HETATM   22  H   UNL     1      43.077 -12.079   8.538  1.00  0.00     0.128 HD
BRANCH  21  23
HETATM   23  C   UNL     1      43.498 -11.083  10.198  1.00  0.00     0.042 A 
HETATM   24  C   UNL     1      42.396 -10.232   9.933  1.00  0.00     0.089 A 
HETATM   25  C   UNL     1      42.021  -9.249  10.856  1.00  0.00     0.038 A 
HETATM   26  C   UNL     1      42.716  -9.115  12.058  1.00  0.00     0.003 A 
HETATM   27  C   UNL     1      43.780  -9.963  12.343  1.00  0.00     0.002 A 
HETATM   28  C   UNL     1      44.161 -10.945  11.426  1.00  0.00     0.026 A 
BRANCH  24  29
HETATM   29  O   UNL     1      41.780 -10.440   8.719  1.00  0.00    -0.354 OA
HETATM   30  C   UNL     1      40.381 -10.698   8.743  1.00  0.00     0.210 C 
ENDBRANCH  24  29
ENDBRANCH  21  23
ENDBRANCH  20  21
ENDBRANCH  17  20
ENDBRANCH   1  16
TORSDOF 8
ENDMDL
MODEL 4
REMARK VINA RESULT:      -7.4      1.962      5.426
REMARK  8 active torsions:
REMARK  status: ('A' for Active; 'I' for Inactive)
REMARK    1  A    between atoms: C_2  and  N_3 
REMARK    2  A    between atoms: C_2  and  C_17 
REMARK    3  A    between atoms: N_3  and  N_4 
REMARK       I    between atoms: N_4  and  C_5 
REMARK    4  A    between atoms: C_5  and  C_6 
REMARK    5  A    between atoms: C_6  and  N_7 
REMARK    6  A    between atoms: N_7  and  C_8 
REMARK    7  A    between atoms: C_9  and  O_10 
REMARK       I    between atoms: C_17  and  N_18 
REMARK    8  A    between atoms: N_18  and  C_19 
ROOT
HETATM    1  N   UNL     1      42.429 -16.484   7.286  1.00  0.00    -0.225 NA
HETATM    2  H   UNL     1      42.148 -16.274   8.255  1.00  0.00     0.147 HD
ENDROOT
BRANCH   1   3
HETATM    3  C   UNL     1      43.904 -16.258   7.236  1.00  0.00     0.165 C 
HETATM    4  C   UNL     1      44.300 -14.942   6.570  1.00  0.00     0.038 C 
BRANCH   3   5
HETATM    5  C   UNL     1      44.555 -17.423   6.444  1.00  0.00     0.241 C 
HETATM    6  N   UNL     1      43.751 -17.884   5.413  1.00  0.00    -0.326 N 
HETATM    7  H   UNL     1      42.849 -17.418   5.361  1.00  0.00     0.169 HD
HETATM    8  O   UNL     1      45.679 -17.831   6.720  1.00  0.00    -0.271 OA
BRANCH   6   9
HETATM    9  C   UNL     1      43.994 -18.932   4.508  1.00  0.00     0.036 A 
HETATM   10  C   UNL     1      44.348 -20.226   4.890  1.00  0.00     0.053 A 
HETATM   11  C   UNL     1      44.562 -21.204   3.917  1.00  0.00     0.036 A 
HETATM   12 CL   UNL     1      45.009 -22.800   4.390  1.00  0.00    -0.084 Cl
HETATM   13  C   UNL     1      44.421 -20.910   2.562  1.00  0.00     0.024 A 
HETATM   14  C   UNL     1      44.071 -19.619   2.174  1.00  0.00     0.004 A 
HETATM   15  C   UNL     1      43.865 -18.635   3.144  1.00  0.00     0.029 A 
ENDBRANCH   6   9
ENDBRANCH   3   5
ENDBRANCH   1   3
BRANCH   1  16
HETATM   16  N   UNL     1      41.706 -15.589   6.457  1.00  0.00    -0.290 N 
HETATM   17  C   UNL     1      41.021 -16.080   5.348  1.00  0.00     0.245 C 
HETATM   18  O   UNL     1      40.766 -17.270   5.174  1.00  0.00    -0.271 OA
HETATM   19  H   UNL     1      42.073 -14.639   6.323  1.00  0.00     0.183 HD
BRANCH  17  20
HETATM   20  C   UNL     1      40.613 -14.974   4.369  1.00  0.00     0.196 C 
BRANCH  20  21
HETATM   21  N   UNL     1      39.723 -15.494   3.314  1.00  0.00    -0.282 NA
HETATM   22  H   UNL     1      39.252 -16.362   3.580  1.00  0.00     0.128 HD
BRANCH  21  23
HETATM   23  C   UNL     1      40.231 -15.666   2.005  1.00  0.00     0.042 A 
HETATM   24  C   UNL     1      39.905 -14.697   1.023  1.00  0.00     0.089 A 
HETATM   25  C   UNL     1      40.461 -14.773  -0.259  1.00  0.00     0.038 A 
HETATM   26  C   UNL     1      41.359 -15.792  -0.575  1.00  0.00     0.003 A 
HETATM   27  C   UNL     1      41.709 -16.732   0.388  1.00  0.00     0.002 A 
HETATM   28  C   UNL     1      41.158 -16.663   1.670  1.00  0.00     0.026 A 
BRANCH  24  29
HETATM   29  O   UNL     1      39.007 -13.736   1.431  1.00  0.00    -0.354 OA
HETATM   30  C   UNL     1      37.678 -13.846   0.935  1.00  0.00     0.210 C 
ENDBRANCH  24  29
ENDBRANCH  21  23
ENDBRANCH  20  21
ENDBRANCH  17  20
ENDBRANCH   1  16
TORSDOF 8
ENDMDL
MODEL 5
REMARK VINA RESULT:      -7.4      5.535      9.482
REMARK  8 active torsions:
REMARK  status: ('A' for Active; 'I' for Inactive)
REMARK    1  A    between atoms: C_2  and  N_3 
REMARK    2  A    between atoms: C_2  and  C_17 
REMARK    3  A    between atoms: N_3  and  N_4 
REMARK       I    between atoms: N_4  and  C_5 
REMARK    4  A    between atoms: C_5  and  C_6 
REMARK    5  A    between atoms: C_6  and  N_7 
REMARK    6  A    between atoms: N_7  and  C_8 
REMARK    7  A    between atoms: C_9  and  O_10 
REMARK       I    between atoms: C_17  and  N_18 
REMARK    8  A    between atoms: N_18  and  C_19 
ROOT
HETATM    1  N   UNL     1      44.396 -13.895   8.256  1.00  0.00    -0.225 NA
HETATM    2  H   UNL     1      43.655 -14.214   8.897  1.00  0.00     0.147 HD
ENDROOT
BRANCH   1   3
HETATM    3  C   UNL     1      44.700 -12.490   8.656  1.00  0.00     0.165 C 
HETATM    4  C   UNL     1      46.186 -12.141   8.587  1.00  0.00     0.038 C 
BRANCH   3   5
HETATM    5  C   UNL     1      44.213 -12.275  10.113  1.00  0.00     0.241 C 
HETATM    6  N   UNL     1      43.110 -11.439  10.192  1.00  0.00    -0.326 N 
HETATM    7  H   UNL     1      42.818 -11.066   9.292  1.00  0.00     0.169 HD
HETATM    8  O   UNL     1      44.761 -12.837  11.057  1.00  0.00    -0.271 OA
BRANCH   6   9
HETATM    9  C   UNL     1      42.416 -11.001  11.332  1.00  0.00     0.036 A 
HETATM   10  C   UNL     1      43.025 -10.383  12.426  1.00  0.00     0.053 A 
HETATM   11  C   UNL     1      42.249  -9.974  13.513  1.00  0.00     0.036 A 
HETATM   12 CL   UNL     1      43.003  -9.222  14.868  1.00  0.00    -0.084 Cl
HETATM   13  C   UNL     1      40.869 -10.168  13.522  1.00  0.00     0.024 A 
HETATM   14  C   UNL     1      40.257 -10.786  12.435  1.00  0.00     0.004 A 
HETATM   15  C   UNL     1      41.029 -11.205  11.349  1.00  0.00     0.029 A 
ENDBRANCH   6   9
ENDBRANCH   3   5
ENDBRANCH   1   3
BRANCH   1  16
HETATM   16  N   UNL     1      43.861 -13.992   6.947  1.00  0.00    -0.290 N 
HETATM   17  C   UNL     1      43.432 -15.229   6.469  1.00  0.00     0.245 C 
HETATM   18  O   UNL     1      43.228 -16.206   7.187  1.00  0.00    -0.271 OA
HETATM   19  H   UNL     1      44.240 -13.381   6.215  1.00  0.00     0.183 HD
BRANCH  17  20
HETATM   20  C   UNL     1      43.234 -15.238   4.950  1.00  0.00     0.196 C 
BRANCH  20  21
HETATM   21  N   UNL     1      42.480 -16.429   4.515  1.00  0.00    -0.282 NA
HETATM   22  H   UNL     1      42.168 -17.012   5.296  1.00  0.00     0.128 HD
BRANCH  21  23
HETATM   23  C   UNL     1      43.043 -17.285   3.539  1.00  0.00     0.042 A 
HETATM   24  C   UNL     1      43.284 -18.637   3.889  1.00  0.00     0.089 A 
HETATM   25  C   UNL     1      43.750 -19.545   2.931  1.00  0.00     0.038 A 
HETATM   26  C   UNL     1      43.959 -19.130   1.616  1.00  0.00     0.003 A 
HETATM   27  C   UNL     1      43.700 -17.813   1.253  1.00  0.00     0.002 A 
HETATM   28  C   UNL     1      43.235 -16.902   2.204  1.00  0.00     0.026 A 
BRANCH  24  29
HETATM   29  O   UNL     1      43.052 -18.946   5.212  1.00  0.00    -0.354 OA
HETATM   30  C   UNL     1      44.153 -19.456   5.956  1.00  0.00     0.210 C 
ENDBRANCH  24  29
ENDBRANCH  21  23
ENDBRANCH  20  21
ENDBRANCH  17  20
ENDBRANCH   1  16
TORSDOF 8
ENDMDL
MODEL 6
REMARK VINA RESULT:      -7.4      1.287      1.596
REMARK  8 active torsions:
REMARK  status: ('A' for Active; 'I' for Inactive)
REMARK    1  A    between atoms: C_2  and  N_3 
REMARK    2  A    between atoms: C_2  and  C_17 
REMARK    3  A    between atoms: N_3  and  N_4 
REMARK       I    between atoms: N_4  and  C_5 
REMARK    4  A    between atoms: C_5  and  C_6 
REMARK    5  A    between atoms: C_6  and  N_7 
REMARK    6  A    between atoms: N_7  and  C_8 
REMARK    7  A    between atoms: C_9  and  O_10 
REMARK       I    between atoms: C_17  and  N_18 
REMARK    8  A    between atoms: N_18  and  C_19 
ROOT
HETATM    1  N   UNL     1      39.828 -15.749   1.572  1.00  0.00    -0.225 NA
HETATM    2  H   UNL     1      39.587 -16.749   1.506  1.00  0.00     0.147 HD
ENDROOT
BRANCH   1   3
HETATM    3  C   UNL     1      41.154 -15.608   0.901  1.00  0.00     0.165 C 
HETATM    4  C   UNL     1      41.209 -16.244  -0.486  1.00  0.00     0.038 C 
BRANCH   3   5
HETATM    5  C   UNL     1      42.232 -16.280   1.792  1.00  0.00     0.241 C 
HETATM    6  N   UNL     1      42.232 -17.662   1.682  1.00  0.00    -0.326 N 
HETATM    7  H   UNL     1      41.503 -18.021   1.070  1.00  0.00     0.169 HD
HETATM    8  O   UNL     1      43.001 -15.611   2.475  1.00  0.00    -0.271 OA
BRANCH   6   9
HETATM    9  C   UNL     1      43.040 -18.599   2.348  1.00  0.00     0.036 A 
HETATM   10  C   UNL     1      43.601 -18.389   3.608  1.00  0.00     0.053 A 
HETATM   11  C   UNL     1      44.386 -19.384   4.195  1.00  0.00     0.036 A 
HETATM   12 CL   UNL     1      45.087 -19.119   5.746  1.00  0.00    -0.084 Cl
HETATM   13  C   UNL     1      44.615 -20.594   3.541  1.00  0.00     0.024 A 
HETATM   14  C   UNL     1      44.061 -20.808   2.282  1.00  0.00     0.004 A 
HETATM   15  C   UNL     1      43.282 -19.812   1.688  1.00  0.00     0.029 A 
ENDBRANCH   6   9
ENDBRANCH   3   5
ENDBRANCH   1   3
BRANCH   1  16
HETATM   16  N   UNL     1      39.875 -15.441   2.955  1.00  0.00    -0.290 N 
HETATM   17  C   UNL     1      39.832 -14.110   3.364  1.00  0.00     0.245 C 
HETATM   18  O   UNL     1      39.484 -13.181   2.636  1.00  0.00    -0.271 OA
HETATM   19  H   UNL     1      40.434 -16.040   3.573  1.00  0.00     0.183 HD
BRANCH  17  20
HETATM   20  C   UNL     1      40.258 -13.926   4.824  1.00  0.00     0.196 C 
BRANCH  20  21
HETATM   21  N   UNL     1      41.696 -14.204   5.002  1.00  0.00    -0.282 NA
HETATM   22  H   UNL     1      42.203 -14.270   4.115  1.00  0.00     0.128 HD
BRANCH  21  23
HETATM   23  C   UNL     1      42.094 -15.298   5.806  1.00  0.00     0.042 A 
HETATM   24  C   UNL     1      43.335 -15.217   6.485  1.00  0.00     0.089 A 
HETATM   25  C   UNL     1      43.728 -16.231   7.366  1.00  0.00     0.038 A 
HETATM   26  C   UNL     1      42.888 -17.320   7.600  1.00  0.00     0.003 A 
HETATM   27  C   UNL     1      41.656 -17.397   6.962  1.00  0.00     0.002 A 
HETATM   28  C   UNL     1      41.257 -16.389   6.081  1.00  0.00     0.026 A 
BRANCH  24  29
HETATM   29  O   UNL     1      44.093 -14.107   6.183  1.00  0.00    -0.354 OA
HETATM   30  C   UNL     1      44.908 -13.582   7.224  1.00  0.00     0.210 C 
ENDBRANCH  24  29
ENDBRANCH  21  23
ENDBRANCH  20  21
ENDBRANCH  17  20
ENDBRANCH   1  16
TORSDOF 8
ENDMDL
MODEL 7
REMARK VINA RESULT:      -7.4      3.475      5.447
REMARK  8 active torsions:
REMARK  status: ('A' for Active; 'I' for Inactive)
REMARK    1  A    between atoms: C_2  and  N_3 
REMARK    2  A    between atoms: C_2  and  C_17 
REMARK    3  A    between atoms: N_3  and  N_4 
REMARK       I    between atoms: N_4  and  C_5 
REMARK    4  A    between atoms: C_5  and  C_6 
REMARK    5  A    between atoms: C_6  and  N_7 
REMARK    6  A    between atoms: N_7  and  C_8 
REMARK    7  A    between atoms: C_9  and  O_10 
REMARK       I    between atoms: C_17  and  N_18 
REMARK    8  A    between atoms: N_18  and  C_19 
ROOT
HETATM    1  N   UNL     1      44.115 -15.819   6.138  1.00  0.00    -0.225 NA
HETATM    2  H   UNL     1      44.856 -15.475   5.509  1.00  0.00     0.147 HD
ENDROOT
BRANCH   1   3
HETATM    3  C   UNL     1      42.915 -16.023   5.274  1.00  0.00     0.165 C 
HETATM    4  C   UNL     1      41.620 -15.500   5.891  1.00  0.00     0.038 C 
BRANCH   3   5
HETATM    5  C   UNL     1      42.751 -17.543   5.007  1.00  0.00     0.241 C 
HETATM    6  N   UNL     1      43.951 -18.164   4.695  1.00  0.00    -0.326 N 
HETATM    7  H   UNL     1      44.740 -17.523   4.649  1.00  0.00     0.169 HD
HETATM    8  O   UNL     1      41.659 -18.093   5.109  1.00  0.00    -0.271 OA
BRANCH   6   9
HETATM    9  C   UNL     1      44.188 -19.511   4.372  1.00  0.00     0.036 A 
HETATM   10  C   UNL     1      44.109 -20.028   3.078  1.00  0.00     0.053 A 
HETATM   11  C   UNL     1      44.370 -21.382   2.854  1.00  0.00     0.036 A 
HETATM   12 CL   UNL     1      44.261 -22.021   1.258  1.00  0.00    -0.084 Cl
HETATM   13  C   UNL     1      44.716 -22.228   3.905  1.00  0.00     0.024 A 
HETATM   14  C   UNL     1      44.794 -21.719   5.199  1.00  0.00     0.004 A 
HETATM   15  C   UNL     1      44.525 -20.367   5.430  1.00  0.00     0.029 A 
ENDBRANCH   6   9
ENDBRANCH   3   5
ENDBRANCH   1   3
BRANCH   1  16
HETATM   16  N   UNL     1      43.924 -14.813   7.118  1.00  0.00    -0.290 N 
HETATM   17  C   UNL     1      44.866 -13.795   7.250  1.00  0.00     0.245 C 
HETATM   18  O   UNL     1      45.721 -13.540   6.405  1.00  0.00    -0.271 OA
HETATM   19  H   UNL     1      43.473 -15.070   8.004  1.00  0.00     0.183 HD
BRANCH  17  20
HETATM   20  C   UNL     1      44.716 -13.020   8.564  1.00  0.00     0.196 C 
BRANCH  20  21
HETATM   21  N   UNL     1      43.731 -11.930   8.435  1.00  0.00    -0.282 NA
HETATM   22  H   UNL     1      43.915 -11.317   7.636  1.00  0.00     0.128 HD
BRANCH  21  23
HETATM   23  C   UNL     1      43.461 -11.107   9.554  1.00  0.00     0.042 A 
HETATM   24  C   UNL     1      42.175 -10.521   9.663  1.00  0.00     0.089 A 
HETATM   25  C   UNL     1      41.830  -9.778  10.797  1.00  0.00     0.038 A 
HETATM   26  C   UNL     1      42.742  -9.627  11.842  1.00  0.00     0.003 A 
HETATM   27  C   UNL     1      43.996 -10.221  11.759  1.00  0.00     0.002 A 
HETATM   28  C   UNL     1      44.348 -10.964  10.630  1.00  0.00     0.026 A 
BRANCH  24  29
HETATM   29  O   UNL     1      41.350 -10.722   8.578  1.00  0.00    -0.354 OA
HETATM   30  C   UNL     1      39.961 -10.871   8.846  1.00  0.00     0.210 C 
ENDBRANCH  24  29
ENDBRANCH  21  23
ENDBRANCH  20  21
ENDBRANCH  17  20
ENDBRANCH   1  16
TORSDOF 8
ENDMDL
MODEL 8
REMARK VINA RESULT:      -7.3      3.590      5.587
REMARK  8 active torsions:
REMARK  status: ('A' for Active; 'I' for Inactive)
REMARK    1  A    between atoms: C_2  and  N_3 
REMARK    2  A    between atoms: C_2  and  C_17 
REMARK    3  A    between atoms: N_3  and  N_4 
REMARK       I    between atoms: N_4  and  C_5 
REMARK    4  A    between atoms: C_5  and  C_6 
REMARK    5  A    between atoms: C_6  and  N_7 
REMARK    6  A    between atoms: N_7  and  C_8 
REMARK    7  A    between atoms: C_9  and  O_10 
REMARK       I    between atoms: C_17  and  N_18 
REMARK    8  A    between atoms: N_18  and  C_19 
ROOT
HETATM    1  N   UNL     1      42.439 -13.568   6.431  1.00  0.00    -0.225 NA
HETATM    2  H   UNL     1      42.691 -14.559   6.567  1.00  0.00     0.147 HD
ENDROOT
BRANCH   1   3
HETATM    3  C   UNL     1      42.585 -13.312   4.968  1.00  0.00     0.165 C 
HETATM    4  C   UNL     1      41.262 -13.024   4.262  1.00  0.00     0.038 C 
BRANCH   3   5
HETATM    5  C   UNL     1      43.230 -14.561   4.310  1.00  0.00     0.241 C 
HETATM    6  N   UNL     1      43.012 -15.722   5.036  1.00  0.00    -0.326 N 
HETATM    7  H   UNL     1      42.502 -15.569   5.903  1.00  0.00     0.169 HD
HETATM    8  O   UNL     1      43.829 -14.480   3.241  1.00  0.00    -0.271 OA
BRANCH   6   9
HETATM    9  C   UNL     1      43.459 -17.026   4.767  1.00  0.00     0.036 A 
HETATM   10  C   UNL     1      43.115 -17.748   3.624  1.00  0.00     0.053 A 
HETATM   11  C   UNL     1      43.616 -19.039   3.439  1.00  0.00     0.036 A 
HETATM   12 CL   UNL     1      43.182 -19.933   2.032  1.00  0.00    -0.084 Cl
HETATM   13  C   UNL     1      44.464 -19.619   4.381  1.00  0.00     0.024 A 
HETATM   14  C   UNL     1      44.809 -18.905   5.525  1.00  0.00     0.004 A 
HETATM   15  C   UNL     1      44.303 -17.617   5.719  1.00  0.00     0.029 A 
ENDBRANCH   6   9
ENDBRANCH   3   5
ENDBRANCH   1   3
BRANCH   1  16
HETATM   16  N   UNL     1      43.348 -12.815   7.216  1.00  0.00    -0.290 N 
HETATM   17  C   UNL     1      44.431 -13.454   7.817  1.00  0.00     0.245 C 
HETATM   18  O   UNL     1      44.821 -14.577   7.506  1.00  0.00    -0.271 OA
HETATM   19  H   UNL     1      42.987 -12.023   7.760  1.00  0.00     0.183 HD
BRANCH  17  20
HETATM   20  C   UNL     1      45.089 -12.600   8.907  1.00  0.00     0.196 C 
BRANCH  20  21
HETATM   21  N   UNL     1      44.615 -11.205   8.855  1.00  0.00    -0.282 NA
HETATM   22  H   UNL     1      45.353 -10.541   8.607  1.00  0.00     0.128 HD
BRANCH  21  23
HETATM   23  C   UNL     1      43.914 -10.672   9.963  1.00  0.00     0.042 A 
HETATM   24  C   UNL     1      42.546 -10.341   9.798  1.00  0.00     0.089 A 
HETATM   25  C   UNL     1      41.787  -9.902  10.889  1.00  0.00     0.038 A 
HETATM   26  C   UNL     1      42.366  -9.808  12.154  1.00  0.00     0.003 A 
HETATM   27  C   UNL     1      43.700 -10.157  12.335  1.00  0.00     0.002 A 
HETATM   28  C   UNL     1      44.464 -10.596  11.251  1.00  0.00     0.026 A 
BRANCH  24  29
HETATM   29  O   UNL     1      42.069 -10.462   8.511  1.00  0.00    -0.354 OA
HETATM   30  C   UNL     1      40.667 -10.645   8.360  1.00  0.00     0.210 C 
ENDBRANCH  24  29
ENDBRANCH  21  23
ENDBRANCH  20  21
ENDBRANCH  17  20
ENDBRANCH   1  16
TORSDOF 8
ENDMDL
MODEL 9
REMARK VINA RESULT:      -7.2      3.328      6.267
REMARK  8 active torsions:
REMARK  status: ('A' for Active; 'I' for Inactive)
REMARK    1  A    between atoms: C_2  and  N_3 
REMARK    2  A    between atoms: C_2  and  C_17 
REMARK    3  A    between atoms: N_3  and  N_4 
REMARK       I    between atoms: N_4  and  C_5 
REMARK    4  A    between atoms: C_5  and  C_6 
REMARK    5  A    between atoms: C_6  and  N_7 
REMARK    6  A    between atoms: N_7  and  C_8 
REMARK    7  A    between atoms: C_9  and  O_10 
REMARK       I    between atoms: C_17  and  N_18 
REMARK    8  A    between atoms: N_18  and  C_19 
ROOT
HETATM    1  N   UNL     1      40.039 -14.977   4.097  1.00  0.00    -0.225 NA
HETATM    2  H   UNL     1      39.041 -15.062   4.341  1.00  0.00     0.147 HD
ENDROOT
BRANCH   1   3
HETATM    3  C   UNL     1      40.112 -13.907   3.058  1.00  0.00     0.165 C 
HETATM    4  C   UNL     1      39.337 -12.644   3.426  1.00  0.00     0.038 C 
BRANCH   3   5
HETATM    5  C   UNL     1      39.535 -14.467   1.731  1.00  0.00     0.241 C 
HETATM    6  N   UNL     1      40.293 -14.113   0.626  1.00  0.00    -0.326 N 
HETATM    7  H   UNL     1      41.082 -13.510   0.850  1.00  0.00     0.169 HD
HETATM    8  O   UNL     1      38.531 -15.174   1.721  1.00  0.00    -0.271 OA
BRANCH   6   9
HETATM    9  C   UNL     1      40.070 -14.413  -0.729  1.00  0.00     0.036 A 
HETATM   10  C   UNL     1      39.002 -13.910  -1.473  1.00  0.00     0.053 A 
HETATM   11  C   UNL     1      38.868 -14.259  -2.818  1.00  0.00     0.036 A 
HETATM   12 CL   UNL     1      37.542 -13.646  -3.734  1.00  0.00    -0.084 Cl
HETATM   13  C   UNL     1      39.791 -15.102  -3.436  1.00  0.00     0.024 A 
HETATM   14  C   UNL     1      40.857 -15.609  -2.698  1.00  0.00     0.004 A 
HETATM   15  C   UNL     1      40.991 -15.270  -1.349  1.00  0.00     0.029 A 
ENDBRANCH   6   9
ENDBRANCH   3   5
ENDBRANCH   1   3
BRANCH   1  16
HETATM   16  N   UNL     1      40.439 -16.247   3.609  1.00  0.00    -0.290 N 
HETATM   17  C   UNL     1      41.767 -16.648   3.744  1.00  0.00     0.245 C 
HETATM   18  O   UNL     1      42.573 -16.102   4.495  1.00  0.00    -0.271 OA
HETATM   19  H   UNL     1      39.986 -16.613   2.764  1.00  0.00     0.183 HD
BRANCH  17  20
HETATM   20  C   UNL     1      42.114 -17.849   2.858  1.00  0.00     0.196 C 
BRANCH  20  21
HETATM   21  N   UNL     1      43.542 -18.199   2.965  1.00  0.00    -0.282 NA
HETATM   22  H   UNL     1      44.128 -17.701   2.289  1.00  0.00     0.128 HD
BRANCH  21  23
HETATM   23  C   UNL     1      43.923 -19.562   2.938  1.00  0.00     0.042 A 
HETATM   24  C   UNL     1      44.492 -20.124   4.108  1.00  0.00     0.089 A 
HETATM   25  C   UNL     1      44.796 -21.489   4.162  1.00  0.00     0.038 A 
HETATM   26  C   UNL     1      44.519 -22.313   3.071  1.00  0.00     0.003 A 
HETATM   27  C   UNL     1      43.934 -21.779   1.929  1.00  0.00     0.002 A 
HETATM   28  C   UNL     1      43.628 -20.417   1.867  1.00  0.00     0.026 A 
BRANCH  24  29
HETATM   29  O   UNL     1      44.732 -19.228   5.127  1.00  0.00    -0.354 OA
HETATM   30  C   UNL     1      44.032 -19.440   6.347  1.00  0.00     0.210 C 
ENDBRANCH  24  29
ENDBRANCH  21  23
ENDBRANCH  20  21
ENDBRANCH  17  20
ENDBRANCH   1  16
TORSDOF 8
ENDMDL
MODEL 10
REMARK VINA RESULT:      -7.2      2.191      6.087
REMARK  8 active torsions:
REMARK  status: ('A' for Active; 'I' for Inactive)
REMARK    1  A    between atoms: C_2  and  N_3 
REMARK    2  A    between atoms: C_2  and  C_17 
REMARK    3  A    between atoms: N_3  and  N_4 
REMARK       I    between atoms: N_4  and  C_5 
REMARK    4  A    between atoms: C_5  and  C_6 
REMARK    5  A    between atoms: C_6  and  N_7 
REMARK    6  A    between atoms: N_7  and  C_8 
REMARK    7  A    between atoms: C_9  and  O_10 
REMARK       I    between atoms: C_17  and  N_18 
REMARK    8  A    between atoms: N_18  and  C_19 
ROOT
HETATM    1  N   UNL     1      42.870 -15.287   3.979  1.00  0.00    -0.225 NA
HETATM    2  H   UNL     1      43.865 -15.422   3.747  1.00  0.00     0.147 HD
ENDROOT
BRANCH   1   3
HETATM    3  C   UNL     1      42.650 -16.025   5.258  1.00  0.00     0.165 C 
HETATM    4  C   UNL     1      43.767 -15.824   6.280  1.00  0.00     0.038 C 
BRANCH   3   5
HETATM    5  C   UNL     1      42.542 -17.540   4.942  1.00  0.00     0.241 C 
HETATM    6  N   UNL     1      43.777 -18.132   4.726  1.00  0.00    -0.326 N 
HETATM    7  H   UNL     1      44.554 -17.477   4.768  1.00  0.00     0.169 HD
HETATM    8  O   UNL     1      41.456 -18.112   4.931  1.00  0.00    -0.271 OA
BRANCH   6   9
HETATM    9  C   UNL     1      44.069 -19.466   4.394  1.00  0.00     0.036 A 
HETATM   10  C   UNL     1      43.932 -19.999   3.112  1.00  0.00     0.053 A 
HETATM   11  C   UNL     1      44.255 -21.337   2.877  1.00  0.00     0.036 A 
HETATM   12 CL   UNL     1      44.076 -21.996   1.295  1.00  0.00    -0.084 Cl
HETATM   13  C   UNL     1      44.720 -22.153   3.907  1.00  0.00     0.024 A 
HETATM   14  C   UNL     1      44.855 -21.628   5.189  1.00  0.00     0.004 A 
HETATM   15  C   UNL     1      44.525 -20.292   5.431  1.00  0.00     0.029 A 
ENDBRANCH   6   9
ENDBRANCH   3   5
ENDBRANCH   1   3
BRANCH   1  16
HETATM   16  N   UNL     1      42.130 -15.828   2.897  1.00  0.00    -0.290 N 
HETATM   17  C   UNL     1      42.806 -16.383   1.813  1.00  0.00     0.245 C 
HETATM   18  O   UNL     1      43.996 -16.689   1.832  1.00  0.00    -0.271 OA
HETATM   19  H   UNL     1      41.240 -15.385   2.641  1.00  0.00     0.183 HD
BRANCH  17  20
HETATM   20  C   UNL     1      41.902 -16.579   0.591  1.00  0.00     0.196 C 
BRANCH  20  21
HETATM   21  N   UNL     1      41.983 -15.427  -0.326  1.00  0.00    -0.282 NA
HETATM   22  H   UNL     1      42.158 -14.542   0.157  1.00  0.00     0.128 HD
BRANCH  21  23
HETATM   23  C   UNL     1      40.937 -15.208  -1.254  1.00  0.00     0.042 A 
HETATM   24  C   UNL     1      39.916 -14.287  -0.912  1.00  0.00     0.089 A 
HETATM   25  C   UNL     1      38.914 -13.965  -1.834  1.00  0.00     0.038 A 
HETATM   26  C   UNL     1      38.925 -14.532  -3.108  1.00  0.00     0.003 A 
HETATM   27  C   UNL     1      39.938 -15.415  -3.466  1.00  0.00     0.002 A 
HETATM   28  C   UNL     1      40.941 -15.741  -2.551  1.00  0.00     0.026 A 
BRANCH  24  29
HETATM   29  O   UNL     1      39.989 -13.787   0.370  1.00  0.00    -0.354 OA
HETATM   30  C   UNL     1      38.757 -13.580   1.051  1.00  0.00     0.210 C 
ENDBRANCH  24  29
ENDBRANCH  21  23
ENDBRANCH  20  21
ENDBRANCH  17  20
ENDBRANCH   1  16
TORSDOF 8
ENDMDL
