MODEL 1
REMARK VINA RESULT:      -8.1      0.000      0.000
REMARK  6 active torsions:
REMARK  status: ('A' for Active; 'I' for Inactive)
REMARK    1  A    between atoms: C_2  and  C_3 
REMARK    2  A    between atoms: C_4  and  O_5 
REMARK    3  A    between atoms: O_5  and  C_6 
REMARK    4  A    between atoms: C_6  and  C_7 
REMARK       I    between atoms: C_7  and  N_8 
REMARK    5  A    between atoms: N_8  and  N_9 
REMARK    6  A    between atoms: C_10  and  C_11 
ROOT
HETATM    1  C   UNL     1      41.779 -15.157   5.081  1.00  0.00     0.261 C 
HETATM    2  N   UNL     1      43.149 -14.928   5.040  1.00  0.00    -0.246 N 
HETATM    3  O   UNL     1      40.947 -14.528   5.728  1.00  0.00    -0.269 OA
HETATM    4  H   UNL     1      43.708 -15.537   4.447  1.00  0.00     0.192 HD
ENDROOT
BRANCH   2   5
HETATM    5  N   UNL     1      43.886 -14.004   5.731  1.00  0.00    -0.184 NA
HETATM    6  C   UNL     1      44.704 -14.371   6.663  1.00  0.00     0.152 C 
BRANCH   6   7
HETATM    7  C   UNL     1      45.470 -13.351   7.360  1.00  0.00     0.011 A 
HETATM    8  C   UNL     1      45.091 -12.644   8.548  1.00  0.00     0.004 A 
HETATM    9  C   UNL     1      46.120 -11.748   8.848  1.00  0.00     0.043 A 
HETATM   10  C   UNL     1      43.961 -12.673   9.393  1.00  0.00     0.014 A 
HETATM   11  C   UNL     1      46.075 -10.881   9.946  1.00  0.00     0.030 A 
HETATM   12  N   UNL     1      47.093 -11.913   7.890  1.00  0.00    -0.364 N 
HETATM   13  C   UNL     1      44.942 -10.928  10.764  1.00  0.00     0.002 A 
HETATM   14  C   UNL     1      43.900 -11.812  10.495  1.00  0.00     0.001 A 
HETATM   15  H   UNL     1      47.958 -11.393   7.856  1.00  0.00     0.165 HD
HETATM   16  C   UNL     1      46.713 -12.871   6.989  1.00  0.00     0.102 A 
ENDBRANCH   6   7
ENDBRANCH   2   5
BRANCH   1  17
HETATM   17  C   UNL     1      41.384 -16.387   4.265  1.00  0.00     0.280 C 
BRANCH  17  18
HETATM   18  O   UNL     1      41.853 -17.591   4.869  1.00  0.00    -0.341 OA
BRANCH  18  19
HETATM   19  C   UNL     1      42.684 -18.348   4.083  1.00  0.00     0.076 A 
HETATM   20  C   UNL     1      43.664 -19.124   4.735  1.00  0.00    -0.021 A 
HETATM   21  C   UNL     1      44.499 -19.937   3.947  1.00  0.00     0.010 A 
HETATM   22  C   UNL     1      44.397 -19.938   2.555  1.00  0.00     0.001 A 
HETATM   23  C   UNL     1      43.464 -19.123   1.923  1.00  0.00     0.003 A 
HETATM   24  C   UNL     1      42.612 -18.323   2.685  1.00  0.00     0.037 A 
BRANCH  20  25
HETATM   25  C   UNL     1      43.777 -19.112   6.254  1.00  0.00     0.013 C 
HETATM   26  C   UNL     1      44.953 -18.288   6.793  1.00  0.00     0.015 C 
HETATM   27  C   UNL     1      43.839 -20.542   6.794  1.00  0.00     0.015 C 
ENDBRANCH  20  25
ENDBRANCH  18  19
ENDBRANCH  17  18
ENDBRANCH   1  17
TORSDOF 6
ENDMDL
MODEL 2
REMARK VINA RESULT:      -8.0      4.815      8.397
REMARK  6 active torsions:
REMARK  status: ('A' for Active; 'I' for Inactive)
REMARK    1  A    between atoms: C_2  and  C_3 
REMARK    2  A    between atoms: C_4  and  O_5 
REMARK    3  A    between atoms: O_5  and  C_6 
REMARK    4  A    between atoms: C_6  and  C_7 
REMARK       I    between atoms: C_7  and  N_8 
REMARK    5  A    between atoms: N_8  and  N_9 
REMARK    6  A    between atoms: C_10  and  C_11 
ROOT
HETATM    1  C   UNL     1      42.678 -13.791   2.794  1.00  0.00     0.261 C 
HETATM    2  N   UNL     1      42.163 -15.079   2.878  1.00  0.00    -0.246 N 
HETATM    3  O   UNL     1      43.742 -13.393   3.260  1.00  0.00    -0.269 OA
HETATM    4  H   UNL     1      41.264 -15.253   2.432  1.00  0.00     0.192 HD
ENDROOT
BRANCH   2   5
HETATM    5  N   UNL     1      42.678 -16.170   3.524  1.00  0.00    -0.184 NA
HETATM    6  C   UNL     1      43.318 -17.086   2.873  1.00  0.00     0.152 C 
BRANCH   6   7
HETATM    7  C   UNL     1      43.852 -18.219   3.609  1.00  0.00     0.011 A 
HETATM    8  C   UNL     1      43.981 -19.570   3.145  1.00  0.00     0.004 A 
HETATM    9  C   UNL     1      44.525 -20.321   4.190  1.00  0.00     0.043 A 
HETATM   10  C   UNL     1      43.675 -20.230   1.936  1.00  0.00     0.014 A 
HETATM   11  C   UNL     1      44.775 -21.694   4.088  1.00  0.00     0.030 A 
HETATM   12  N   UNL     1      44.733 -19.460   5.243  1.00  0.00    -0.364 N 
HETATM   13  C   UNL     1      44.459 -22.323   2.880  1.00  0.00     0.002 A 
HETATM   14  C   UNL     1      43.918 -21.603   1.817  1.00  0.00     0.001 A 
HETATM   15  H   UNL     1      45.120 -19.729   6.136  1.00  0.00     0.165 HD
HETATM   16  C   UNL     1      44.331 -18.196   4.906  1.00  0.00     0.102 A 
ENDBRANCH   6   7
ENDBRANCH   2   5
BRANCH   1  17
HETATM   17  C   UNL     1      41.709 -12.835   2.101  1.00  0.00     0.280 C 
BRANCH  17  18
HETATM   18  O   UNL     1      41.149 -13.417   0.925  1.00  0.00    -0.341 OA
BRANCH  18  19
HETATM   19  C   UNL     1      41.695 -12.979  -0.255  1.00  0.00     0.076 A 
HETATM   20  C   UNL     1      41.590 -13.831  -1.373  1.00  0.00    -0.021 A 
HETATM   21  C   UNL     1      42.110 -13.381  -2.601  1.00  0.00     0.010 A 
HETATM   22  C   UNL     1      42.758 -12.149  -2.700  1.00  0.00     0.001 A 
HETATM   23  C   UNL     1      42.904 -11.346  -1.575  1.00  0.00     0.003 A 
HETATM   24  C   UNL     1      42.380 -11.762  -0.351  1.00  0.00     0.037 A 
BRANCH  20  25
HETATM   25  C   UNL     1      40.890 -15.179  -1.256  1.00  0.00     0.013 C 
HETATM   26  C   UNL     1      41.604 -16.184  -0.343  1.00  0.00     0.015 C 
HETATM   27  C   UNL     1      40.671 -15.786  -2.644  1.00  0.00     0.015 C 
ENDBRANCH  20  25
ENDBRANCH  18  19
ENDBRANCH  17  18
ENDBRANCH   1  17
TORSDOF 6
ENDMDL
MODEL 3
REMARK VINA RESULT:      -8.0      4.313      6.565
REMARK  6 active torsions:
REMARK  status: ('A' for Active; 'I' for Inactive)
REMARK    1  A    between atoms: C_2  and  C_3 
REMARK    2  A    between atoms: C_4  and  O_5 
REMARK    3  A    between atoms: O_5  and  C_6 
REMARK    4  A    between atoms: C_6  and  C_7 
REMARK       I    between atoms: C_7  and  N_8 
REMARK    5  A    between atoms: N_8  and  N_9 
REMARK    6  A    between atoms: C_10  and  C_11 
ROOT
HETATM    1  C   UNL     1      43.108 -16.974   5.712  1.00  0.00     0.261 C 
HETATM    2  N   UNL     1      41.861 -16.796   5.126  1.00  0.00    -0.246 N 
HETATM    3  O   UNL     1      43.847 -16.096   6.150  1.00  0.00    -0.269 OA
HETATM    4  H   UNL     1      41.366 -17.629   4.816  1.00  0.00     0.192 HD
ENDROOT
BRANCH   2   5
HETATM    5  N   UNL     1      41.198 -15.629   4.856  1.00  0.00    -0.184 NA
HETATM    6  C   UNL     1      40.993 -15.249   3.636  1.00  0.00     0.152 C 
BRANCH   6   7
HETATM    7  C   UNL     1      40.275 -14.008   3.404  1.00  0.00     0.011 A 
HETATM    8  C   UNL     1      39.239 -13.774   2.441  1.00  0.00     0.004 A 
HETATM    9  C   UNL     1      38.854 -12.436   2.558  1.00  0.00     0.043 A 
HETATM   10  C   UNL     1      38.597 -14.573   1.470  1.00  0.00     0.014 A 
HETATM   11  C   UNL     1      37.864 -11.858   1.754  1.00  0.00     0.030 A 
HETATM   12  N   UNL     1      39.614 -11.881   3.561  1.00  0.00    -0.364 N 
HETATM   13  C   UNL     1      37.248 -12.671   0.798  1.00  0.00     0.002 A 
HETATM   14  C   UNL     1      37.606 -14.010   0.657  1.00  0.00     0.001 A 
HETATM   15  H   UNL     1      39.549 -10.920   3.866  1.00  0.00     0.165 HD
HETATM   16  C   UNL     1      40.472 -12.815   4.075  1.00  0.00     0.102 A 
ENDBRANCH   6   7
ENDBRANCH   2   5
BRANCH   1  17
HETATM   17  C   UNL     1      43.543 -18.438   5.690  1.00  0.00     0.280 C 
BRANCH  17  18
HETATM   18  O   UNL     1      44.592 -18.660   4.750  1.00  0.00    -0.341 OA
BRANCH  18  19
HETATM   19  C   UNL     1      44.414 -19.746   3.930  1.00  0.00     0.076 A 
HETATM   20  C   UNL     1      43.765 -19.527   2.698  1.00  0.00    -0.021 A 
HETATM   21  C   UNL     1      43.610 -20.621   1.827  1.00  0.00     0.010 A 
HETATM   22  C   UNL     1      44.039 -21.899   2.191  1.00  0.00     0.001 A 
HETATM   23  C   UNL     1      44.626 -22.108   3.434  1.00  0.00     0.003 A 
HETATM   24  C   UNL     1      44.808 -21.035   4.306  1.00  0.00     0.037 A 
BRANCH  20  25
HETATM   25  C   UNL     1      43.291 -18.133   2.309  1.00  0.00     0.013 C 
HETATM   26  C   UNL     1      41.898 -18.097   1.666  1.00  0.00     0.015 C 
HETATM   27  C   UNL     1      44.316 -17.459   1.394  1.00  0.00     0.015 C 
ENDBRANCH  20  25
ENDBRANCH  18  19
ENDBRANCH  17  18
ENDBRANCH   1  17
TORSDOF 6
ENDMDL
MODEL 4
REMARK VINA RESULT:      -7.9      4.402      8.178
REMARK  6 active torsions:
REMARK  status: ('A' for Active; 'I' for Inactive)
REMARK    1  A    between atoms: C_2  and  C_3 
REMARK    2  A    between atoms: C_4  and  O_5 
REMARK    3  A    between atoms: O_5  and  C_6 
REMARK    4  A    between atoms: C_6  and  C_7 
REMARK       I    between atoms: C_7  and  N_8 
REMARK    5  A    between atoms: N_8  and  N_9 
REMARK    6  A    between atoms: C_10  and  C_11 
ROOT
HETATM    1  C   UNL     1      42.984 -13.851   3.463  1.00  0.00     0.261 C 
HETATM    2  N   UNL     1      42.319 -15.045   3.712  1.00  0.00    -0.246 N 
HETATM    3  O   UNL     1      44.186 -13.637   3.598  1.00  0.00    -0.269 OA
HETATM    4  H   UNL     1      41.315 -15.065   3.546  1.00  0.00     0.192 HD
ENDROOT
BRANCH   2   5
HETATM    5  N   UNL     1      42.819 -16.222   4.203  1.00  0.00    -0.184 NA
HETATM    6  C   UNL     1      43.453 -17.045   3.432  1.00  0.00     0.152 C 
BRANCH   6   7
HETATM    7  C   UNL     1      43.972 -18.276   4.005  1.00  0.00     0.011 A 
HETATM    8  C   UNL     1      44.031 -19.564   3.378  1.00  0.00     0.004 A 
HETATM    9  C   UNL     1      44.586 -20.453   4.302  1.00  0.00     0.043 A 
HETATM   10  C   UNL     1      43.654 -20.063   2.113  1.00  0.00     0.014 A 
HETATM   11  C   UNL     1      44.780 -21.811   4.027  1.00  0.00     0.030 A 
HETATM   12  N   UNL     1      44.867 -19.732   5.440  1.00  0.00    -0.364 N 
HETATM   13  C   UNL     1      44.394 -22.279   2.767  1.00  0.00     0.002 A 
HETATM   14  C   UNL     1      43.841 -21.419   1.821  1.00  0.00     0.001 A 
HETATM   15  H   UNL     1      45.278 -20.120   6.278  1.00  0.00     0.165 HD
HETATM   16  C   UNL     1      44.500 -18.424   5.274  1.00  0.00     0.102 A 
ENDBRANCH   6   7
ENDBRANCH   2   5
BRANCH   1  17
HETATM   17  C   UNL     1      42.020 -12.737   3.061  1.00  0.00     0.280 C 
BRANCH  17  18
HETATM   18  O   UNL     1      41.702 -12.793   1.672  1.00  0.00    -0.341 OA
BRANCH  18  19
HETATM   19  C   UNL     1      40.371 -12.967   1.389  1.00  0.00     0.076 A 
HETATM   20  C   UNL     1      40.030 -13.988   0.478  1.00  0.00    -0.021 A 
HETATM   21  C   UNL     1      38.667 -14.206   0.206  1.00  0.00     0.010 A 
HETATM   22  C   UNL     1      37.680 -13.403   0.780  1.00  0.00     0.001 A 
HETATM   23  C   UNL     1      38.037 -12.362   1.631  1.00  0.00     0.003 A 
HETATM   24  C   UNL     1      39.381 -12.139   1.931  1.00  0.00     0.037 A 
BRANCH  20  25
HETATM   25  C   UNL     1      41.112 -14.856  -0.152  1.00  0.00     0.013 C 
HETATM   26  C   UNL     1      40.946 -15.072  -1.662  1.00  0.00     0.015 C 
HETATM   27  C   UNL     1      41.200 -16.203   0.570  1.00  0.00     0.015 C 
ENDBRANCH  20  25
ENDBRANCH  18  19
ENDBRANCH  17  18
ENDBRANCH   1  17
TORSDOF 6
ENDMDL
MODEL 5
REMARK VINA RESULT:      -7.9      2.555      9.072
REMARK  6 active torsions:
REMARK  status: ('A' for Active; 'I' for Inactive)
REMARK    1  A    between atoms: C_2  and  C_3 
REMARK    2  A    between atoms: C_4  and  O_5 
REMARK    3  A    between atoms: O_5  and  C_6 
REMARK    4  A    between atoms: C_6  and  C_7 
REMARK       I    between atoms: C_7  and  N_8 
REMARK    5  A    between atoms: N_8  and  N_9 
REMARK    6  A    between atoms: C_10  and  C_11 
ROOT
HETATM    1  C   UNL     1      44.804 -13.491   7.365  1.00  0.00     0.261 C 
HETATM    2  N   UNL     1      43.588 -14.001   6.927  1.00  0.00    -0.246 N 
HETATM    3  O   UNL     1      45.901 -13.645   6.835  1.00  0.00    -0.269 OA
HETATM    4  H   UNL     1      42.762 -13.778   7.478  1.00  0.00     0.192 HD
ENDROOT
BRANCH   2   5
HETATM    5  N   UNL     1      43.335 -14.818   5.859  1.00  0.00    -0.184 NA
HETATM    6  C   UNL     1      43.557 -16.091   5.929  1.00  0.00     0.152 C 
BRANCH   6   7
HETATM    7  C   UNL     1      43.261 -16.915   4.769  1.00  0.00     0.011 A 
HETATM    8  C   UNL     1      43.817 -18.198   4.455  1.00  0.00     0.004 A 
HETATM    9  C   UNL     1      43.263 -18.608   3.240  1.00  0.00     0.043 A 
HETATM   10  C   UNL     1      44.752 -19.048   5.085  1.00  0.00     0.014 A 
HETATM   11  C   UNL     1      43.596 -19.820   2.624  1.00  0.00     0.030 A 
HETATM   12  N   UNL     1      42.394 -17.621   2.838  1.00  0.00    -0.364 N 
HETATM   13  C   UNL     1      44.527 -20.641   3.268  1.00  0.00     0.002 A 
HETATM   14  C   UNL     1      45.096 -20.264   4.482  1.00  0.00     0.001 A 
HETATM   15  H   UNL     1      41.848 -17.649   1.988  1.00  0.00     0.165 HD
HETATM   16  C   UNL     1      42.386 -16.598   3.747  1.00  0.00     0.102 A 
ENDBRANCH   6   7
ENDBRANCH   2   5
BRANCH   1  17
HETATM   17  C   UNL     1      44.663 -12.743   8.690  1.00  0.00     0.280 C 
BRANCH  17  18
HETATM   18  O   UNL     1      43.899 -11.548   8.539  1.00  0.00    -0.341 OA
BRANCH  18  19
HETATM   19  C   UNL     1      43.539 -10.938   9.714  1.00  0.00     0.076 A 
HETATM   20  C   UNL     1      42.293 -10.280   9.747  1.00  0.00    -0.021 A 
HETATM   21  C   UNL     1      41.890  -9.683  10.956  1.00  0.00     0.010 A 
HETATM   22  C   UNL     1      42.721  -9.696  12.078  1.00  0.00     0.001 A 
HETATM   23  C   UNL     1      43.972 -10.300  12.011  1.00  0.00     0.003 A 
HETATM   24  C   UNL     1      44.385 -10.915  10.830  1.00  0.00     0.037 A 
BRANCH  20  25
HETATM   25  C   UNL     1      41.394 -10.261   8.518  1.00  0.00     0.013 C 
HETATM   26  C   UNL     1      41.340  -8.908   7.797  1.00  0.00     0.015 C 
HETATM   27  C   UNL     1      39.982 -10.724   8.884  1.00  0.00     0.015 C 
ENDBRANCH  20  25
ENDBRANCH  18  19
ENDBRANCH  17  18
ENDBRANCH   1  17
TORSDOF 6
ENDMDL
MODEL 6
REMARK VINA RESULT:      -7.9      5.263      9.101
REMARK  6 active torsions:
REMARK  status: ('A' for Active; 'I' for Inactive)
REMARK    1  A    between atoms: C_2  and  C_3 
REMARK    2  A    between atoms: C_4  and  O_5 
REMARK    3  A    between atoms: O_5  and  C_6 
REMARK    4  A    between atoms: C_6  and  C_7 
REMARK       I    between atoms: C_7  and  N_8 
REMARK    5  A    between atoms: N_8  and  N_9 
REMARK    6  A    between atoms: C_10  and  C_11 
ROOT
HETATM    1  C   UNL     1      41.033 -15.835   1.095  1.00  0.00     0.261 C 
HETATM    2  N   UNL     1      41.249 -16.063   2.448  1.00  0.00    -0.246 N 
HETATM    3  O   UNL     1      41.334 -16.579   0.166  1.00  0.00    -0.269 OA
HETATM    4  H   UNL     1      40.934 -15.348   3.100  1.00  0.00     0.192 HD
ENDROOT
BRANCH   2   5
HETATM    5  N   UNL     1      41.878 -17.119   3.052  1.00  0.00    -0.184 NA
HETATM    6  C   UNL     1      43.169 -17.182   3.100  1.00  0.00     0.152 C 
BRANCH   6   7
HETATM    7  C   UNL     1      43.787 -18.319   3.760  1.00  0.00     0.011 A 
HETATM    8  C   UNL     1      43.930 -19.648   3.242  1.00  0.00     0.004 A 
HETATM    9  C   UNL     1      44.565 -20.413   4.224  1.00  0.00     0.043 A 
HETATM   10  C   UNL     1      43.569 -20.278   2.032  1.00  0.00     0.014 A 
HETATM   11  C   UNL     1      44.853 -21.773   4.058  1.00  0.00     0.030 A 
HETATM   12  N   UNL     1      44.811 -19.581   5.290  1.00  0.00    -0.364 N 
HETATM   13  C   UNL     1      44.480 -22.373   2.851  1.00  0.00     0.002 A 
HETATM   14  C   UNL     1      43.849 -21.638   1.850  1.00  0.00     0.001 A 
HETATM   15  H   UNL     1      45.264 -19.865   6.148  1.00  0.00     0.165 HD
HETATM   16  C   UNL     1      44.347 -18.322   5.025  1.00  0.00     0.102 A 
ENDBRANCH   6   7
ENDBRANCH   2   5
BRANCH   1  17
HETATM   17  C   UNL     1      40.423 -14.458   0.841  1.00  0.00     0.280 C 
BRANCH  17  18
HETATM   18  O   UNL     1      39.803 -14.386  -0.441  1.00  0.00    -0.341 OA
BRANCH  18  19
HETATM   19  C   UNL     1      40.555 -13.779  -1.415  1.00  0.00     0.076 A 
HETATM   20  C   UNL     1      40.150 -13.963  -2.753  1.00  0.00    -0.021 A 
HETATM   21  C   UNL     1      40.886 -13.316  -3.763  1.00  0.00     0.010 A 
HETATM   22  C   UNL     1      42.016 -12.555  -3.456  1.00  0.00     0.001 A 
HETATM   23  C   UNL     1      42.436 -12.432  -2.136  1.00  0.00     0.003 A 
HETATM   24  C   UNL     1      41.711 -13.048  -1.116  1.00  0.00     0.037 A 
BRANCH  20  25
HETATM   25  C   UNL     1      38.922 -14.800  -3.083  1.00  0.00     0.013 C 
HETATM   26  C   UNL     1      39.167 -15.893  -4.132  1.00  0.00     0.015 C 
HETATM   27  C   UNL     1      37.764 -13.898  -3.518  1.00  0.00     0.015 C 
ENDBRANCH  20  25
ENDBRANCH  18  19
ENDBRANCH  17  18
ENDBRANCH   1  17
TORSDOF 6
ENDMDL
MODEL 7
REMARK VINA RESULT:      -7.9      4.967      8.585
REMARK  6 active torsions:
REMARK  status: ('A' for Active; 'I' for Inactive)
REMARK    1  A    between atoms: C_2  and  C_3 
REMARK    2  A    between atoms: C_4  and  O_5 
REMARK    3  A    between atoms: O_5  and  C_6 
REMARK    4  A    between atoms: C_6  and  C_7 
REMARK       I    between atoms: C_7  and  N_8 
REMARK    5  A    between atoms: N_8  and  N_9 
REMARK    6  A    between atoms: C_10  and  C_11 
ROOT
HETATM    1  C   UNL     1      42.864 -14.198   2.505  1.00  0.00     0.261 C 
HETATM    2  N   UNL     1      42.479 -15.533   2.499  1.00  0.00    -0.246 N 
HETATM    3  O   UNL     1      43.685 -13.673   3.252  1.00  0.00    -0.269 OA
HETATM    4  H   UNL     1      41.787 -15.817   1.809  1.00  0.00     0.192 HD
ENDROOT
BRANCH   2   5
HETATM    5  N   UNL     1      42.873 -16.545   3.333  1.00  0.00    -0.184 NA
HETATM    6  C   UNL     1      43.709 -17.447   2.933  1.00  0.00     0.152 C 
BRANCH   6   7
HETATM    7  C   UNL     1      44.101 -18.494   3.861  1.00  0.00     0.011 A 
HETATM    8  C   UNL     1      44.257 -19.890   3.576  1.00  0.00     0.004 A 
HETATM    9  C   UNL     1      44.625 -20.522   4.766  1.00  0.00     0.043 A 
HETATM   10  C   UNL     1      44.108 -20.681   2.416  1.00  0.00     0.014 A 
HETATM   11  C   UNL     1      44.848 -21.901   4.856  1.00  0.00     0.030 A 
HETATM   12  N   UNL     1      44.704 -19.548   5.734  1.00  0.00    -0.364 N 
HETATM   13  C   UNL     1      44.690 -22.661   3.693  1.00  0.00     0.002 A 
HETATM   14  C   UNL     1      44.327 -22.062   2.489  1.00  0.00     0.001 A 
HETATM   15  H   UNL     1      44.952 -19.717   6.699  1.00  0.00     0.165 HD
HETATM   16  C   UNL     1      44.390 -18.327   5.203  1.00  0.00     0.102 A 
ENDBRANCH   6   7
ENDBRANCH   2   5
BRANCH   1  17
HETATM   17  C   UNL     1      42.070 -13.373   1.494  1.00  0.00     0.280 C 
BRANCH  17  18
HETATM   18  O   UNL     1      41.636 -14.167   0.392  1.00  0.00    -0.341 OA
BRANCH  18  19
HETATM   19  C   UNL     1      40.315 -14.016   0.053  1.00  0.00     0.076 A 
HETATM   20  C   UNL     1      39.985 -14.097  -1.315  1.00  0.00    -0.021 A 
HETATM   21  C   UNL     1      38.630 -13.985  -1.677  1.00  0.00     0.010 A 
HETATM   22  C   UNL     1      37.645 -13.748  -0.717  1.00  0.00     0.001 A 
HETATM   23  C   UNL     1      37.995 -13.612   0.622  1.00  0.00     0.003 A 
HETATM   24  C   UNL     1      39.329 -13.740   1.008  1.00  0.00     0.037 A 
BRANCH  20  25
HETATM   25  C   UNL     1      41.065 -14.347  -2.359  1.00  0.00     0.013 C 
HETATM   26  C   UNL     1      41.168 -13.256  -3.433  1.00  0.00     0.015 C 
HETATM   27  C   UNL     1      40.866 -15.717  -3.013  1.00  0.00     0.015 C 
ENDBRANCH  20  25
ENDBRANCH  18  19
ENDBRANCH  17  18
ENDBRANCH   1  17
TORSDOF 6
ENDMDL
MODEL 8
REMARK VINA RESULT:      -7.8      2.722      9.040
REMARK  6 active torsions:
REMARK  status: ('A' for Active; 'I' for Inactive)
REMARK    1  A    between atoms: C_2  and  C_3 
REMARK    2  A    between atoms: C_4  and  O_5 
REMARK    3  A    between atoms: O_5  and  C_6 
REMARK    4  A    between atoms: C_6  and  C_7 
REMARK       I    between atoms: C_7  and  N_8 
REMARK    5  A    between atoms: N_8  and  N_9 
REMARK    6  A    between atoms: C_10  and  C_11 
ROOT
HETATM    1  C   UNL     1      45.182 -13.392   7.525  1.00  0.00     0.261 C 
HETATM    2  N   UNL     1      44.273 -14.424   7.722  1.00  0.00    -0.246 N 
HETATM    3  O   UNL     1      46.056 -13.335   6.664  1.00  0.00    -0.269 OA
HETATM    4  H   UNL     1      43.602 -14.318   8.480  1.00  0.00     0.192 HD
ENDROOT
BRANCH   2   5
HETATM    5  N   UNL     1      44.169 -15.616   7.056  1.00  0.00    -0.184 NA
HETATM    6  C   UNL     1      43.536 -15.693   5.931  1.00  0.00     0.152 C 
BRANCH   6   7
HETATM    7  C   UNL     1      43.462 -16.980   5.260  1.00  0.00     0.011 A 
HETATM    8  C   UNL     1      43.520 -17.225   3.849  1.00  0.00     0.004 A 
HETATM    9  C   UNL     1      43.391 -18.603   3.658  1.00  0.00     0.043 A 
HETATM   10  C   UNL     1      43.658 -16.402   2.710  1.00  0.00     0.014 A 
HETATM   11  C   UNL     1      43.392 -19.197   2.390  1.00  0.00     0.030 A 
HETATM   12  N   UNL     1      43.275 -19.176   4.903  1.00  0.00    -0.364 N 
HETATM   13  C   UNL     1      43.527 -18.358   1.281  1.00  0.00     0.002 A 
HETATM   14  C   UNL     1      43.660 -16.980   1.435  1.00  0.00     0.001 A 
HETATM   15  H   UNL     1      43.168 -20.166   5.072  1.00  0.00     0.165 HD
HETATM   16  C   UNL     1      43.313 -18.211   5.873  1.00  0.00     0.102 A 
ENDBRANCH   6   7
ENDBRANCH   2   5
BRANCH   1  17
HETATM   17  C   UNL     1      45.045 -12.303   8.588  1.00  0.00     0.280 C 
BRANCH  17  18
HETATM   18  O   UNL     1      43.739 -11.731   8.588  1.00  0.00    -0.341 OA
BRANCH  18  19
HETATM   19  C   UNL     1      43.427 -10.999   9.706  1.00  0.00     0.076 A 
HETATM   20  C   UNL     1      42.208 -10.292   9.697  1.00  0.00    -0.021 A 
HETATM   21  C   UNL     1      41.853  -9.568  10.851  1.00  0.00     0.010 A 
HETATM   22  C   UNL     1      42.707  -9.507  11.954  1.00  0.00     0.001 A 
HETATM   23  C   UNL     1      43.933 -10.163  11.923  1.00  0.00     0.003 A 
HETATM   24  C   UNL     1      44.297 -10.903  10.799  1.00  0.00     0.037 A 
BRANCH  20  25
HETATM   25  C   UNL     1      41.284 -10.355   8.488  1.00  0.00     0.013 C 
HETATM   26  C   UNL     1      41.391  -9.146   7.549  1.00  0.00     0.015 C 
HETATM   27  C   UNL     1      39.834 -10.552   8.936  1.00  0.00     0.015 C 
ENDBRANCH  20  25
ENDBRANCH  18  19
ENDBRANCH  17  18
ENDBRANCH   1  17
TORSDOF 6
ENDMDL
MODEL 9
REMARK VINA RESULT:      -7.8      5.472      7.852
REMARK  6 active torsions:
REMARK  status: ('A' for Active; 'I' for Inactive)
REMARK    1  A    between atoms: C_2  and  C_3 
REMARK    2  A    between atoms: C_4  and  O_5 
REMARK    3  A    between atoms: O_5  and  C_6 
REMARK    4  A    between atoms: C_6  and  C_7 
REMARK       I    between atoms: C_7  and  N_8 
REMARK    5  A    between atoms: N_8  and  N_9 
REMARK    6  A    between atoms: C_10  and  C_11 
ROOT
HETATM    1  C   UNL     1      40.627 -16.309   1.825  1.00  0.00     0.261 C 
HETATM    2  N   UNL     1      41.403 -16.457   0.682  1.00  0.00    -0.246 N 
HETATM    3  O   UNL     1      39.720 -15.500   1.998  1.00  0.00    -0.269 OA
HETATM    4  H   UNL     1      42.118 -17.182   0.692  1.00  0.00     0.192 HD
ENDROOT
BRANCH   2   5
HETATM    5  N   UNL     1      41.378 -15.725  -0.474  1.00  0.00    -0.184 NA
HETATM    6  C   UNL     1      41.801 -14.502  -0.495  1.00  0.00     0.152 C 
BRANCH   6   7
HETATM    7  C   UNL     1      41.761 -13.772  -1.750  1.00  0.00     0.011 A 
HETATM    8  C   UNL     1      42.210 -12.431  -1.986  1.00  0.00     0.004 A 
HETATM    9  C   UNL     1      41.961 -12.137  -3.329  1.00  0.00     0.043 A 
HETATM   10  C   UNL     1      42.796 -11.432  -1.180  1.00  0.00     0.014 A 
HETATM   11  C   UNL     1      42.265 -10.897  -3.903  1.00  0.00     0.030 A 
HETATM   12  N   UNL     1      41.397 -13.258  -3.892  1.00  0.00    -0.364 N 
HETATM   13  C   UNL     1      42.841  -9.925  -3.081  1.00  0.00     0.002 A 
HETATM   14  C   UNL     1      43.106 -10.186  -1.738  1.00  0.00     0.001 A 
HETATM   15  H   UNL     1      41.112 -13.334  -4.858  1.00  0.00     0.165 HD
HETATM   16  C   UNL     1      41.270 -14.245  -2.953  1.00  0.00     0.102 A 
ENDBRANCH   6   7
ENDBRANCH   2   5
BRANCH   1  17
HETATM   17  C   UNL     1      41.083 -17.241   2.946  1.00  0.00     0.280 C 
BRANCH  17  18
HETATM   18  O   UNL     1      42.496 -17.189   3.131  1.00  0.00    -0.341 OA
BRANCH  18  19
HETATM   19  C   UNL     1      43.129 -18.406   3.104  1.00  0.00     0.076 A 
HETATM   20  C   UNL     1      43.884 -18.768   4.238  1.00  0.00    -0.021 A 
HETATM   21  C   UNL     1      44.508 -20.030   4.244  1.00  0.00     0.010 A 
HETATM   22  C   UNL     1      44.426 -20.879   3.139  1.00  0.00     0.001 A 
HETATM   23  C   UNL     1      43.726 -20.481   2.005  1.00  0.00     0.003 A 
HETATM   24  C   UNL     1      43.083 -19.244   1.984  1.00  0.00     0.037 A 
BRANCH  20  25
HETATM   25  C   UNL     1      43.977 -17.834   5.438  1.00  0.00     0.013 C 
HETATM   26  C   UNL     1      45.242 -18.022   6.286  1.00  0.00     0.015 C 
HETATM   27  C   UNL     1      42.727 -17.965   6.311  1.00  0.00     0.015 C 
ENDBRANCH  20  25
ENDBRANCH  18  19
ENDBRANCH  17  18
ENDBRANCH   1  17
TORSDOF 6
ENDMDL
MODEL 10
REMARK VINA RESULT:      -7.8      4.895      8.011
REMARK  6 active torsions:
REMARK  status: ('A' for Active; 'I' for Inactive)
REMARK    1  A    between atoms: C_2  and  C_3 
REMARK    2  A    between atoms: C_4  and  O_5 
REMARK    3  A    between atoms: O_5  and  C_6 
REMARK    4  A    between atoms: C_6  and  C_7 
REMARK       I    between atoms: C_7  and  N_8 
REMARK    5  A    between atoms: N_8  and  N_9 
REMARK    6  A    between atoms: C_10  and  C_11 
ROOT
HETATM    1  C   UNL     1      41.348 -15.376   3.150  1.00  0.00     0.261 C 
HETATM    2  N   UNL     1      40.451 -15.552   2.104  1.00  0.00    -0.246 N 
HETATM    3  O   UNL     1      42.332 -14.641   3.160  1.00  0.00    -0.269 OA
HETATM    4  H   UNL     1      39.678 -16.197   2.254  1.00  0.00     0.192 HD
ENDROOT
BRANCH   2   5
HETATM    5  N   UNL     1      40.475 -15.003   0.850  1.00  0.00    -0.184 NA
HETATM    6  C   UNL     1      41.305 -15.431  -0.045  1.00  0.00     0.152 C 
BRANCH   6   7
HETATM    7  C   UNL     1      41.284 -14.821  -1.364  1.00  0.00     0.011 A 
HETATM    8  C   UNL     1      41.781 -13.526  -1.727  1.00  0.00     0.004 A 
HETATM    9  C   UNL     1      41.533 -13.350  -3.090  1.00  0.00     0.043 A 
HETATM   10  C   UNL     1      42.410 -12.478  -1.020  1.00  0.00     0.014 A 
HETATM   11  C   UNL     1      41.880 -12.182  -3.780  1.00  0.00     0.030 A 
HETATM   12  N   UNL     1      40.923 -14.497  -3.542  1.00  0.00    -0.364 N 
HETATM   13  C   UNL     1      42.498 -11.160  -3.055  1.00  0.00     0.002 A 
HETATM   14  C   UNL     1      42.763 -11.304  -1.695  1.00  0.00     0.001 A 
HETATM   15  H   UNL     1      40.628 -14.652  -4.496  1.00  0.00     0.165 HD
HETATM   16  C   UNL     1      40.766 -15.386  -2.514  1.00  0.00     0.102 A 
ENDBRANCH   6   7
ENDBRANCH   2   5
BRANCH   1  17
HETATM   17  C   UNL     1      41.032 -16.293   4.330  1.00  0.00     0.280 C 
BRANCH  17  18
HETATM   18  O   UNL     1      41.358 -17.651   4.042  1.00  0.00    -0.341 OA
BRANCH  18  19
HETATM   19  C   UNL     1      42.489 -18.119   4.663  1.00  0.00     0.076 A 
HETATM   20  C   UNL     1      43.415 -18.829   3.871  1.00  0.00    -0.021 A 
HETATM   21  C   UNL     1      44.599 -19.281   4.482  1.00  0.00     0.010 A 
HETATM   22  C   UNL     1      44.829 -19.081   5.844  1.00  0.00     0.001 A 
HETATM   23  C   UNL     1      43.879 -18.430   6.623  1.00  0.00     0.003 A 
HETATM   24  C   UNL     1      42.707 -17.955   6.036  1.00  0.00     0.037 A 
BRANCH  20  25
HETATM   25  C   UNL     1      43.155 -19.052   2.387  1.00  0.00     0.013 C 
HETATM   26  C   UNL     1      43.557 -20.443   1.879  1.00  0.00     0.015 C 
HETATM   27  C   UNL     1      43.842 -17.965   1.557  1.00  0.00     0.015 C 
ENDBRANCH  20  25
ENDBRANCH  18  19
ENDBRANCH  17  18
ENDBRANCH   1  17
TORSDOF 6
ENDMDL
