MODEL 1
REMARK VINA RESULT:      -8.1      0.000      0.000
REMARK  5 active torsions:
REMARK  status: ('A' for Active; 'I' for Inactive)
REMARK    1  A    between atoms: C_2  and  N_3 
REMARK       I    between atoms: N_3  and  C_4 
REMARK    2  A    between atoms: C_4  and  C_5 
REMARK    3  A    between atoms: C_13  and  C_14 
REMARK    4  A    between atoms: C_15  and  O_16 
REMARK    5  A    between atoms: C_19  and  O_20 
ROOT
HETATM    1  C   UNL     1      41.511 -15.500   1.144  1.00  0.00     0.046 A 
HETATM    2  C   UNL     1      40.927 -14.913   2.289  1.00  0.00     0.008 A 
HETATM    3  C   UNL     1      41.096 -15.614   3.499  1.00  0.00     0.068 A 
HETATM    4  C   UNL     1      40.550 -15.087   4.661  1.00  0.00     0.032 A 
HETATM    5  C   UNL     1      39.842 -13.883   4.669  1.00  0.00     0.002 A 
HETATM    6  C   UNL     1      39.674 -13.180   3.485  1.00  0.00     0.001 A 
HETATM    7  C   UNL     1      40.213 -13.688   2.304  1.00  0.00     0.015 A 
HETATM    8  N   UNL     1      41.771 -16.772   3.587  1.00  0.00    -0.247 NA
HETATM    9  C   UNL     1      42.291 -17.327   2.467  1.00  0.00     0.071 A 
HETATM   10  C   UNL     1      42.187 -16.719   1.230  1.00  0.00     0.050 A 
ENDROOT
BRANCH   9  11
HETATM   11  C   UNL     1      43.010 -18.594   2.645  1.00  0.00     0.026 A 
HETATM   12  C   UNL     1      43.901 -18.811   3.710  1.00  0.00     0.083 A 
HETATM   13  C   UNL     1      44.545 -20.044   3.891  1.00  0.00     0.074 A 
HETATM   14  C   UNL     1      44.338 -21.078   2.981  1.00  0.00     0.070 A 
HETATM   15  C   UNL     1      43.474 -20.873   1.904  1.00  0.00     0.038 A 
HETATM   16  C   UNL     1      42.816 -19.650   1.739  1.00  0.00     0.019 A 
BRANCH  12  17
HETATM   17  O   UNL     1      44.083 -17.836   4.662  1.00  0.00    -0.355 OA
HETATM   18  C   UNL     1      44.737 -18.381   5.808  1.00  0.00     0.210 C 
ENDBRANCH  12  17
BRANCH  14  19
HETATM   19  O   UNL     1      44.902 -22.322   3.033  1.00  0.00    -0.356 OA
HETATM   20  C   UNL     1      44.818 -23.015   4.272  1.00  0.00     0.210 C 
ENDBRANCH  14  19
ENDBRANCH   9  11
BRANCH   1  21
HETATM   21  C   UNL     1      41.425 -14.861  -0.194  1.00  0.00     0.253 C 
HETATM   22  N   UNL     1      40.599 -15.513  -1.087  1.00  0.00    -0.349 N 
HETATM   23  H   UNL     1      40.266 -16.431  -0.824  1.00  0.00     0.163 HD
HETATM   24  O   UNL     1      42.060 -13.844  -0.436  1.00  0.00    -0.268 OA
BRANCH  22  25
HETATM   25  C   UNL     1      40.392 -15.106  -2.487  1.00  0.00     0.022 C 
HETATM   26  C   UNL     1      41.721 -14.679  -3.130  1.00  0.00     0.037 C 
HETATM   27  C   UNL     1      39.364 -13.969  -2.590  1.00  0.00     0.037 C 
HETATM   28  C   UNL     1      39.842 -16.321  -3.256  1.00  0.00     0.037 C 
ENDBRANCH  22  25
ENDBRANCH   1  21
TORSDOF 5
ENDMDL
MODEL 2
REMARK VINA RESULT:      -8.1      4.067      6.559
REMARK  5 active torsions:
REMARK  status: ('A' for Active; 'I' for Inactive)
REMARK    1  A    between atoms: C_2  and  N_3 
REMARK       I    between atoms: N_3  and  C_4 
REMARK    2  A    between atoms: C_4  and  C_5 
REMARK    3  A    between atoms: C_13  and  C_14 
REMARK    4  A    between atoms: C_15  and  O_16 
REMARK    5  A    between atoms: C_19  and  O_20 
ROOT
HETATM    1  C   UNL     1      43.762 -14.607   6.397  1.00  0.00     0.046 A 
HETATM    2  C   UNL     1      42.543 -14.214   5.801  1.00  0.00     0.008 A 
HETATM    3  C   UNL     1      41.827 -15.225   5.132  1.00  0.00     0.068 A 
HETATM    4  C   UNL     1      40.618 -14.904   4.530  1.00  0.00     0.032 A 
HETATM    5  C   UNL     1      40.089 -13.613   4.569  1.00  0.00     0.002 A 
HETATM    6  C   UNL     1      40.781 -12.609   5.230  1.00  0.00     0.001 A 
HETATM    7  C   UNL     1      41.997 -12.905   5.844  1.00  0.00     0.015 A 
HETATM    8  N   UNL     1      42.253 -16.497   5.052  1.00  0.00    -0.247 NA
HETATM    9  C   UNL     1      43.442 -16.835   5.605  1.00  0.00     0.071 A 
HETATM   10  C   UNL     1      44.221 -15.921   6.289  1.00  0.00     0.050 A 
ENDROOT
BRANCH   9  11
HETATM   11  C   UNL     1      43.841 -18.242   5.473  1.00  0.00     0.026 A 
HETATM   12  C   UNL     1      43.784 -19.145   6.548  1.00  0.00     0.083 A 
HETATM   13  C   UNL     1      44.126 -20.496   6.393  1.00  0.00     0.074 A 
HETATM   14  C   UNL     1      44.571 -20.965   5.160  1.00  0.00     0.070 A 
HETATM   15  C   UNL     1      44.655 -20.077   4.086  1.00  0.00     0.038 A 
HETATM   16  C   UNL     1      44.293 -18.735   4.237  1.00  0.00     0.019 A 
BRANCH  12  17
HETATM   17  O   UNL     1      43.292 -18.733   7.764  1.00  0.00    -0.355 OA
HETATM   18  C   UNL     1      44.334 -18.726   8.741  1.00  0.00     0.210 C 
ENDBRANCH  12  17
BRANCH  14  19
HETATM   19  O   UNL     1      44.939 -22.249   4.870  1.00  0.00    -0.356 OA
HETATM   20  C   UNL     1      44.628 -22.729   3.568  1.00  0.00     0.210 C 
ENDBRANCH  14  19
ENDBRANCH   9  11
BRANCH   1  21
HETATM   21  C   UNL     1      44.611 -13.648   7.149  1.00  0.00     0.253 C 
HETATM   22  N   UNL     1      44.070 -13.220   8.345  1.00  0.00    -0.349 N 
HETATM   23  H   UNL     1      43.102 -13.452   8.524  1.00  0.00     0.163 HD
HETATM   24  O   UNL     1      45.692 -13.293   6.699  1.00  0.00    -0.268 OA
BRANCH  22  25
HETATM   25  C   UNL     1      44.693 -12.232   9.240  1.00  0.00     0.022 C 
HETATM   26  C   UNL     1      46.131 -11.925   8.794  1.00  0.00     0.037 C 
HETATM   27  C   UNL     1      44.683 -12.718  10.698  1.00  0.00     0.037 C 
HETATM   28  C   UNL     1      43.867 -10.935   9.162  1.00  0.00     0.037 C 
ENDBRANCH  22  25
ENDBRANCH   1  21
TORSDOF 5
ENDMDL
MODEL 3
REMARK VINA RESULT:      -7.9      3.857      6.803
REMARK  5 active torsions:
REMARK  status: ('A' for Active; 'I' for Inactive)
REMARK    1  A    between atoms: C_2  and  N_3 
REMARK       I    between atoms: N_3  and  C_4 
REMARK    2  A    between atoms: C_4  and  C_5 
REMARK    3  A    between atoms: C_13  and  C_14 
REMARK    4  A    between atoms: C_15  and  O_16 
REMARK    5  A    between atoms: C_19  and  O_20 
ROOT
HETATM    1  C   UNL     1      43.768 -14.182   6.584  1.00  0.00     0.046 A 
HETATM    2  C   UNL     1      42.596 -13.663   5.991  1.00  0.00     0.008 A 
HETATM    3  C   UNL     1      41.881 -14.545   5.157  1.00  0.00     0.068 A 
HETATM    4  C   UNL     1      40.716 -14.097   4.549  1.00  0.00     0.032 A 
HETATM    5  C   UNL     1      40.231 -12.802   4.739  1.00  0.00     0.002 A 
HETATM    6  C   UNL     1      40.921 -11.925   5.562  1.00  0.00     0.001 A 
HETATM    7  C   UNL     1      42.093 -12.351   6.186  1.00  0.00     0.015 A 
HETATM    8  N   UNL     1      42.267 -15.810   4.925  1.00  0.00    -0.247 NA
HETATM    9  C   UNL     1      43.414 -16.269   5.481  1.00  0.00     0.071 A 
HETATM   10  C   UNL     1      44.187 -15.487   6.319  1.00  0.00     0.050 A 
ENDROOT
BRANCH   9  11
HETATM   11  C   UNL     1      43.770 -17.659   5.177  1.00  0.00     0.026 A 
HETATM   12  C   UNL     1      43.967 -18.117   3.863  1.00  0.00     0.083 A 
HETATM   13  C   UNL     1      44.352 -19.439   3.594  1.00  0.00     0.074 A 
HETATM   14  C   UNL     1      44.511 -20.345   4.639  1.00  0.00     0.070 A 
HETATM   15  C   UNL     1      44.298 -19.914   5.950  1.00  0.00     0.038 A 
HETATM   16  C   UNL     1      43.935 -18.590   6.218  1.00  0.00     0.019 A 
BRANCH  12  17
HETATM   17  O   UNL     1      43.879 -17.237   2.810  1.00  0.00    -0.355 OA
HETATM   18  C   UNL     1      44.111 -17.919   1.577  1.00  0.00     0.210 C 
ENDBRANCH  12  17
BRANCH  14  19
HETATM   19  O   UNL     1      44.876 -21.656   4.521  1.00  0.00    -0.356 OA
HETATM   20  C   UNL     1      44.500 -22.323   3.322  1.00  0.00     0.210 C 
ENDBRANCH  14  19
ENDBRANCH   9  11
BRANCH   1  21
HETATM   21  C   UNL     1      44.609 -13.368   7.498  1.00  0.00     0.253 C 
HETATM   22  N   UNL     1      43.913 -12.746   8.515  1.00  0.00    -0.349 N 
HETATM   23  H   UNL     1      42.903 -12.755   8.456  1.00  0.00     0.163 HD
HETATM   24  O   UNL     1      45.817 -13.284   7.318  1.00  0.00    -0.268 OA
BRANCH  22  25
HETATM   25  C   UNL     1      44.514 -11.845   9.512  1.00  0.00     0.022 C 
HETATM   26  C   UNL     1      43.608 -10.629   9.760  1.00  0.00     0.037 C 
HETATM   27  C   UNL     1      45.912 -11.383   9.073  1.00  0.00     0.037 C 
HETATM   28  C   UNL     1      44.659 -12.627  10.830  1.00  0.00     0.037 C 
ENDBRANCH  22  25
ENDBRANCH   1  21
TORSDOF 5
ENDMDL
MODEL 4
REMARK VINA RESULT:      -7.5      1.748      4.281
REMARK  5 active torsions:
REMARK  status: ('A' for Active; 'I' for Inactive)
REMARK    1  A    between atoms: C_2  and  N_3 
REMARK       I    between atoms: N_3  and  C_4 
REMARK    2  A    between atoms: C_4  and  C_5 
REMARK    3  A    between atoms: C_13  and  C_14 
REMARK    4  A    between atoms: C_15  and  O_16 
REMARK    5  A    between atoms: C_19  and  O_20 
ROOT
HETATM    1  C   UNL     1      42.380 -14.920   2.473  1.00  0.00     0.046 A 
HETATM    2  C   UNL     1      41.831 -14.857   1.172  1.00  0.00     0.008 A 
HETATM    3  C   UNL     1      41.858 -16.054   0.431  1.00  0.00     0.068 A 
HETATM    4  C   UNL     1      41.328 -16.060  -0.853  1.00  0.00     0.032 A 
HETATM    5  C   UNL     1      40.770 -14.918  -1.430  1.00  0.00     0.002 A 
HETATM    6  C   UNL     1      40.732 -13.734  -0.709  1.00  0.00     0.001 A 
HETATM    7  C   UNL     1      41.256 -13.702   0.583  1.00  0.00     0.015 A 
HETATM    8  N   UNL     1      42.365 -17.202   0.909  1.00  0.00    -0.247 NA
HETATM    9  C   UNL     1      42.914 -17.223   2.147  1.00  0.00     0.071 A 
HETATM   10  C   UNL     1      42.934 -16.105   2.959  1.00  0.00     0.050 A 
ENDROOT
BRANCH   9  11
HETATM   11  C   UNL     1      43.451 -18.513   2.596  1.00  0.00     0.026 A 
HETATM   12  C   UNL     1      43.988 -18.698   3.881  1.00  0.00     0.083 A 
HETATM   13  C   UNL     1      44.456 -19.949   4.311  1.00  0.00     0.074 A 
HETATM   14  C   UNL     1      44.429 -21.038   3.442  1.00  0.00     0.070 A 
HETATM   15  C   UNL     1      43.919 -20.867   2.154  1.00  0.00     0.038 A 
HETATM   16  C   UNL     1      43.434 -19.624   1.736  1.00  0.00     0.019 A 
BRANCH  12  17
HETATM   17  O   UNL     1      43.975 -17.663   4.786  1.00  0.00    -0.355 OA
HETATM   18  C   UNL     1      43.672 -18.154   6.093  1.00  0.00     0.210 C 
ENDBRANCH  12  17
BRANCH  14  19
HETATM   19  O   UNL     1      44.854 -22.306   3.726  1.00  0.00    -0.356 OA
HETATM   20  C   UNL     1      45.135 -22.600   5.088  1.00  0.00     0.210 C 
ENDBRANCH  14  19
ENDBRANCH   9  11
BRANCH   1  21
HETATM   21  C   UNL     1      42.402 -13.737   3.371  1.00  0.00     0.253 C 
HETATM   22  N   UNL     1      41.214 -13.496   4.030  1.00  0.00    -0.349 N 
HETATM   23  H   UNL     1      40.403 -14.021   3.729  1.00  0.00     0.163 HD
HETATM   24  O   UNL     1      43.417 -13.061   3.479  1.00  0.00    -0.268 OA
BRANCH  22  25
HETATM   25  C   UNL     1      40.971 -12.356   4.929  1.00  0.00     0.022 C 
HETATM   26  C   UNL     1      41.096 -11.027   4.167  1.00  0.00     0.037 C 
HETATM   27  C   UNL     1      41.937 -12.375   6.125  1.00  0.00     0.037 C 
HETATM   28  C   UNL     1      39.535 -12.478   5.471  1.00  0.00     0.037 C 
ENDBRANCH  22  25
ENDBRANCH   1  21
TORSDOF 5
ENDMDL
MODEL 5
REMARK VINA RESULT:      -7.5      2.795      5.584
REMARK  5 active torsions:
REMARK  status: ('A' for Active; 'I' for Inactive)
REMARK    1  A    between atoms: C_2  and  N_3 
REMARK       I    between atoms: N_3  and  C_4 
REMARK    2  A    between atoms: C_4  and  C_5 
REMARK    3  A    between atoms: C_13  and  C_14 
REMARK    4  A    between atoms: C_15  and  O_16 
REMARK    5  A    between atoms: C_19  and  O_20 
ROOT
HETATM    1  C   UNL     1      40.728 -13.303   4.215  1.00  0.00     0.046 A 
HETATM    2  C   UNL     1      39.805 -13.415   3.151  1.00  0.00     0.008 A 
HETATM    3  C   UNL     1      39.741 -14.671   2.516  1.00  0.00     0.068 A 
HETATM    4  C   UNL     1      38.850 -14.847   1.466  1.00  0.00     0.032 A 
HETATM    5  C   UNL     1      38.014 -13.821   1.022  1.00  0.00     0.002 A 
HETATM    6  C   UNL     1      38.063 -12.581   1.642  1.00  0.00     0.001 A 
HETATM    7  C   UNL     1      38.948 -12.379   2.700  1.00  0.00     0.015 A 
HETATM    8  N   UNL     1      40.500 -15.717   2.883  1.00  0.00    -0.247 NA
HETATM    9  C   UNL     1      41.399 -15.570   3.884  1.00  0.00     0.071 A 
HETATM   10  C   UNL     1      41.537 -14.381   4.577  1.00  0.00     0.050 A 
ENDROOT
BRANCH   9  11
HETATM   11  C   UNL     1      42.192 -16.757   4.224  1.00  0.00     0.026 A 
HETATM   12  C   UNL     1      43.229 -17.230   3.402  1.00  0.00     0.083 A 
HETATM   13  C   UNL     1      44.007 -18.339   3.764  1.00  0.00     0.074 A 
HETATM   14  C   UNL     1      43.735 -19.025   4.945  1.00  0.00     0.070 A 
HETATM   15  C   UNL     1      42.693 -18.584   5.762  1.00  0.00     0.038 A 
HETATM   16  C   UNL     1      41.933 -17.464   5.410  1.00  0.00     0.019 A 
BRANCH  12  17
HETATM   17  O   UNL     1      43.568 -16.542   2.261  1.00  0.00    -0.355 OA
HETATM   18  C   UNL     1      43.650 -17.438   1.151  1.00  0.00     0.210 C 
ENDBRANCH  12  17
BRANCH  14  19
HETATM   19  O   UNL     1      44.406 -20.119   5.415  1.00  0.00    -0.356 OA
HETATM   20  C   UNL     1      45.115 -20.898   4.460  1.00  0.00     0.210 C 
ENDBRANCH  14  19
ENDBRANCH   9  11
BRANCH   1  21
HETATM   21  C   UNL     1      40.887 -12.042   4.983  1.00  0.00     0.253 C 
HETATM   22  N   UNL     1      40.226 -12.023   6.195  1.00  0.00    -0.349 N 
HETATM   23  H   UNL     1      39.572 -12.773   6.377  1.00  0.00     0.163 HD
HETATM   24  O   UNL     1      41.557 -11.123   4.532  1.00  0.00    -0.268 OA
BRANCH  22  25
HETATM   25  C   UNL     1      40.187 -10.871   7.110  1.00  0.00     0.022 C 
HETATM   26  C   UNL     1      39.473  -9.679   6.452  1.00  0.00     0.037 C 
HETATM   27  C   UNL     1      41.602 -10.463   7.551  1.00  0.00     0.037 C 
HETATM   28  C   UNL     1      39.396 -11.287   8.363  1.00  0.00     0.037 C 
ENDBRANCH  22  25
ENDBRANCH   1  21
TORSDOF 5
ENDMDL
MODEL 6
REMARK VINA RESULT:      -7.4      2.273      4.629
REMARK  5 active torsions:
REMARK  status: ('A' for Active; 'I' for Inactive)
REMARK    1  A    between atoms: C_2  and  N_3 
REMARK       I    between atoms: N_3  and  C_4 
REMARK    2  A    between atoms: C_4  and  C_5 
REMARK    3  A    between atoms: C_13  and  C_14 
REMARK    4  A    between atoms: C_15  and  O_16 
REMARK    5  A    between atoms: C_19  and  O_20 
ROOT
HETATM    1  C   UNL     1      41.473 -13.496   0.111  1.00  0.00     0.046 A 
HETATM    2  C   UNL     1      40.989 -13.913  -1.150  1.00  0.00     0.008 A 
HETATM    3  C   UNL     1      41.045 -15.297  -1.407  1.00  0.00     0.068 A 
HETATM    4  C   UNL     1      40.579 -15.772  -2.625  1.00  0.00     0.032 A 
HETATM    5  C   UNL     1      40.056 -14.923  -3.602  1.00  0.00     0.002 A 
HETATM    6  C   UNL     1      39.990 -13.559  -3.359  1.00  0.00     0.001 A 
HETATM    7  C   UNL     1      40.449 -13.056  -2.142  1.00  0.00     0.015 A 
HETATM    8  N   UNL     1      41.522 -16.189  -0.523  1.00  0.00    -0.247 NA
HETATM    9  C   UNL     1      42.010 -15.755   0.663  1.00  0.00     0.071 A 
HETATM   10  C   UNL     1      41.997 -14.419   1.018  1.00  0.00     0.050 A 
ENDROOT
BRANCH   9  11
HETATM   11  C   UNL     1      42.516 -16.789   1.573  1.00  0.00     0.026 A 
HETATM   12  C   UNL     1      41.915 -17.062   2.814  1.00  0.00     0.083 A 
HETATM   13  C   UNL     1      42.384 -18.084   3.651  1.00  0.00     0.074 A 
HETATM   14  C   UNL     1      43.498 -18.834   3.278  1.00  0.00     0.070 A 
HETATM   15  C   UNL     1      44.123 -18.561   2.060  1.00  0.00     0.038 A 
HETATM   16  C   UNL     1      43.639 -17.556   1.217  1.00  0.00     0.019 A 
BRANCH  12  17
HETATM   17  O   UNL     1      40.778 -16.385   3.188  1.00  0.00    -0.355 OA
HETATM   18  C   UNL     1      40.996 -15.696   4.419  1.00  0.00     0.210 C 
ENDBRANCH  12  17
BRANCH  14  19
HETATM   19  O   UNL     1      44.062 -19.851   3.995  1.00  0.00    -0.356 OA
HETATM   20  C   UNL     1      44.712 -20.876   3.255  1.00  0.00     0.210 C 
ENDBRANCH  14  19
ENDBRANCH   9  11
BRANCH   1  21
HETATM   21  C   UNL     1      41.459 -12.069   0.521  1.00  0.00     0.253 C 
HETATM   22  N   UNL     1      40.236 -11.616   0.975  1.00  0.00    -0.349 N 
HETATM   23  H   UNL     1      39.438 -12.222   0.836  1.00  0.00     0.163 HD
HETATM   24  O   UNL     1      42.474 -11.391   0.439  1.00  0.00    -0.268 OA
BRANCH  22  25
HETATM   25  C   UNL     1      39.956 -10.231   1.386  1.00  0.00     0.022 C 
HETATM   26  C   UNL     1      40.279  -9.251   0.247  1.00  0.00     0.037 C 
HETATM   27  C   UNL     1      40.747  -9.855   2.649  1.00  0.00     0.037 C 
HETATM   28  C   UNL     1      38.455 -10.128   1.713  1.00  0.00     0.037 C 
ENDBRANCH  22  25
ENDBRANCH   1  21
TORSDOF 5
ENDMDL
MODEL 7
REMARK VINA RESULT:      -7.3      1.588      2.193
REMARK  5 active torsions:
REMARK  status: ('A' for Active; 'I' for Inactive)
REMARK    1  A    between atoms: C_2  and  N_3 
REMARK       I    between atoms: N_3  and  C_4 
REMARK    2  A    between atoms: C_4  and  C_5 
REMARK    3  A    between atoms: C_13  and  C_14 
REMARK    4  A    between atoms: C_15  and  O_16 
REMARK    5  A    between atoms: C_19  and  O_20 
ROOT
HETATM    1  C   UNL     1      40.665 -14.605   0.347  1.00  0.00     0.046 A 
HETATM    2  C   UNL     1      40.100 -13.759   1.328  1.00  0.00     0.008 A 
HETATM    3  C   UNL     1      40.367 -14.101   2.668  1.00  0.00     0.068 A 
HETATM    4  C   UNL     1      39.845 -13.307   3.680  1.00  0.00     0.032 A 
HETATM    5  C   UNL     1      39.066 -12.179   3.411  1.00  0.00     0.002 A 
HETATM    6  C   UNL     1      38.801 -11.828   2.095  1.00  0.00     0.001 A 
HETATM    7  C   UNL     1      39.315 -12.609   1.061  1.00  0.00     0.015 A 
HETATM    8  N   UNL     1      41.113 -15.161   3.021  1.00  0.00    -0.247 NA
HETATM    9  C   UNL     1      41.614 -15.972   2.059  1.00  0.00     0.071 A 
HETATM   10  C   UNL     1      41.416 -15.723   0.713  1.00  0.00     0.050 A 
ENDROOT
BRANCH   9  11
HETATM   11  C   UNL     1      42.415 -17.110   2.523  1.00  0.00     0.026 A 
HETATM   12  C   UNL     1      42.205 -17.720   3.771  1.00  0.00     0.083 A 
HETATM   13  C   UNL     1      42.950 -18.836   4.180  1.00  0.00     0.074 A 
HETATM   14  C   UNL     1      43.954 -19.343   3.358  1.00  0.00     0.070 A 
HETATM   15  C   UNL     1      44.192 -18.735   2.124  1.00  0.00     0.038 A 
HETATM   16  C   UNL     1      43.433 -17.636   1.709  1.00  0.00     0.019 A 
BRANCH  12  17
HETATM   17  O   UNL     1      41.184 -17.287   4.583  1.00  0.00    -0.355 OA
HETATM   18  C   UNL     1      41.614 -17.257   5.945  1.00  0.00     0.210 C 
ENDBRANCH  12  17
BRANCH  14  19
HETATM   19  O   UNL     1      44.755 -20.416   3.632  1.00  0.00    -0.356 OA
HETATM   20  C   UNL     1      44.770 -20.881   4.975  1.00  0.00     0.210 C 
ENDBRANCH  14  19
ENDBRANCH   9  11
BRANCH   1  21
HETATM   21  C   UNL     1      40.479 -14.353  -1.104  1.00  0.00     0.253 C 
HETATM   22  N   UNL     1      39.258 -14.758  -1.604  1.00  0.00    -0.349 N 
HETATM   23  H   UNL     1      38.677 -15.327  -1.001  1.00  0.00     0.163 HD
HETATM   24  O   UNL     1      41.370 -13.831  -1.761  1.00  0.00    -0.268 OA
BRANCH  22  25
HETATM   25  C   UNL     1      38.858 -14.666  -3.017  1.00  0.00     0.022 C 
HETATM   26  C   UNL     1      37.374 -15.026  -3.186  1.00  0.00     0.037 C 
HETATM   27  C   UNL     1      39.728 -15.575  -3.901  1.00  0.00     0.037 C 
HETATM   28  C   UNL     1      39.066 -13.211  -3.474  1.00  0.00     0.037 C 
ENDBRANCH  22  25
ENDBRANCH   1  21
TORSDOF 5
ENDMDL
MODEL 8
REMARK VINA RESULT:      -7.2      4.179      7.038
REMARK  5 active torsions:
REMARK  status: ('A' for Active; 'I' for Inactive)
REMARK    1  A    between atoms: C_2  and  N_3 
REMARK       I    between atoms: N_3  and  C_4 
REMARK    2  A    between atoms: C_4  and  C_5 
REMARK    3  A    between atoms: C_13  and  C_14 
REMARK    4  A    between atoms: C_15  and  O_16 
REMARK    5  A    between atoms: C_19  and  O_20 
ROOT
HETATM    1  C   UNL     1      43.409 -13.443   6.712  1.00  0.00     0.046 A 
HETATM    2  C   UNL     1      42.323 -12.661   6.261  1.00  0.00     0.008 A 
HETATM    3  C   UNL     1      41.590 -13.186   5.179  1.00  0.00     0.068 A 
HETATM    4  C   UNL     1      40.506 -12.468   4.692  1.00  0.00     0.032 A 
HETATM    5  C   UNL     1      40.120 -11.243   5.241  1.00  0.00     0.002 A 
HETATM    6  C   UNL     1      40.830 -10.718   6.310  1.00  0.00     0.001 A 
HETATM    7  C   UNL     1      41.921 -11.420   6.819  1.00  0.00     0.015 A 
HETATM    8  N   UNL     1      41.882 -14.360   4.595  1.00  0.00    -0.247 NA
HETATM    9  C   UNL     1      42.949 -15.071   5.029  1.00  0.00     0.071 A 
HETATM   10  C   UNL     1      43.732 -14.648   6.087  1.00  0.00     0.050 A 
ENDROOT
BRANCH   9  11
HETATM   11  C   UNL     1      43.206 -16.340   4.338  1.00  0.00     0.026 A 
HETATM   12  C   UNL     1      43.183 -17.578   5.003  1.00  0.00     0.083 A 
HETATM   13  C   UNL     1      43.386 -18.785   4.319  1.00  0.00     0.074 A 
HETATM   14  C   UNL     1      43.656 -18.775   2.953  1.00  0.00     0.070 A 
HETATM   15  C   UNL     1      43.707 -17.553   2.280  1.00  0.00     0.038 A 
HETATM   16  C   UNL     1      43.482 -16.352   2.960  1.00  0.00     0.019 A 
BRANCH  12  17
HETATM   17  O   UNL     1      42.858 -17.633   6.338  1.00  0.00    -0.355 OA
HETATM   18  C   UNL     1      43.621 -18.649   6.990  1.00  0.00     0.210 C 
ENDBRANCH  12  17
BRANCH  14  19
HETATM   19  O   UNL     1      43.878 -19.871   2.167  1.00  0.00    -0.356 OA
HETATM   20  C   UNL     1      44.681 -20.906   2.718  1.00  0.00     0.210 C 
ENDBRANCH  14  19
ENDBRANCH   9  11
BRANCH   1  21
HETATM   21  C   UNL     1      44.258 -13.019   7.855  1.00  0.00     0.253 C 
HETATM   22  N   UNL     1      43.636 -12.165   8.744  1.00  0.00    -0.349 N 
HETATM   23  H   UNL     1      42.744 -11.777   8.465  1.00  0.00     0.163 HD
HETATM   24  O   UNL     1      45.410 -13.418   7.952  1.00  0.00    -0.268 OA
BRANCH  22  25
HETATM   25  C   UNL     1      44.283 -11.566   9.922  1.00  0.00     0.022 C 
HETATM   26  C   UNL     1      44.436 -12.604  11.045  1.00  0.00     0.037 C 
HETATM   27  C   UNL     1      43.495 -10.348  10.430  1.00  0.00     0.037 C 
HETATM   28  C   UNL     1      45.684 -11.087   9.500  1.00  0.00     0.037 C 
ENDBRANCH  22  25
ENDBRANCH   1  21
TORSDOF 5
ENDMDL
MODEL 9
REMARK VINA RESULT:      -7.0      2.860      7.309
REMARK  5 active torsions:
REMARK  status: ('A' for Active; 'I' for Inactive)
REMARK    1  A    between atoms: C_2  and  N_3 
REMARK       I    between atoms: N_3  and  C_4 
REMARK    2  A    between atoms: C_4  and  C_5 
REMARK    3  A    between atoms: C_13  and  C_14 
REMARK    4  A    between atoms: C_15  and  O_16 
REMARK    5  A    between atoms: C_19  and  O_20 
ROOT
HETATM    1  C   UNL     1      42.953 -17.862   3.695  1.00  0.00     0.046 A 
HETATM    2  C   UNL     1      43.064 -17.799   5.102  1.00  0.00     0.008 A 
HETATM    3  C   UNL     1      42.263 -16.834   5.743  1.00  0.00     0.068 A 
HETATM    4  C   UNL     1      42.322 -16.725   7.126  1.00  0.00     0.032 A 
HETATM    5  C   UNL     1      43.149 -17.541   7.900  1.00  0.00     0.002 A 
HETATM    6  C   UNL     1      43.939 -18.499   7.281  1.00  0.00     0.001 A 
HETATM    7  C   UNL     1      43.896 -18.630   5.894  1.00  0.00     0.015 A 
HETATM    8  N   UNL     1      41.431 -16.014   5.080  1.00  0.00    -0.247 NA
HETATM    9  C   UNL     1      41.370 -16.076   3.729  1.00  0.00     0.071 A 
HETATM   10  C   UNL     1      42.111 -16.990   3.003  1.00  0.00     0.050 A 
ENDROOT
BRANCH   9  11
HETATM   11  C   UNL     1      40.441 -15.145   3.078  1.00  0.00     0.026 A 
HETATM   12  C   UNL     1      40.490 -13.757   3.296  1.00  0.00     0.083 A 
HETATM   13  C   UNL     1      39.624 -12.877   2.630  1.00  0.00     0.074 A 
HETATM   14  C   UNL     1      38.660 -13.376   1.757  1.00  0.00     0.070 A 
HETATM   15  C   UNL     1      38.581 -14.754   1.547  1.00  0.00     0.038 A 
HETATM   16  C   UNL     1      39.461 -15.627   2.195  1.00  0.00     0.019 A 
BRANCH  12  17
HETATM   17  O   UNL     1      41.467 -13.223   4.102  1.00  0.00    -0.355 OA
HETATM   18  C   UNL     1      40.906 -12.237   4.969  1.00  0.00     0.210 C 
ENDBRANCH  12  17
BRANCH  14  19
HETATM   19  O   UNL     1      37.753 -12.637   1.050  1.00  0.00    -0.356 OA
HETATM   20  C   UNL     1      37.485 -11.324   1.524  1.00  0.00     0.210 C 
ENDBRANCH  14  19
ENDBRANCH   9  11
BRANCH   1  21
HETATM   21  C   UNL     1      43.727 -18.843   2.892  1.00  0.00     0.253 C 
HETATM   22  N   UNL     1      43.678 -20.138   3.367  1.00  0.00    -0.349 N 
HETATM   23  H   UNL     1      43.275 -20.279   4.284  1.00  0.00     0.163 HD
HETATM   24  O   UNL     1      44.346 -18.480   1.900  1.00  0.00    -0.268 OA
BRANCH  22  25
HETATM   25  C   UNL     1      44.404 -21.275   2.778  1.00  0.00     0.022 C 
HETATM   26  C   UNL     1      45.847 -20.876   2.431  1.00  0.00     0.037 C 
HETATM   27  C   UNL     1      43.685 -21.806   1.527  1.00  0.00     0.037 C 
HETATM   28  C   UNL     1      44.443 -22.404   3.823  1.00  0.00     0.037 C 
ENDBRANCH  22  25
ENDBRANCH   1  21
TORSDOF 5
ENDMDL
MODEL 10
REMARK VINA RESULT:      -6.9      3.067      6.695
REMARK  5 active torsions:
REMARK  status: ('A' for Active; 'I' for Inactive)
REMARK    1  A    between atoms: C_2  and  N_3 
REMARK       I    between atoms: N_3  and  C_4 
REMARK    2  A    between atoms: C_4  and  C_5 
REMARK    3  A    between atoms: C_13  and  C_14 
REMARK    4  A    between atoms: C_15  and  O_16 
REMARK    5  A    between atoms: C_19  and  O_20 
ROOT
HETATM    1  C   UNL     1      41.353 -14.818   1.221  1.00  0.00     0.046 A 
HETATM    2  C   UNL     1      42.220 -15.857   1.627  1.00  0.00     0.008 A 
HETATM    3  C   UNL     1      42.508 -15.920   3.005  1.00  0.00     0.068 A 
HETATM    4  C   UNL     1      43.350 -16.921   3.469  1.00  0.00     0.032 A 
HETATM    5  C   UNL     1      43.918 -17.868   2.614  1.00  0.00     0.002 A 
HETATM    6  C   UNL     1      43.638 -17.821   1.257  1.00  0.00     0.001 A 
HETATM    7  C   UNL     1      42.794 -16.826   0.766  1.00  0.00     0.015 A 
HETATM    8  N   UNL     1      41.999 -15.058   3.901  1.00  0.00    -0.247 NA
HETATM    9  C   UNL     1      41.197 -14.053   3.477  1.00  0.00     0.071 A 
HETATM   10  C   UNL     1      40.847 -13.904   2.148  1.00  0.00     0.050 A 
ENDROOT
BRANCH   9  11
HETATM   11  C   UNL     1      40.684 -13.151   4.515  1.00  0.00     0.026 A 
HETATM   12  C   UNL     1      40.787 -11.753   4.417  1.00  0.00     0.083 A 
HETATM   13  C   UNL     1      40.251 -10.905   5.396  1.00  0.00     0.074 A 
HETATM   14  C   UNL     1      39.630 -11.444   6.520  1.00  0.00     0.070 A 
HETATM   15  C   UNL     1      39.539 -12.831   6.646  1.00  0.00     0.038 A 
HETATM   16  C   UNL     1      40.055 -13.675   5.657  1.00  0.00     0.019 A 
BRANCH  12  17
HETATM   17  O   UNL     1      41.338 -11.184   3.293  1.00  0.00    -0.355 OA
HETATM   18  C   UNL     1      40.495 -10.138   2.806  1.00  0.00     0.210 C 
ENDBRANCH  12  17
BRANCH  14  19
HETATM   19  O   UNL     1      39.071 -10.738   7.549  1.00  0.00    -0.356 OA
HETATM   20  C   UNL     1      39.202 -11.290   8.853  1.00  0.00     0.210 C 
ENDBRANCH  14  19
ENDBRANCH   9  11
BRANCH   1  21
HETATM   21  C   UNL     1      40.951 -14.644  -0.198  1.00  0.00     0.253 C 
HETATM   22  N   UNL     1      41.845 -13.920  -0.961  1.00  0.00    -0.349 N 
HETATM   23  H   UNL     1      42.588 -13.439  -0.471  1.00  0.00     0.163 HD
HETATM   24  O   UNL     1      39.900 -15.118  -0.606  1.00  0.00    -0.268 OA
BRANCH  22  25
HETATM   25  C   UNL     1      41.645 -13.567  -2.376  1.00  0.00     0.022 C 
HETATM   26  C   UNL     1      40.409 -12.670  -2.543  1.00  0.00     0.037 C 
HETATM   27  C   UNL     1      41.509 -14.826  -3.248  1.00  0.00     0.037 C 
HETATM   28  C   UNL     1      42.885 -12.788  -2.850  1.00  0.00     0.037 C 
ENDBRANCH  22  25
ENDBRANCH   1  21
TORSDOF 5
ENDMDL
