MODEL 1
REMARK VINA RESULT:      -9.9      0.000      0.000
REMARK  2 active torsions:
REMARK  status: ('A' for Active; 'I' for Inactive)
REMARK    1  A    between atoms: C_4  and  C_5 
REMARK       I    between atoms: N_12  and  C_13 
REMARK    2  A    between atoms: C_13  and  C_14 
ROOT
HETATM    1  C   UNL     1      44.329 -18.759   4.991  1.00  0.00     0.097 A 
HETATM    2  N   UNL     1      45.283 -18.696   5.940  1.00  0.00    -0.173 NA
HETATM    3  N   UNL     1      45.053 -17.547   6.595  1.00  0.00    -0.281 N 
HETATM    4  H   UNL     1      45.682 -17.289   7.350  1.00  0.00     0.189 HD
HETATM    5  C   UNL     1      43.992 -16.866   6.101  1.00  0.00     0.039 A 
HETATM    6  C   UNL     1      43.474 -17.622   5.073  1.00  0.00     0.015 A 
HETATM    7  C   UNL     1      42.305 -17.191   4.260  1.00  0.00     0.168 C 
HETATM    8  N   UNL     1      42.079 -15.739   4.447  1.00  0.00    -0.347 N 
HETATM    9  C   UNL     1      41.437 -14.927   3.513  1.00  0.00     0.226 C 
HETATM   10  O   UNL     1      40.963 -13.838   3.844  1.00  0.00    -0.273 OA
HETATM   11  C   UNL     1      42.157 -15.247   5.844  1.00  0.00     0.132 C 
HETATM   12  C   UNL     1      43.526 -15.521   6.504  1.00  0.00     0.079 C 
ENDROOT
BRANCH   9  13
HETATM   13  C   UNL     1      41.302 -15.441   2.075  1.00  0.00     0.106 C 
HETATM   14  C   UNL     1      40.044 -16.291   1.897  1.00  0.00     0.190 C 
HETATM   15  O   UNL     1      38.815 -15.563   1.925  1.00  0.00    -0.350 OA
HETATM   16  C   UNL     1      38.800 -14.416   1.187  1.00  0.00     0.075 A 
HETATM   17  C   UNL     1      39.951 -13.775   0.734  1.00  0.00    -0.024 A 
HETATM   18  C   UNL     1      37.543 -13.872   0.923  1.00  0.00     0.037 A 
HETATM   19  C   UNL     1      41.315 -14.321   1.034  1.00  0.00     0.057 C 
HETATM   20  C   UNL     1      39.828 -12.606  -0.032  1.00  0.00     0.010 A 
HETATM   21  C   UNL     1      38.570 -12.072  -0.311  1.00  0.00     0.001 A 
HETATM   22  C   UNL     1      37.426 -12.703   0.172  1.00  0.00     0.003 A 
ENDBRANCH   9  13
BRANCH   1  23
HETATM   23  C   UNL     1      44.309 -19.859   4.024  1.00  0.00    -0.005 A 
HETATM   24  C   UNL     1      44.721 -21.152   4.371  1.00  0.00     0.014 A 
HETATM   25  C   UNL     1      44.653 -22.193   3.439  1.00  0.00     0.001 A 
HETATM   26  C   UNL     1      44.183 -21.950   2.150  1.00  0.00     0.000 A 
HETATM   27  C   UNL     1      43.788 -20.665   1.786  1.00  0.00     0.001 A 
HETATM   28  C   UNL     1      43.852 -19.627   2.717  1.00  0.00     0.014 A 
ENDBRANCH   1  23
TORSDOF 2
ENDMDL
MODEL 2
REMARK VINA RESULT:      -9.0      3.138      8.585
REMARK  2 active torsions:
REMARK  status: ('A' for Active; 'I' for Inactive)
REMARK    1  A    between atoms: C_4  and  C_5 
REMARK       I    between atoms: N_12  and  C_13 
REMARK    2  A    between atoms: C_13  and  C_14 
ROOT
HETATM    1  C   UNL     1      40.058 -11.854  -0.639  1.00  0.00     0.097 A 
HETATM    2  N   UNL     1      38.881 -11.559  -1.225  1.00  0.00    -0.173 NA
HETATM    3  N   UNL     1      38.001 -12.428  -0.705  1.00  0.00    -0.281 N 
HETATM    4  H   UNL     1      37.040 -12.395  -1.033  1.00  0.00     0.189 HD
HETATM    5  C   UNL     1      38.566 -13.276   0.187  1.00  0.00     0.039 A 
HETATM    6  C   UNL     1      39.895 -12.929   0.283  1.00  0.00     0.015 A 
HETATM    7  C   UNL     1      40.860 -13.651   1.154  1.00  0.00     0.168 C 
HETATM    8  N   UNL     1      40.292 -14.964   1.541  1.00  0.00    -0.347 N 
HETATM    9  C   UNL     1      41.064 -16.066   1.907  1.00  0.00     0.226 C 
HETATM   10  O   UNL     1      40.571 -16.998   2.545  1.00  0.00    -0.273 OA
HETATM   11  C   UNL     1      38.870 -14.955   1.960  1.00  0.00     0.132 C 
HETATM   12  C   UNL     1      37.922 -14.425   0.862  1.00  0.00     0.079 C 
ENDROOT
BRANCH   9  13
HETATM   13  C   UNL     1      42.549 -16.071   1.527  1.00  0.00     0.106 C 
HETATM   14  C   UNL     1      43.430 -15.624   2.694  1.00  0.00     0.190 C 
HETATM   15  O   UNL     1      43.535 -16.564   3.765  1.00  0.00    -0.350 OA
HETATM   16  C   UNL     1      43.753 -17.857   3.387  1.00  0.00     0.075 A 
HETATM   17  C   UNL     1      43.534 -18.330   2.095  1.00  0.00    -0.024 A 
HETATM   18  C   UNL     1      44.189 -18.724   4.389  1.00  0.00     0.037 A 
HETATM   19  C   UNL     1      43.033 -17.425   1.010  1.00  0.00     0.057 C 
HETATM   20  C   UNL     1      43.803 -19.676   1.804  1.00  0.00     0.010 A 
HETATM   21  C   UNL     1      44.256 -20.539   2.802  1.00  0.00     0.001 A 
HETATM   22  C   UNL     1      44.443 -20.064   4.098  1.00  0.00     0.003 A 
ENDBRANCH   9  13
BRANCH   1  23
HETATM   23  C   UNL     1      41.281 -11.144  -1.020  1.00  0.00    -0.005 A 
HETATM   24  C   UNL     1      41.734 -11.116  -2.345  1.00  0.00     0.014 A 
HETATM   25  C   UNL     1      42.883 -10.397  -2.688  1.00  0.00     0.001 A 
HETATM   26  C   UNL     1      43.596  -9.707  -1.708  1.00  0.00     0.000 A 
HETATM   27  C   UNL     1      43.166  -9.741  -0.384  1.00  0.00     0.001 A 
HETATM   28  C   UNL     1      42.017 -10.457  -0.043  1.00  0.00     0.014 A 
ENDBRANCH   1  23
TORSDOF 2
ENDMDL
MODEL 3
REMARK VINA RESULT:      -8.7      2.330      3.378
REMARK  2 active torsions:
REMARK  status: ('A' for Active; 'I' for Inactive)
REMARK    1  A    between atoms: C_4  and  C_5 
REMARK       I    between atoms: N_12  and  C_13 
REMARK    2  A    between atoms: C_13  and  C_14 
ROOT
HETATM    1  C   UNL     1      42.110 -17.445   4.456  1.00  0.00     0.097 A 
HETATM    2  N   UNL     1      42.096 -17.287   5.794  1.00  0.00    -0.173 NA
HETATM    3  N   UNL     1      41.331 -16.207   6.013  1.00  0.00    -0.281 N 
HETATM    4  H   UNL     1      41.204 -15.892   6.970  1.00  0.00     0.189 HD
HETATM    5  C   UNL     1      40.857 -15.660   4.868  1.00  0.00     0.039 A 
HETATM    6  C   UNL     1      41.316 -16.441   3.831  1.00  0.00     0.015 A 
HETATM    7  C   UNL     1      41.022 -16.145   2.403  1.00  0.00     0.168 C 
HETATM    8  N   UNL     1      40.553 -14.747   2.273  1.00  0.00    -0.347 N 
HETATM    9  C   UNL     1      40.665 -13.996   1.102  1.00  0.00     0.226 C 
HETATM   10  O   UNL     1      39.967 -12.996   0.925  1.00  0.00    -0.273 OA
HETATM   11  C   UNL     1      39.560 -14.301   3.279  1.00  0.00     0.132 C 
HETATM   12  C   UNL     1      40.081 -14.408   4.729  1.00  0.00     0.079 C 
ENDROOT
BRANCH   9  13
HETATM   13  C   UNL     1      41.650 -14.470   0.028  1.00  0.00     0.106 C 
HETATM   14  C   UNL     1      40.956 -15.317  -1.039  1.00  0.00     0.190 C 
HETATM   15  O   UNL     1      40.094 -14.593  -1.918  1.00  0.00    -0.350 OA
HETATM   16  C   UNL     1      40.605 -13.424  -2.405  1.00  0.00     0.075 A 
HETATM   17  C   UNL     1      41.700 -12.770  -1.845  1.00  0.00    -0.024 A 
HETATM   18  C   UNL     1      39.944 -12.876  -3.503  1.00  0.00     0.037 A 
HETATM   19  C   UNL     1      42.405 -13.322  -0.642  1.00  0.00     0.057 C 
HETATM   20  C   UNL     1      42.158 -11.579  -2.429  1.00  0.00     0.010 A 
HETATM   21  C   UNL     1      41.508 -11.040  -3.539  1.00  0.00     0.001 A 
HETATM   22  C   UNL     1      40.396 -11.686  -4.073  1.00  0.00     0.003 A 
ENDBRANCH   9  13
BRANCH   1  23
HETATM   23  C   UNL     1      42.916 -18.501   3.837  1.00  0.00    -0.005 A 
HETATM   24  C   UNL     1      42.756 -18.856   2.492  1.00  0.00     0.014 A 
HETATM   25  C   UNL     1      43.566 -19.840   1.916  1.00  0.00     0.001 A 
HETATM   26  C   UNL     1      44.536 -20.485   2.681  1.00  0.00     0.000 A 
HETATM   27  C   UNL     1      44.693 -20.155   4.025  1.00  0.00     0.001 A 
HETATM   28  C   UNL     1      43.886 -19.170   4.599  1.00  0.00     0.014 A 
ENDBRANCH   1  23
TORSDOF 2
ENDMDL
MODEL 4
REMARK VINA RESULT:      -8.3      4.151      7.856
REMARK  2 active torsions:
REMARK  status: ('A' for Active; 'I' for Inactive)
REMARK    1  A    between atoms: C_4  and  C_5 
REMARK       I    between atoms: N_12  and  C_13 
REMARK    2  A    between atoms: C_13  and  C_14 
ROOT
HETATM    1  C   UNL     1      42.217 -10.538   8.024  1.00  0.00     0.097 A 
HETATM    2  N   UNL     1      41.699  -9.295   8.064  1.00  0.00    -0.173 NA
HETATM    3  N   UNL     1      40.835  -9.241   7.039  1.00  0.00    -0.281 N 
HETATM    4  H   UNL     1      40.342  -8.369   6.870  1.00  0.00     0.189 HD
HETATM    5  C   UNL     1      40.780 -10.398   6.338  1.00  0.00     0.039 A 
HETATM    6  C   UNL     1      41.642 -11.279   6.951  1.00  0.00     0.015 A 
HETATM    7  C   UNL     1      41.877 -12.661   6.454  1.00  0.00     0.168 C 
HETATM    8  N   UNL     1      41.393 -12.775   5.059  1.00  0.00    -0.347 N 
HETATM    9  C   UNL     1      41.877 -13.710   4.144  1.00  0.00     0.226 C 
HETATM   10  O   UNL     1      41.226 -14.005   3.140  1.00  0.00    -0.273 OA
HETATM   11  C   UNL     1      40.070 -12.166   4.781  1.00  0.00     0.132 C 
HETATM   12  C   UNL     1      40.026 -10.654   5.091  1.00  0.00     0.079 C 
ENDROOT
BRANCH   9  13
HETATM   13  C   UNL     1      43.220 -14.387   4.439  1.00  0.00     0.106 C 
HETATM   14  C   UNL     1      43.063 -15.537   5.435  1.00  0.00     0.190 C 
HETATM   15  O   UNL     1      42.407 -16.697   4.918  1.00  0.00    -0.350 OA
HETATM   16  C   UNL     1      42.826 -17.104   3.685  1.00  0.00     0.075 A 
HETATM   17  C   UNL     1      43.551 -16.295   2.812  1.00  0.00    -0.024 A 
HETATM   18  C   UNL     1      42.459 -18.395   3.307  1.00  0.00     0.037 A 
HETATM   19  C   UNL     1      43.927 -14.892   3.182  1.00  0.00     0.057 C 
HETATM   20  C   UNL     1      43.947 -16.813   1.569  1.00  0.00     0.010 A 
HETATM   21  C   UNL     1      43.595 -18.111   1.198  1.00  0.00     0.001 A 
HETATM   22  C   UNL     1      42.845 -18.901   2.066  1.00  0.00     0.003 A 
ENDBRANCH   9  13
BRANCH   1  23
HETATM   23  C   UNL     1      43.266 -10.941   8.965  1.00  0.00    -0.005 A 
HETATM   24  C   UNL     1      44.258 -11.864   8.611  1.00  0.00     0.014 A 
HETATM   25  C   UNL     1      45.270 -12.200   9.516  1.00  0.00     0.001 A 
HETATM   26  C   UNL     1      45.294 -11.625  10.785  1.00  0.00     0.000 A 
HETATM   27  C   UNL     1      44.303 -10.720  11.156  1.00  0.00     0.001 A 
HETATM   28  C   UNL     1      43.295 -10.382  10.252  1.00  0.00     0.014 A 
ENDBRANCH   1  23
TORSDOF 2
ENDMDL
MODEL 5
REMARK VINA RESULT:      -8.2      1.804      3.933
REMARK  2 active torsions:
REMARK  status: ('A' for Active; 'I' for Inactive)
REMARK    1  A    between atoms: C_4  and  C_5 
REMARK       I    between atoms: N_12  and  C_13 
REMARK    2  A    between atoms: C_13  and  C_14 
ROOT
HETATM    1  C   UNL     1      44.103 -18.856   4.735  1.00  0.00     0.097 A 
HETATM    2  N   UNL     1      44.575 -20.101   4.527  1.00  0.00    -0.173 NA
HETATM    3  N   UNL     1      44.520 -20.281   3.198  1.00  0.00    -0.281 N 
HETATM    4  H   UNL     1      44.814 -21.177   2.821  1.00  0.00     0.189 HD
HETATM    5  C   UNL     1      44.026 -19.203   2.543  1.00  0.00     0.039 A 
HETATM    6  C   UNL     1      43.762 -18.243   3.494  1.00  0.00     0.015 A 
HETATM    7  C   UNL     1      43.182 -16.914   3.163  1.00  0.00     0.168 C 
HETATM    8  N   UNL     1      42.587 -16.956   1.808  1.00  0.00    -0.347 N 
HETATM    9  C   UNL     1      41.564 -16.109   1.382  1.00  0.00     0.226 C 
HETATM   10  O   UNL     1      41.348 -15.935   0.181  1.00  0.00    -0.273 OA
HETATM   11  C   UNL     1      43.403 -17.622   0.764  1.00  0.00     0.132 C 
HETATM   12  C   UNL     1      43.724 -19.095   1.099  1.00  0.00     0.079 C 
ENDROOT
BRANCH   9  13
HETATM   13  C   UNL     1      40.742 -15.373   2.445  1.00  0.00     0.106 C 
HETATM   14  C   UNL     1      41.273 -13.959   2.688  1.00  0.00     0.190 C 
HETATM   15  O   UNL     1      41.030 -13.034   1.627  1.00  0.00    -0.350 OA
HETATM   16  C   UNL     1      39.767 -13.055   1.110  1.00  0.00     0.075 A 
HETATM   17  C   UNL     1      38.873 -14.106   1.304  1.00  0.00    -0.024 A 
HETATM   18  C   UNL     1      39.406 -11.960   0.326  1.00  0.00     0.037 A 
HETATM   19  C   UNL     1      39.251 -15.310   2.114  1.00  0.00     0.057 C 
HETATM   20  C   UNL     1      37.590 -14.026   0.742  1.00  0.00     0.010 A 
HETATM   21  C   UNL     1      37.222 -12.922  -0.028  1.00  0.00     0.001 A 
HETATM   22  C   UNL     1      38.133 -11.891  -0.241  1.00  0.00     0.003 A 
ENDBRANCH   9  13
BRANCH   1  23
HETATM   23  C   UNL     1      43.949 -18.333   6.095  1.00  0.00    -0.005 A 
HETATM   24  C   UNL     1      43.589 -17.001   6.334  1.00  0.00     0.014 A 
HETATM   25  C   UNL     1      43.409 -16.539   7.642  1.00  0.00     0.001 A 
HETATM   26  C   UNL     1      43.596 -17.401   8.722  1.00  0.00     0.000 A 
HETATM   27  C   UNL     1      43.971 -18.723   8.497  1.00  0.00     0.001 A 
HETATM   28  C   UNL     1      44.148 -19.185   7.192  1.00  0.00     0.014 A 
ENDBRANCH   1  23
TORSDOF 2
ENDMDL
MODEL 6
REMARK VINA RESULT:      -8.2      3.241      5.143
REMARK  2 active torsions:
REMARK  status: ('A' for Active; 'I' for Inactive)
REMARK    1  A    between atoms: C_4  and  C_5 
REMARK       I    between atoms: N_12  and  C_13 
REMARK    2  A    between atoms: C_13  and  C_14 
ROOT
HETATM    1  C   UNL     1      41.246 -16.120   3.170  1.00  0.00     0.097 A 
HETATM    2  N   UNL     1      41.012 -15.791   4.455  1.00  0.00    -0.173 NA
HETATM    3  N   UNL     1      40.054 -14.852   4.410  1.00  0.00    -0.281 N 
HETATM    4  H   UNL     1      39.740 -14.443   5.285  1.00  0.00     0.189 HD
HETATM    5  C   UNL     1      39.666 -14.560   3.146  1.00  0.00     0.039 A 
HETATM    6  C   UNL     1      40.393 -15.373   2.306  1.00  0.00     0.015 A 
HETATM    7  C   UNL     1      40.264 -15.329   0.825  1.00  0.00     0.168 C 
HETATM    8  N   UNL     1      39.592 -14.071   0.423  1.00  0.00    -0.347 N 
HETATM    9  C   UNL     1      39.746 -13.475  -0.829  1.00  0.00     0.226 C 
HETATM   10  O   UNL     1      38.923 -12.655  -1.242  1.00  0.00    -0.273 OA
HETATM   11  C   UNL     1      38.404 -13.688   1.222  1.00  0.00     0.132 C 
HETATM   12  C   UNL     1      38.721 -13.503   2.722  1.00  0.00     0.079 C 
ENDROOT
BRANCH   9  13
HETATM   13  C   UNL     1      40.941 -13.895  -1.692  1.00  0.00     0.106 C 
HETATM   14  C   UNL     1      40.527 -14.144  -3.143  1.00  0.00     0.190 C 
HETATM   15  O   UNL     1      40.197 -12.970  -3.886  1.00  0.00    -0.350 OA
HETATM   16  C   UNL     1      41.064 -11.925  -3.743  1.00  0.00     0.075 A 
HETATM   17  C   UNL     1      41.987 -11.827  -2.705  1.00  0.00    -0.024 A 
HETATM   18  C   UNL     1      40.962 -10.908  -4.692  1.00  0.00     0.037 A 
HETATM   19  C   UNL     1      42.092 -12.891  -1.653  1.00  0.00     0.057 C 
HETATM   20  C   UNL     1      42.846 -10.718  -2.654  1.00  0.00     0.010 A 
HETATM   21  C   UNL     1      42.756  -9.710  -3.614  1.00  0.00     0.001 A 
HETATM   22  C   UNL     1      41.809  -9.802  -4.630  1.00  0.00     0.003 A 
ENDBRANCH   9  13
BRANCH   1  23
HETATM   23  C   UNL     1      42.296 -17.080   2.823  1.00  0.00    -0.005 A 
HETATM   24  C   UNL     1      43.112 -16.905   1.698  1.00  0.00     0.014 A 
HETATM   25  C   UNL     1      44.134 -17.816   1.413  1.00  0.00     0.001 A 
HETATM   26  C   UNL     1      44.344 -18.916   2.244  1.00  0.00     0.000 A 
HETATM   27  C   UNL     1      43.528 -19.111   3.355  1.00  0.00     0.001 A 
HETATM   28  C   UNL     1      42.510 -18.200   3.641  1.00  0.00     0.014 A 
ENDBRANCH   1  23
TORSDOF 2
ENDMDL
MODEL 7
REMARK VINA RESULT:      -8.2      1.895      2.857
REMARK  2 active torsions:
REMARK  status: ('A' for Active; 'I' for Inactive)
REMARK    1  A    between atoms: C_4  and  C_5 
REMARK       I    between atoms: N_12  and  C_13 
REMARK    2  A    between atoms: C_13  and  C_14 
ROOT
HETATM    1  C   UNL     1      43.646 -15.910   6.330  1.00  0.00     0.097 A 
HETATM    2  N   UNL     1      44.572 -15.214   7.018  1.00  0.00    -0.173 NA
HETATM    3  N   UNL     1      44.142 -13.943   6.999  1.00  0.00    -0.281 N 
HETATM    4  H   UNL     1      44.713 -13.234   7.449  1.00  0.00     0.189 HD
HETATM    5  C   UNL     1      42.979 -13.793   6.321  1.00  0.00     0.039 A 
HETATM    6  C   UNL     1      42.604 -15.044   5.887  1.00  0.00     0.015 A 
HETATM    7  C   UNL     1      41.380 -15.288   5.078  1.00  0.00     0.168 C 
HETATM    8  N   UNL     1      40.902 -14.009   4.504  1.00  0.00    -0.347 N 
HETATM    9  C   UNL     1      40.129 -13.919   3.346  1.00  0.00     0.226 C 
HETATM   10  O   UNL     1      39.471 -12.905   3.105  1.00  0.00    -0.273 OA
HETATM   11  C   UNL     1      40.889 -12.850   5.428  1.00  0.00     0.132 C 
HETATM   12  C   UNL     1      42.283 -12.525   6.007  1.00  0.00     0.079 C 
ENDROOT
BRANCH   9  13
HETATM   13  C   UNL     1      40.090 -15.126   2.403  1.00  0.00     0.106 C 
HETATM   14  C   UNL     1      38.721 -15.278   1.739  1.00  0.00     0.190 C 
HETATM   15  O   UNL     1      38.418 -14.291   0.751  1.00  0.00    -0.350 OA
HETATM   16  C   UNL     1      39.421 -14.024  -0.134  1.00  0.00     0.075 A 
HETATM   17  C   UNL     1      40.753 -14.374   0.081  1.00  0.00    -0.024 A 
HETATM   18  C   UNL     1      39.054 -13.334  -1.289  1.00  0.00     0.037 A 
HETATM   19  C   UNL     1      41.178 -15.085   1.330  1.00  0.00     0.057 C 
HETATM   20  C   UNL     1      41.709 -14.067  -0.900  1.00  0.00     0.010 A 
HETATM   21  C   UNL     1      41.338 -13.392  -2.063  1.00  0.00     0.001 A 
HETATM   22  C   UNL     1      40.010 -13.020  -2.255  1.00  0.00     0.003 A 
ENDBRANCH   9  13
BRANCH   1  23
HETATM   23  C   UNL     1      43.822 -17.344   6.081  1.00  0.00    -0.005 A 
HETATM   24  C   UNL     1      43.816 -18.278   7.124  1.00  0.00     0.014 A 
HETATM   25  C   UNL     1      43.946 -19.644   6.854  1.00  0.00     0.001 A 
HETATM   26  C   UNL     1      44.092 -20.088   5.541  1.00  0.00     0.000 A 
HETATM   27  C   UNL     1      44.118 -19.168   4.496  1.00  0.00     0.001 A 
HETATM   28  C   UNL     1      43.985 -17.804   4.765  1.00  0.00     0.014 A 
ENDBRANCH   1  23
TORSDOF 2
ENDMDL
MODEL 8
REMARK VINA RESULT:      -8.1      5.105      8.854
REMARK  2 active torsions:
REMARK  status: ('A' for Active; 'I' for Inactive)
REMARK    1  A    between atoms: C_4  and  C_5 
REMARK       I    between atoms: N_12  and  C_13 
REMARK    2  A    between atoms: C_13  and  C_14 
ROOT
HETATM    1  C   UNL     1      42.582 -10.336  10.015  1.00  0.00     0.097 A 
HETATM    2  N   UNL     1      43.102 -10.076  11.230  1.00  0.00    -0.173 NA
HETATM    3  N   UNL     1      44.278 -10.722  11.255  1.00  0.00    -0.281 N 
HETATM    4  H   UNL     1      44.835 -10.677  12.103  1.00  0.00     0.189 HD
HETATM    5  C   UNL     1      44.532 -11.392  10.106  1.00  0.00     0.039 A 
HETATM    6  C   UNL     1      43.472 -11.154   9.261  1.00  0.00     0.015 A 
HETATM    7  C   UNL     1      43.374 -11.743   7.899  1.00  0.00     0.168 C 
HETATM    8  N   UNL     1      44.320 -12.876   7.779  1.00  0.00    -0.347 N 
HETATM    9  C   UNL     1      44.157 -13.932   6.882  1.00  0.00     0.226 C 
HETATM   10  O   UNL     1      45.112 -14.646   6.569  1.00  0.00    -0.273 OA
HETATM   11  C   UNL     1      45.678 -12.645   8.325  1.00  0.00     0.132 C 
HETATM   12  C   UNL     1      45.672 -12.294   9.829  1.00  0.00     0.079 C 
ENDROOT
BRANCH   9  13
HETATM   13  C   UNL     1      42.771 -14.157   6.268  1.00  0.00     0.106 C 
HETATM   14  C   UNL     1      42.655 -13.510   4.887  1.00  0.00     0.190 C 
HETATM   15  O   UNL     1      43.397 -14.161   3.853  1.00  0.00    -0.350 OA
HETATM   16  C   UNL     1      43.289 -15.521   3.824  1.00  0.00     0.075 A 
HETATM   17  C   UNL     1      42.818 -16.279   4.893  1.00  0.00    -0.024 A 
HETATM   18  C   UNL     1      43.714 -16.145   2.652  1.00  0.00     0.037 A 
HETATM   19  C   UNL     1      42.387 -15.633   6.176  1.00  0.00     0.057 C 
HETATM   20  C   UNL     1      42.731 -17.674   4.758  1.00  0.00     0.010 A 
HETATM   21  C   UNL     1      43.140 -18.297   3.579  1.00  0.00     0.001 A 
HETATM   22  C   UNL     1      43.638 -17.532   2.527  1.00  0.00     0.003 A 
ENDBRANCH   9  13
BRANCH   1  23
HETATM   23  C   UNL     1      41.250  -9.844   9.652  1.00  0.00    -0.005 A 
HETATM   24  C   UNL     1      41.009  -8.487   9.404  1.00  0.00     0.014 A 
HETATM   25  C   UNL     1      39.737  -8.051   9.020  1.00  0.00     0.001 A 
HETATM   26  C   UNL     1      38.693  -8.964   8.890  1.00  0.00     0.000 A 
HETATM   27  C   UNL     1      38.914 -10.313   9.152  1.00  0.00     0.001 A 
HETATM   28  C   UNL     1      40.185 -10.749   9.532  1.00  0.00     0.014 A 
ENDBRANCH   1  23
TORSDOF 2
ENDMDL
MODEL 9
REMARK VINA RESULT:      -8.1      3.263      7.958
REMARK  2 active torsions:
REMARK  status: ('A' for Active; 'I' for Inactive)
REMARK    1  A    between atoms: C_4  and  C_5 
REMARK       I    between atoms: N_12  and  C_13 
REMARK    2  A    between atoms: C_13  and  C_14 
ROOT
HETATM    1  C   UNL     1      39.848 -13.202  -1.344  1.00  0.00     0.097 A 
HETATM    2  N   UNL     1      39.399 -11.938  -1.475  1.00  0.00    -0.173 NA
HETATM    3  N   UNL     1      39.947 -11.262  -0.454  1.00  0.00    -0.281 N 
HETATM    4  H   UNL     1      39.718 -10.278  -0.349  1.00  0.00     0.189 HD
HETATM    5  C   UNL     1      40.727 -12.041   0.332  1.00  0.00     0.039 A 
HETATM    6  C   UNL     1      40.714 -13.304  -0.217  1.00  0.00     0.015 A 
HETATM    7  C   UNL     1      41.442 -14.455   0.381  1.00  0.00     0.168 C 
HETATM    8  N   UNL     1      41.802 -14.139   1.783  1.00  0.00    -0.347 N 
HETATM    9  C   UNL     1      42.023 -15.106   2.764  1.00  0.00     0.226 C 
HETATM   10  O   UNL     1      42.648 -14.832   3.790  1.00  0.00    -0.273 OA
HETATM   11  C   UNL     1      42.356 -12.785   2.019  1.00  0.00     0.132 C 
HETATM   12  C   UNL     1      41.391 -11.656   1.597  1.00  0.00     0.079 C 
ENDROOT
BRANCH   9  13
HETATM   13  C   UNL     1      41.500 -16.525   2.516  1.00  0.00     0.106 C 
HETATM   14  C   UNL     1      42.445 -17.323   1.616  1.00  0.00     0.190 C 
HETATM   15  O   UNL     1      43.677 -17.709   2.227  1.00  0.00    -0.350 OA
HETATM   16  C   UNL     1      43.568 -18.223   3.487  1.00  0.00     0.075 A 
HETATM   17  C   UNL     1      42.440 -18.066   4.288  1.00  0.00    -0.024 A 
HETATM   18  C   UNL     1      44.683 -18.908   3.969  1.00  0.00     0.037 A 
HETATM   19  C   UNL     1      41.242 -17.304   3.805  1.00  0.00     0.057 C 
HETATM   20  C   UNL     1      42.421 -18.647   5.566  1.00  0.00     0.010 A 
HETATM   21  C   UNL     1      43.529 -19.347   6.041  1.00  0.00     0.001 A 
HETATM   22  C   UNL     1      44.665 -19.472   5.244  1.00  0.00     0.003 A 
ENDBRANCH   9  13
BRANCH   1  23
HETATM   23  C   UNL     1      39.394 -14.254  -2.256  1.00  0.00    -0.005 A 
HETATM   24  C   UNL     1      38.075 -14.304  -2.724  1.00  0.00     0.014 A 
HETATM   25  C   UNL     1      37.679 -15.297  -3.626  1.00  0.00     0.001 A 
HETATM   26  C   UNL     1      38.594 -16.254  -4.060  1.00  0.00     0.000 A 
HETATM   27  C   UNL     1      39.904 -16.227  -3.589  1.00  0.00     0.001 A 
HETATM   28  C   UNL     1      40.300 -15.234  -2.691  1.00  0.00     0.014 A 
ENDBRANCH   1  23
TORSDOF 2
ENDMDL
MODEL 10
REMARK VINA RESULT:      -8.0      2.719      4.187
REMARK  2 active torsions:
REMARK  status: ('A' for Active; 'I' for Inactive)
REMARK    1  A    between atoms: C_4  and  C_5 
REMARK       I    between atoms: N_12  and  C_13 
REMARK    2  A    between atoms: C_13  and  C_14 
ROOT
HETATM    1  C   UNL     1      44.161 -19.260   4.305  1.00  0.00     0.097 A 
HETATM    2  N   UNL     1      44.453 -20.307   3.510  1.00  0.00    -0.173 NA
HETATM    3  N   UNL     1      44.309 -19.849   2.256  1.00  0.00    -0.281 N 
HETATM    4  H   UNL     1      44.462 -20.494   1.487  1.00  0.00     0.189 HD
HETATM    5  C   UNL     1      43.930 -18.550   2.214  1.00  0.00     0.039 A 
HETATM    6  C   UNL     1      43.843 -18.115   3.517  1.00  0.00     0.015 A 
HETATM    7  C   UNL     1      43.428 -16.735   3.885  1.00  0.00     0.168 C 
HETATM    8  N   UNL     1      42.767 -16.091   2.727  1.00  0.00    -0.347 N 
HETATM    9  C   UNL     1      41.845 -15.050   2.839  1.00  0.00     0.226 C 
HETATM   10  O   UNL     1      41.595 -14.323   1.876  1.00  0.00    -0.273 OA
HETATM   11  C   UNL     1      43.434 -16.276   1.416  1.00  0.00     0.132 C 
HETATM   12  C   UNL     1      43.573 -17.760   1.014  1.00  0.00     0.079 C 
ENDROOT
BRANCH   9  13
HETATM   13  C   UNL     1      41.182 -14.811   4.200  1.00  0.00     0.106 C 
HETATM   14  C   UNL     1      42.095 -14.023   5.141  1.00  0.00     0.190 C 
HETATM   15  O   UNL     1      42.267 -12.646   4.801  1.00  0.00    -0.350 OA
HETATM   16  C   UNL     1      41.122 -11.978   4.474  1.00  0.00     0.075 A 
HETATM   17  C   UNL     1      39.932 -12.613   4.128  1.00  0.00    -0.024 A 
HETATM   18  C   UNL     1      41.205 -10.586   4.468  1.00  0.00     0.037 A 
HETATM   19  C   UNL     1      39.828 -14.109   4.093  1.00  0.00     0.057 C 
HETATM   20  C   UNL     1      38.805 -11.835   3.821  1.00  0.00     0.010 A 
HETATM   21  C   UNL     1      38.882 -10.443   3.833  1.00  0.00     0.001 A 
HETATM   22  C   UNL     1      40.085  -9.817   4.150  1.00  0.00     0.003 A 
ENDBRANCH   9  13
BRANCH   1  23
HETATM   23  C   UNL     1      44.145 -19.410   5.762  1.00  0.00    -0.005 A 
HETATM   24  C   UNL     1      44.482 -18.351   6.615  1.00  0.00     0.014 A 
HETATM   25  C   UNL     1      44.419 -18.510   8.003  1.00  0.00     0.001 A 
HETATM   26  C   UNL     1      44.028 -19.730   8.551  1.00  0.00     0.000 A 
HETATM   27  C   UNL     1      43.708 -20.796   7.715  1.00  0.00     0.001 A 
HETATM   28  C   UNL     1      43.767 -20.637   6.329  1.00  0.00     0.014 A 
ENDBRANCH   1  23
TORSDOF 2
ENDMDL
