MODEL 1
REMARK VINA RESULT:      -8.5      0.000      0.000
REMARK  5 active torsions:
REMARK  status: ('A' for Active; 'I' for Inactive)
REMARK    1  A    between atoms: N_2  and  C_4 
REMARK    2  A    between atoms: C_4  and  C_5 
REMARK    3  A    between atoms: C_5  and  N_6 
REMARK    4  A    between atoms: C_11  and  C_12 
REMARK    5  A    between atoms: C_14  and  O_15 
ROOT
HETATM    1  N   UNL     1      42.280 -15.666   1.532  1.00  0.00    -0.332 N 
HETATM    2  C   UNL     1      42.335 -16.822   0.768  1.00  0.00     0.279 C 
HETATM    3  O   UNL     1      41.954 -16.930  -0.381  1.00  0.00    -0.265 OA
HETATM    4  C   UNL     1      42.964 -17.855   1.608  1.00  0.00     0.156 A 
HETATM    5  C   UNL     1      43.330 -17.255   2.741  1.00  0.00     0.060 A 
HETATM    6  C   UNL     1      43.093 -15.792   2.743  1.00  0.00     0.161 C 
HETATM    7  O   UNL     1      43.124 -19.166   1.259  1.00  0.00    -0.303 OA
HETATM    8  C   UNL     1      43.694 -19.977   2.218  1.00  0.00     0.090 A 
HETATM    9  C   UNL     1      44.104 -19.499   3.474  1.00  0.00     0.051 A 
HETATM   10  C   UNL     1      43.980 -18.054   3.773  1.00  0.00     0.196 A 
HETATM   11  O   UNL     1      44.407 -17.554   4.801  1.00  0.00    -0.287 OA
HETATM   12  C   UNL     1      43.855 -21.325   1.896  1.00  0.00     0.041 A 
HETATM   13  C   UNL     1      44.404 -22.197   2.838  1.00  0.00     0.045 A 
HETATM   14  C   UNL     1      44.782 -21.715   4.091  1.00  0.00     0.117 A 
HETATM   15  F   UNL     1      45.293 -22.563   4.991  1.00  0.00    -0.206 F 
HETATM   16  C   UNL     1      44.641 -20.373   4.421  1.00  0.00     0.060 A 
ENDROOT
BRANCH   6  17
HETATM   17  C   UNL     1      42.493 -15.128   3.952  1.00  0.00    -0.028 A 
HETATM   18  C   UNL     1      41.407 -15.758   4.587  1.00  0.00     0.046 A 
HETATM   19  C   UNL     1      40.855 -15.224   5.746  1.00  0.00     0.066 A 
HETATM   20  C   UNL     1      41.357 -14.056   6.296  1.00  0.00     0.036 A 
HETATM   21  C   UNL     1      42.431 -13.414   5.676  1.00  0.00     0.003 A 
HETATM   22  C   UNL     1      43.001 -13.947   4.513  1.00  0.00     0.010 A 
BRANCH  19  23
HETATM   23  O   UNL     1      39.818 -15.903   6.312  1.00  0.00    -0.361 OA
HETATM   24  H   UNL     1      40.164 -16.436   7.050  1.00  0.00     0.217 HD
ENDBRANCH  19  23
ENDBRANCH   6  17
BRANCH   1  25
HETATM   25  C   UNL     1      41.434 -14.522   1.195  1.00  0.00     0.155 C 
BRANCH  25  26
HETATM   26  C   UNL     1      39.943 -14.748   1.463  1.00  0.00     0.254 C 
BRANCH  26  27
HETATM   27  N   UNL     1      39.119 -14.607   0.196  1.00  0.00    -0.077 N 
HETATM   28  C   UNL     1      39.893 -13.918  -0.890  1.00  0.00     0.269 C 
HETATM   29  H   UNL     1      38.900 -15.561  -0.127  1.00  0.00     0.279 HD
HETATM   30  C   UNL     1      37.784 -13.944   0.419  1.00  0.00     0.269 C 
ENDBRANCH  26  27
ENDBRANCH  25  26
ENDBRANCH   1  25
TORSDOF 5
ENDMDL
MODEL 2
REMARK VINA RESULT:      -8.5      2.219      4.612
REMARK  5 active torsions:
REMARK  status: ('A' for Active; 'I' for Inactive)
REMARK    1  A    between atoms: N_2  and  C_4 
REMARK    2  A    between atoms: C_4  and  C_5 
REMARK    3  A    between atoms: C_5  and  N_6 
REMARK    4  A    between atoms: C_11  and  C_12 
REMARK    5  A    between atoms: C_14  and  O_15 
ROOT
HETATM    1  N   UNL     1      41.248 -14.885   4.265  1.00  0.00    -0.332 N 
HETATM    2  C   UNL     1      42.095 -15.563   5.128  1.00  0.00     0.279 C 
HETATM    3  O   UNL     1      42.401 -15.204   6.248  1.00  0.00    -0.265 OA
HETATM    4  C   UNL     1      42.511 -16.794   4.433  1.00  0.00     0.156 A 
HETATM    5  C   UNL     1      41.833 -16.830   3.284  1.00  0.00     0.060 A 
HETATM    6  C   UNL     1      40.850 -15.730   3.138  1.00  0.00     0.161 C 
HETATM    7  O   UNL     1      43.417 -17.699   4.905  1.00  0.00    -0.303 OA
HETATM    8  C   UNL     1      43.700 -18.759   4.068  1.00  0.00     0.090 A 
HETATM    9  C   UNL     1      43.091 -18.919   2.812  1.00  0.00     0.051 A 
HETATM   10  C   UNL     1      42.057 -17.952   2.380  1.00  0.00     0.196 A 
HETATM   11  O   UNL     1      41.416 -18.086   1.351  1.00  0.00    -0.287 OA
HETATM   12  C   UNL     1      44.636 -19.691   4.517  1.00  0.00     0.041 A 
HETATM   13  C   UNL     1      44.978 -20.770   3.700  1.00  0.00     0.045 A 
HETATM   14  C   UNL     1      44.387 -20.904   2.445  1.00  0.00     0.117 A 
HETATM   15  F   UNL     1      44.734 -21.934   1.664  1.00  0.00    -0.206 F 
HETATM   16  C   UNL     1      43.443 -19.991   1.990  1.00  0.00     0.060 A 
ENDROOT
BRANCH   6  17
HETATM   17  C   UNL     1      40.737 -14.992   1.832  1.00  0.00    -0.028 A 
HETATM   18  C   UNL     1      39.469 -14.901   1.227  1.00  0.00     0.046 A 
HETATM   19  C   UNL     1      39.293 -14.177   0.053  1.00  0.00     0.066 A 
HETATM   20  C   UNL     1      40.363 -13.536  -0.550  1.00  0.00     0.036 A 
HETATM   21  C   UNL     1      41.628 -13.621   0.033  1.00  0.00     0.003 A 
HETATM   22  C   UNL     1      41.817 -14.340   1.220  1.00  0.00     0.010 A 
BRANCH  19  23
HETATM   23  O   UNL     1      38.032 -14.120  -0.459  1.00  0.00    -0.361 OA
HETATM   24  H   UNL     1      37.686 -13.220  -0.330  1.00  0.00     0.217 HD
ENDBRANCH  19  23
ENDBRANCH   6  17
BRANCH   1  25
HETATM   25  C   UNL     1      40.893 -13.476   4.434  1.00  0.00     0.155 C 
BRANCH  25  26
HETATM   26  C   UNL     1      39.838 -13.224   5.516  1.00  0.00     0.254 C 
BRANCH  26  27
HETATM   27  N   UNL     1      40.450 -12.605   6.760  1.00  0.00    -0.077 N 
HETATM   28  C   UNL     1      39.425 -11.861   7.565  1.00  0.00     0.269 C 
HETATM   29  H   UNL     1      40.804 -13.382   7.338  1.00  0.00     0.279 HD
HETATM   30  C   UNL     1      41.650 -11.741   6.472  1.00  0.00     0.269 C 
ENDBRANCH  26  27
ENDBRANCH  25  26
ENDBRANCH   1  25
TORSDOF 5
ENDMDL
MODEL 3
REMARK VINA RESULT:      -8.4      2.176      4.247
REMARK  5 active torsions:
REMARK  status: ('A' for Active; 'I' for Inactive)
REMARK    1  A    between atoms: N_2  and  C_4 
REMARK    2  A    between atoms: C_4  and  C_5 
REMARK    3  A    between atoms: C_5  and  N_6 
REMARK    4  A    between atoms: C_11  and  C_12 
REMARK    5  A    between atoms: C_14  and  O_15 
ROOT
HETATM    1  N   UNL     1      41.274 -14.983   4.367  1.00  0.00    -0.332 N 
HETATM    2  C   UNL     1      42.136 -15.659   5.217  1.00  0.00     0.279 C 
HETATM    3  O   UNL     1      42.446 -15.307   6.338  1.00  0.00    -0.265 OA
HETATM    4  C   UNL     1      42.560 -16.878   4.507  1.00  0.00     0.156 A 
HETATM    5  C   UNL     1      41.874 -16.913   3.364  1.00  0.00     0.060 A 
HETATM    6  C   UNL     1      40.878 -15.823   3.235  1.00  0.00     0.161 C 
HETATM    7  O   UNL     1      43.481 -17.777   4.964  1.00  0.00    -0.303 OA
HETATM    8  C   UNL     1      43.770 -18.826   4.116  1.00  0.00     0.090 A 
HETATM    9  C   UNL     1      43.154 -18.983   2.863  1.00  0.00     0.051 A 
HETATM   10  C   UNL     1      42.105 -18.023   2.448  1.00  0.00     0.196 A 
HETATM   11  O   UNL     1      41.457 -18.156   1.422  1.00  0.00    -0.287 OA
HETATM   12  C   UNL     1      44.720 -19.751   4.549  1.00  0.00     0.041 A 
HETATM   13  C   UNL     1      45.069 -20.818   3.719  1.00  0.00     0.045 A 
HETATM   14  C   UNL     1      44.470 -20.948   2.467  1.00  0.00     0.117 A 
HETATM   15  F   UNL     1      44.823 -21.967   1.675  1.00  0.00    -0.206 F 
HETATM   16  C   UNL     1      43.512 -20.043   2.028  1.00  0.00     0.060 A 
ENDROOT
BRANCH   6  17
HETATM   17  C   UNL     1      40.745 -15.075   1.936  1.00  0.00    -0.028 A 
HETATM   18  C   UNL     1      39.461 -14.931   1.379  1.00  0.00     0.046 A 
HETATM   19  C   UNL     1      39.271 -14.195   0.215  1.00  0.00     0.066 A 
HETATM   20  C   UNL     1      40.342 -13.593  -0.425  1.00  0.00     0.036 A 
HETATM   21  C   UNL     1      41.624 -13.730   0.111  1.00  0.00     0.003 A 
HETATM   22  C   UNL     1      41.827 -14.463   1.287  1.00  0.00     0.010 A 
BRANCH  19  23
HETATM   23  O   UNL     1      37.995 -14.086  -0.250  1.00  0.00    -0.361 OA
HETATM   24  H   UNL     1      37.858 -14.761  -0.939  1.00  0.00     0.217 HD
ENDBRANCH  19  23
ENDBRANCH   6  17
BRANCH   1  25
HETATM   25  C   UNL     1      40.903 -13.580   4.551  1.00  0.00     0.155 C 
BRANCH  25  26
HETATM   26  C   UNL     1      42.074 -12.602   4.413  1.00  0.00     0.254 C 
BRANCH  26  27
HETATM   27  N   UNL     1      41.627 -11.271   3.836  1.00  0.00    -0.077 N 
HETATM   28  C   UNL     1      41.304 -10.283   4.919  1.00  0.00     0.269 C 
HETATM   29  H   UNL     1      42.419 -10.899   3.292  1.00  0.00     0.279 HD
HETATM   30  C   UNL     1      40.490 -11.395   2.854  1.00  0.00     0.269 C 
ENDBRANCH  26  27
ENDBRANCH  25  26
ENDBRANCH   1  25
TORSDOF 5
ENDMDL
MODEL 4
REMARK VINA RESULT:      -8.2      2.143      4.413
REMARK  5 active torsions:
REMARK  status: ('A' for Active; 'I' for Inactive)
REMARK    1  A    between atoms: N_2  and  C_4 
REMARK    2  A    between atoms: C_4  and  C_5 
REMARK    3  A    between atoms: C_5  and  N_6 
REMARK    4  A    between atoms: C_11  and  C_12 
REMARK    5  A    between atoms: C_14  and  O_15 
ROOT
HETATM    1  N   UNL     1      41.203 -14.803   4.218  1.00  0.00    -0.332 N 
HETATM    2  C   UNL     1      42.158 -15.462   4.976  1.00  0.00     0.279 C 
HETATM    3  O   UNL     1      42.610 -15.078   6.037  1.00  0.00    -0.265 OA
HETATM    4  C   UNL     1      42.479 -16.709   4.260  1.00  0.00     0.156 A 
HETATM    5  C   UNL     1      41.655 -16.771   3.213  1.00  0.00     0.060 A 
HETATM    6  C   UNL     1      40.660 -15.673   3.174  1.00  0.00     0.161 C 
HETATM    7  O   UNL     1      43.442 -17.605   4.628  1.00  0.00    -0.303 OA
HETATM    8  C   UNL     1      43.612 -18.684   3.785  1.00  0.00     0.090 A 
HETATM    9  C   UNL     1      42.842 -18.873   2.625  1.00  0.00     0.051 A 
HETATM   10  C   UNL     1      41.758 -17.914   2.313  1.00  0.00     0.196 A 
HETATM   11  O   UNL     1      40.985 -18.070   1.382  1.00  0.00    -0.287 OA
HETATM   12  C   UNL     1      44.601 -19.607   4.127  1.00  0.00     0.041 A 
HETATM   13  C   UNL     1      44.833 -20.705   3.296  1.00  0.00     0.045 A 
HETATM   14  C   UNL     1      44.080 -20.867   2.134  1.00  0.00     0.117 A 
HETATM   15  F   UNL     1      44.321 -21.916   1.338  1.00  0.00    -0.206 F 
HETATM   16  C   UNL     1      43.082 -19.963   1.788  1.00  0.00     0.060 A 
ENDROOT
BRANCH   6  17
HETATM   17  C   UNL     1      40.372 -14.965   1.878  1.00  0.00    -0.028 A 
HETATM   18  C   UNL     1      41.451 -14.679   1.021  1.00  0.00     0.046 A 
HETATM   19  C   UNL     1      41.237 -14.085  -0.217  1.00  0.00     0.066 A 
HETATM   20  C   UNL     1      39.957 -13.755  -0.631  1.00  0.00     0.036 A 
HETATM   21  C   UNL     1      38.874 -14.025   0.208  1.00  0.00     0.003 A 
HETATM   22  C   UNL     1      39.077 -14.631   1.455  1.00  0.00     0.010 A 
BRANCH  19  23
HETATM   23  O   UNL     1      42.331 -13.859  -0.996  1.00  0.00    -0.361 OA
HETATM   24  H   UNL     1      42.031 -13.529  -1.862  1.00  0.00     0.217 HD
ENDBRANCH  19  23
ENDBRANCH   6  17
BRANCH   1  25
HETATM   25  C   UNL     1      40.871 -13.390   4.400  1.00  0.00     0.155 C 
BRANCH  25  26
HETATM   26  C   UNL     1      42.010 -12.430   4.042  1.00  0.00     0.254 C 
BRANCH  26  27
HETATM   27  N   UNL     1      41.482 -11.101   3.532  1.00  0.00    -0.077 N 
HETATM   28  C   UNL     1      40.752 -10.350   4.608  1.00  0.00     0.269 C 
HETATM   29  H   UNL     1      42.300 -10.540   3.253  1.00  0.00     0.279 HD
HETATM   30  C   UNL     1      40.641 -11.227   2.288  1.00  0.00     0.269 C 
ENDBRANCH  26  27
ENDBRANCH  25  26
ENDBRANCH   1  25
TORSDOF 5
ENDMDL
MODEL 5
REMARK VINA RESULT:      -7.7      1.937      2.312
REMARK  5 active torsions:
REMARK  status: ('A' for Active; 'I' for Inactive)
REMARK    1  A    between atoms: N_2  and  C_4 
REMARK    2  A    between atoms: C_4  and  C_5 
REMARK    3  A    between atoms: C_5  and  N_6 
REMARK    4  A    between atoms: C_11  and  C_12 
REMARK    5  A    between atoms: C_14  and  O_15 
ROOT
HETATM    1  N   UNL     1      41.890 -14.773   1.688  1.00  0.00    -0.332 N 
HETATM    2  C   UNL     1      42.170 -15.878   0.900  1.00  0.00     0.279 C 
HETATM    3  O   UNL     1      41.963 -15.967  -0.295  1.00  0.00    -0.265 OA
HETATM    4  C   UNL     1      42.783 -16.884   1.783  1.00  0.00     0.156 A 
HETATM    5  C   UNL     1      42.925 -16.307   2.977  1.00  0.00     0.060 A 
HETATM    6  C   UNL     1      42.538 -14.876   2.996  1.00  0.00     0.161 C 
HETATM    7  O   UNL     1      43.126 -18.154   1.416  1.00  0.00    -0.303 OA
HETATM    8  C   UNL     1      43.642 -18.951   2.417  1.00  0.00     0.090 A 
HETATM    9  C   UNL     1      43.823 -18.497   3.734  1.00  0.00     0.051 A 
HETATM   10  C   UNL     1      43.508 -17.087   4.062  1.00  0.00     0.196 A 
HETATM   11  O   UNL     1      43.736 -16.598   5.157  1.00  0.00    -0.287 OA
HETATM   12  C   UNL     1      43.985 -20.259   2.074  1.00  0.00     0.041 A 
HETATM   13  C   UNL     1      44.488 -21.117   3.054  1.00  0.00     0.045 A 
HETATM   14  C   UNL     1      44.639 -20.662   4.363  1.00  0.00     0.117 A 
HETATM   15  F   UNL     1      45.108 -21.498   5.297  1.00  0.00    -0.206 F 
HETATM   16  C   UNL     1      44.314 -19.358   4.716  1.00  0.00     0.060 A 
ENDROOT
BRANCH   6  17
HETATM   17  C   UNL     1      41.713 -14.335   4.131  1.00  0.00    -0.028 A 
HETATM   18  C   UNL     1      42.149 -13.159   4.771  1.00  0.00     0.046 A 
HETATM   19  C   UNL     1      41.393 -12.579   5.782  1.00  0.00     0.066 A 
HETATM   20  C   UNL     1      40.197 -13.149   6.188  1.00  0.00     0.036 A 
HETATM   21  C   UNL     1      39.752 -14.318   5.569  1.00  0.00     0.003 A 
HETATM   22  C   UNL     1      40.501 -14.908   4.543  1.00  0.00     0.010 A 
BRANCH  19  23
HETATM   23  O   UNL     1      41.873 -11.431   6.338  1.00  0.00    -0.361 OA
HETATM   24  H   UNL     1      42.500 -11.024   5.714  1.00  0.00     0.217 HD
ENDBRANCH  19  23
ENDBRANCH   6  17
BRANCH   1  25
HETATM   25  C   UNL     1      40.983 -13.702   1.275  1.00  0.00     0.155 C 
BRANCH  25  26
HETATM   26  C   UNL     1      41.693 -12.429   0.805  1.00  0.00     0.254 C 
BRANCH  26  27
HETATM   27  N   UNL     1      41.332 -11.235   1.669  1.00  0.00    -0.077 N 
HETATM   28  C   UNL     1      40.039 -11.456   2.400  1.00  0.00     0.269 C 
HETATM   29  H   UNL     1      42.079 -11.135   2.371  1.00  0.00     0.279 HD
HETATM   30  C   UNL     1      41.315  -9.931   0.914  1.00  0.00     0.269 C 
ENDBRANCH  26  27
ENDBRANCH  25  26
ENDBRANCH   1  25
TORSDOF 5
ENDMDL
MODEL 6
REMARK VINA RESULT:      -7.5      3.297      7.179
REMARK  5 active torsions:
REMARK  status: ('A' for Active; 'I' for Inactive)
REMARK    1  A    between atoms: N_2  and  C_4 
REMARK    2  A    between atoms: C_4  and  C_5 
REMARK    3  A    between atoms: C_5  and  N_6 
REMARK    4  A    between atoms: C_11  and  C_12 
REMARK    5  A    between atoms: C_14  and  O_15 
ROOT
HETATM    1  N   UNL     1      42.145 -17.403   4.627  1.00  0.00    -0.332 N 
HETATM    2  C   UNL     1      41.152 -16.448   4.476  1.00  0.00     0.279 C 
HETATM    3  O   UNL     1      40.470 -15.987   5.371  1.00  0.00    -0.265 OA
HETATM    4  C   UNL     1      41.119 -16.094   3.047  1.00  0.00     0.156 A 
HETATM    5  C   UNL     1      42.123 -16.753   2.467  1.00  0.00     0.060 A 
HETATM    6  C   UNL     1      42.971 -17.506   3.422  1.00  0.00     0.161 C 
HETATM    7  O   UNL     1      40.218 -15.250   2.464  1.00  0.00    -0.303 OA
HETATM    8  C   UNL     1      40.335 -15.096   1.098  1.00  0.00     0.090 A 
HETATM    9  C   UNL     1      41.322 -15.748   0.341  1.00  0.00     0.051 A 
HETATM   10  C   UNL     1      42.324 -16.592   1.032  1.00  0.00     0.196 A 
HETATM   11  O   UNL     1      43.268 -17.105   0.453  1.00  0.00    -0.287 OA
HETATM   12  C   UNL     1      39.417 -14.252   0.472  1.00  0.00     0.041 A 
HETATM   13  C   UNL     1      39.474 -14.080  -0.912  1.00  0.00     0.045 A 
HETATM   14  C   UNL     1      40.442 -14.753  -1.656  1.00  0.00     0.117 A 
HETATM   15  F   UNL     1      40.478 -14.591  -2.984  1.00  0.00    -0.206 F 
HETATM   16  C   UNL     1      41.372 -15.586  -1.045  1.00  0.00     0.060 A 
ENDROOT
BRANCH   6  17
HETATM   17  C   UNL     1      43.406 -18.908   3.098  1.00  0.00    -0.028 A 
HETATM   18  C   UNL     1      44.326 -19.536   3.959  1.00  0.00     0.046 A 
HETATM   19  C   UNL     1      44.714 -20.853   3.744  1.00  0.00     0.066 A 
HETATM   20  C   UNL     1      44.210 -21.574   2.674  1.00  0.00     0.036 A 
HETATM   21  C   UNL     1      43.301 -20.966   1.806  1.00  0.00     0.003 A 
HETATM   22  C   UNL     1      42.896 -19.641   2.017  1.00  0.00     0.010 A 
BRANCH  19  23
HETATM   23  O   UNL     1      45.592 -21.396   4.633  1.00  0.00    -0.361 OA
HETATM   24  H   UNL     1      46.017 -20.673   5.129  1.00  0.00     0.217 HD
ENDBRANCH  19  23
ENDBRANCH   6  17
BRANCH   1  25
HETATM   25  C   UNL     1      42.268 -18.252   5.812  1.00  0.00     0.155 C 
BRANCH  25  26
HETATM   26  C   UNL     1      42.845 -17.535   7.036  1.00  0.00     0.254 C 
BRANCH  26  27
HETATM   27  N   UNL     1      44.062 -18.258   7.586  1.00  0.00    -0.077 N 
HETATM   28  C   UNL     1      45.303 -17.911   6.815  1.00  0.00     0.269 C 
HETATM   29  H   UNL     1      44.190 -17.935   8.556  1.00  0.00     0.279 HD
HETATM   30  C   UNL     1      43.880 -19.751   7.682  1.00  0.00     0.269 C 
ENDBRANCH  26  27
ENDBRANCH  25  26
ENDBRANCH   1  25
TORSDOF 5
ENDMDL
MODEL 7
REMARK VINA RESULT:      -7.3      3.422      6.753
REMARK  5 active torsions:
REMARK  status: ('A' for Active; 'I' for Inactive)
REMARK    1  A    between atoms: N_2  and  C_4 
REMARK    2  A    between atoms: C_4  and  C_5 
REMARK    3  A    between atoms: C_5  and  N_6 
REMARK    4  A    between atoms: C_11  and  C_12 
REMARK    5  A    between atoms: C_14  and  O_15 
ROOT
HETATM    1  N   UNL     1      42.265 -13.716   3.603  1.00  0.00    -0.332 N 
HETATM    2  C   UNL     1      41.669 -12.776   2.778  1.00  0.00     0.279 C 
HETATM    3  O   UNL     1      41.428 -11.622   3.077  1.00  0.00    -0.265 OA
HETATM    4  C   UNL     1      41.424 -13.440   1.486  1.00  0.00     0.156 A 
HETATM    5  C   UNL     1      41.961 -14.658   1.576  1.00  0.00     0.060 A 
HETATM    6  C   UNL     1      42.689 -14.895   2.845  1.00  0.00     0.161 C 
HETATM    7  O   UNL     1      40.768 -12.885   0.425  1.00  0.00    -0.303 OA
HETATM    8  C   UNL     1      40.604 -13.702  -0.674  1.00  0.00     0.090 A 
HETATM    9  C   UNL     1      41.086 -15.021  -0.721  1.00  0.00     0.051 A 
HETATM   10  C   UNL     1      41.858 -15.550   0.427  1.00  0.00     0.196 A 
HETATM   11  O   UNL     1      42.392 -16.647   0.414  1.00  0.00    -0.287 OA
HETATM   12  C   UNL     1      39.923 -13.167  -1.768  1.00  0.00     0.041 A 
HETATM   13  C   UNL     1      39.705 -13.959  -2.897  1.00  0.00     0.045 A 
HETATM   14  C   UNL     1      40.165 -15.274  -2.921  1.00  0.00     0.117 A 
HETATM   15  F   UNL     1      39.939 -16.028  -4.003  1.00  0.00    -0.206 F 
HETATM   16  C   UNL     1      40.857 -15.817  -1.845  1.00  0.00     0.060 A 
ENDROOT
BRANCH   6  17
HETATM   17  C   UNL     1      42.510 -16.193   3.584  1.00  0.00    -0.028 A 
HETATM   18  C   UNL     1      43.637 -17.015   3.768  1.00  0.00     0.046 A 
HETATM   19  C   UNL     1      43.543 -18.195   4.499  1.00  0.00     0.066 A 
HETATM   20  C   UNL     1      42.337 -18.589   5.054  1.00  0.00     0.036 A 
HETATM   21  C   UNL     1      41.207 -17.789   4.876  1.00  0.00     0.003 A 
HETATM   22  C   UNL     1      41.291 -16.594   4.149  1.00  0.00     0.010 A 
BRANCH  19  23
HETATM   23  O   UNL     1      44.683 -18.925   4.649  1.00  0.00    -0.361 OA
HETATM   24  H   UNL     1      44.935 -18.916   5.590  1.00  0.00     0.217 HD
ENDBRANCH  19  23
ENDBRANCH   6  17
BRANCH   1  25
HETATM   25  C   UNL     1      42.358 -13.565   5.055  1.00  0.00     0.155 C 
BRANCH  25  26
HETATM   26  C   UNL     1      43.782 -13.693   5.605  1.00  0.00     0.254 C 
BRANCH  26  27
HETATM   27  N   UNL     1      43.783 -14.164   7.049  1.00  0.00    -0.077 N 
HETATM   28  C   UNL     1      44.825 -13.449   7.859  1.00  0.00     0.269 C 
HETATM   29  H   UNL     1      42.860 -13.930   7.442  1.00  0.00     0.279 HD
HETATM   30  C   UNL     1      43.912 -15.658   7.193  1.00  0.00     0.269 C 
ENDBRANCH  26  27
ENDBRANCH  25  26
ENDBRANCH   1  25
TORSDOF 5
ENDMDL
MODEL 8
REMARK VINA RESULT:      -7.2      2.858      5.227
REMARK  5 active torsions:
REMARK  status: ('A' for Active; 'I' for Inactive)
REMARK    1  A    between atoms: N_2  and  C_4 
REMARK    2  A    between atoms: C_4  and  C_5 
REMARK    3  A    between atoms: C_5  and  N_6 
REMARK    4  A    between atoms: C_11  and  C_12 
REMARK    5  A    between atoms: C_14  and  O_15 
ROOT
HETATM    1  N   UNL     1      41.794 -13.359   4.816  1.00  0.00    -0.332 N 
HETATM    2  C   UNL     1      42.671 -14.204   5.477  1.00  0.00     0.279 C 
HETATM    3  O   UNL     1      43.253 -13.952   6.514  1.00  0.00    -0.265 OA
HETATM    4  C   UNL     1      42.724 -15.453   4.697  1.00  0.00     0.156 A 
HETATM    5  C   UNL     1      41.832 -15.327   3.714  1.00  0.00     0.060 A 
HETATM    6  C   UNL     1      41.040 -14.076   3.786  1.00  0.00     0.161 C 
HETATM    7  O   UNL     1      43.542 -16.514   4.961  1.00  0.00    -0.303 OA
HETATM    8  C   UNL     1      43.467 -17.567   4.073  1.00  0.00     0.090 A 
HETATM    9  C   UNL     1      42.599 -17.569   2.968  1.00  0.00     0.051 A 
HETATM   10  C   UNL     1      41.677 -16.427   2.770  1.00  0.00     0.196 A 
HETATM   11  O   UNL     1      40.828 -16.408   1.894  1.00  0.00    -0.287 OA
HETATM   12  C   UNL     1      44.304 -18.658   4.308  1.00  0.00     0.041 A 
HETATM   13  C   UNL     1      44.287 -19.740   3.425  1.00  0.00     0.045 A 
HETATM   14  C   UNL     1      43.441 -19.719   2.318  1.00  0.00     0.117 A 
HETATM   15  F   UNL     1      43.444 -20.755   1.471  1.00  0.00    -0.206 F 
HETATM   16  C   UNL     1      42.592 -18.645   2.078  1.00  0.00     0.060 A 
ENDROOT
BRANCH   6  17
HETATM   17  C   UNL     1      40.791 -13.270   2.540  1.00  0.00    -0.028 A 
HETATM   18  C   UNL     1      41.903 -12.795   1.821  1.00  0.00     0.046 A 
HETATM   19  C   UNL     1      41.734 -12.100   0.629  1.00  0.00     0.066 A 
HETATM   20  C   UNL     1      40.466 -11.856   0.126  1.00  0.00     0.036 A 
HETATM   21  C   UNL     1      39.351 -12.315   0.829  1.00  0.00     0.003 A 
HETATM   22  C   UNL     1      39.509 -13.023   2.028  1.00  0.00     0.010 A 
BRANCH  19  23
HETATM   23  O   UNL     1      42.860 -11.690  -0.018  1.00  0.00    -0.361 OA
HETATM   24  H   UNL     1      42.819 -12.001  -0.940  1.00  0.00     0.217 HD
ENDBRANCH  19  23
ENDBRANCH   6  17
BRANCH   1  25
HETATM   25  C   UNL     1      41.722 -11.920   5.070  1.00  0.00     0.155 C 
BRANCH  25  26
HETATM   26  C   UNL     1      40.470 -11.484   5.837  1.00  0.00     0.254 C 
BRANCH  26  27
HETATM   27  N   UNL     1      40.788 -10.413   6.865  1.00  0.00    -0.077 N 
HETATM   28  C   UNL     1      41.941 -10.815   7.739  1.00  0.00     0.269 C 
HETATM   29  H   UNL     1      41.064  -9.569   6.343  1.00  0.00     0.279 HD
HETATM   30  C   UNL     1      39.596 -10.002   7.690  1.00  0.00     0.269 C 
ENDBRANCH  26  27
ENDBRANCH  25  26
ENDBRANCH   1  25
TORSDOF 5
ENDMDL
MODEL 9
REMARK VINA RESULT:      -7.0      2.723      5.398
REMARK  5 active torsions:
REMARK  status: ('A' for Active; 'I' for Inactive)
REMARK    1  A    between atoms: N_2  and  C_4 
REMARK    2  A    between atoms: C_4  and  C_5 
REMARK    3  A    between atoms: C_5  and  N_6 
REMARK    4  A    between atoms: C_11  and  C_12 
REMARK    5  A    between atoms: C_14  and  O_15 
ROOT
HETATM    1  N   UNL     1      39.681 -13.397   2.232  1.00  0.00    -0.332 N 
HETATM    2  C   UNL     1      40.032 -13.980   3.440  1.00  0.00     0.279 C 
HETATM    3  O   UNL     1      39.715 -13.575   4.541  1.00  0.00    -0.265 OA
HETATM    4  C   UNL     1      40.821 -15.181   3.116  1.00  0.00     0.156 A 
HETATM    5  C   UNL     1      40.807 -15.300   1.787  1.00  0.00     0.060 A 
HETATM    6  C   UNL     1      39.954 -14.295   1.109  1.00  0.00     0.161 C 
HETATM    7  O   UNL     1      41.433 -15.993   4.028  1.00  0.00    -0.303 OA
HETATM    8  C   UNL     1      42.165 -17.039   3.505  1.00  0.00     0.090 A 
HETATM    9  C   UNL     1      42.274 -17.277   2.125  1.00  0.00     0.051 A 
HETATM   10  C   UNL     1      41.527 -16.414   1.181  1.00  0.00     0.196 A 
HETATM   11  O   UNL     1      41.492 -16.624  -0.020  1.00  0.00    -0.287 OA
HETATM   12  C   UNL     1      42.816 -17.874   4.413  1.00  0.00     0.041 A 
HETATM   13  C   UNL     1      43.592 -18.934   3.938  1.00  0.00     0.045 A 
HETATM   14  C   UNL     1      43.713 -19.144   2.565  1.00  0.00     0.117 A 
HETATM   15  F   UNL     1      44.472 -20.153   2.121  1.00  0.00    -0.206 F 
HETATM   16  C   UNL     1      43.060 -18.328   1.650  1.00  0.00     0.060 A 
ENDROOT
BRANCH   6  17
HETATM   17  C   UNL     1      40.454 -13.595  -0.125  1.00  0.00    -0.028 A 
HETATM   18  C   UNL     1      41.675 -12.900  -0.048  1.00  0.00     0.046 A 
HETATM   19  C   UNL     1      42.217 -12.289  -1.173  1.00  0.00     0.066 A 
HETATM   20  C   UNL     1      41.562 -12.345  -2.393  1.00  0.00     0.036 A 
HETATM   21  C   UNL     1      40.347 -13.025  -2.487  1.00  0.00     0.003 A 
HETATM   22  C   UNL     1      39.795 -13.652  -1.361  1.00  0.00     0.010 A 
BRANCH  19  23
HETATM   23  O   UNL     1      43.412 -11.653  -1.022  1.00  0.00    -0.361 OA
HETATM   24  H   UNL     1      43.925 -12.119  -0.338  1.00  0.00     0.217 HD
ENDBRANCH  19  23
ENDBRANCH   6  17
BRANCH   1  25
HETATM   25  C   UNL     1      39.193 -12.022   2.118  1.00  0.00     0.155 C 
BRANCH  25  26
HETATM   26  C   UNL     1      40.207 -10.962   2.558  1.00  0.00     0.254 C 
BRANCH  26  27
HETATM   27  N   UNL     1      39.946 -10.494   3.979  1.00  0.00    -0.077 N 
HETATM   28  C   UNL     1      39.159  -9.216   4.001  1.00  0.00     0.269 C 
HETATM   29  H   UNL     1      39.379 -11.224   4.435  1.00  0.00     0.279 HD
HETATM   30  C   UNL     1      41.197 -10.379   4.811  1.00  0.00     0.269 C 
ENDBRANCH  26  27
ENDBRANCH  25  26
ENDBRANCH   1  25
TORSDOF 5
ENDMDL
MODEL 10
REMARK VINA RESULT:      -6.9      2.540      5.011
REMARK  5 active torsions:
REMARK  status: ('A' for Active; 'I' for Inactive)
REMARK    1  A    between atoms: N_2  and  C_4 
REMARK    2  A    between atoms: C_4  and  C_5 
REMARK    3  A    between atoms: C_5  and  N_6 
REMARK    4  A    between atoms: C_11  and  C_12 
REMARK    5  A    between atoms: C_14  and  O_15 
ROOT
HETATM    1  N   UNL     1      39.639 -13.629   3.742  1.00  0.00    -0.332 N 
HETATM    2  C   UNL     1      40.490 -13.937   4.792  1.00  0.00     0.279 C 
HETATM    3  O   UNL     1      40.623 -13.286   5.810  1.00  0.00    -0.265 OA
HETATM    4  C   UNL     1      41.158 -15.201   4.439  1.00  0.00     0.156 A 
HETATM    5  C   UNL     1      40.612 -15.614   3.294  1.00  0.00     0.060 A 
HETATM    6  C   UNL     1      39.491 -14.763   2.829  1.00  0.00     0.161 C 
HETATM    7  O   UNL     1      42.141 -15.805   5.169  1.00  0.00    -0.303 OA
HETATM    8  C   UNL     1      42.666 -16.961   4.630  1.00  0.00     0.090 A 
HETATM    9  C   UNL     1      42.218 -17.505   3.414  1.00  0.00     0.051 A 
HETATM   10  C   UNL     1      41.095 -16.855   2.701  1.00  0.00     0.196 A 
HETATM   11  O   UNL     1      40.588 -17.328   1.697  1.00  0.00    -0.287 OA
HETATM   12  C   UNL     1      43.685 -17.590   5.345  1.00  0.00     0.041 A 
HETATM   13  C   UNL     1      44.270 -18.750   4.833  1.00  0.00     0.045 A 
HETATM   14  C   UNL     1      43.835 -19.266   3.613  1.00  0.00     0.117 A 
HETATM   15  F   UNL     1      44.412 -20.370   3.125  1.00  0.00    -0.206 F 
HETATM   16  C   UNL     1      42.811 -18.658   2.896  1.00  0.00     0.060 A 
ENDROOT
BRANCH   6  17
HETATM   17  C   UNL     1      39.395 -14.371   1.379  1.00  0.00    -0.028 A 
HETATM   18  C   UNL     1      40.587 -14.274   0.636  1.00  0.00     0.046 A 
HETATM   19  C   UNL     1      40.554 -13.979  -0.722  1.00  0.00     0.066 A 
HETATM   20  C   UNL     1      39.349 -13.768  -1.371  1.00  0.00     0.036 A 
HETATM   21  C   UNL     1      38.158 -13.854  -0.649  1.00  0.00     0.003 A 
HETATM   22  C   UNL     1      38.177 -14.159   0.719  1.00  0.00     0.010 A 
BRANCH  19  23
HETATM   23  O   UNL     1      41.748 -13.922  -1.375  1.00  0.00    -0.361 OA
HETATM   24  H   UNL     1      41.740 -13.150  -1.968  1.00  0.00     0.217 HD
ENDBRANCH  19  23
ENDBRANCH   6  17
BRANCH   1  25
HETATM   25  C   UNL     1      39.055 -12.302   3.546  1.00  0.00     0.155 C 
BRANCH  25  26
HETATM   26  C   UNL     1      40.041 -11.261   3.007  1.00  0.00     0.254 C 
BRANCH  26  27
HETATM   27  N   UNL     1      39.324 -10.134   2.283  1.00  0.00    -0.077 N 
HETATM   28  C   UNL     1      39.005 -10.507   0.864  1.00  0.00     0.269 C 
HETATM   29  H   UNL     1      38.434  -9.978   2.778  1.00  0.00     0.279 HD
HETATM   30  C   UNL     1      40.055  -8.818   2.350  1.00  0.00     0.269 C 
ENDBRANCH  26  27
ENDBRANCH  25  26
ENDBRANCH   1  25
TORSDOF 5
ENDMDL
