MODEL 1
REMARK VINA RESULT:      -9.1      0.000      0.000
REMARK  9 active torsions:
REMARK  status: ('A' for Active; 'I' for Inactive)
REMARK    1  A    between atoms: O_2  and  C_3 
REMARK    2  A    between atoms: C_4  and  O_5 
REMARK    3  A    between atoms: C_6  and  C_7 
REMARK    4  A    between atoms: N_8  and  N_9 
REMARK       I    between atoms: N_9  and  C_10 
REMARK    5  A    between atoms: C_10  and  C_11 
REMARK    6  A    between atoms: C_11  and  N_12 
REMARK       I    between atoms: N_12  and  C_13 
REMARK    7  A    between atoms: C_13  and  C_14 
REMARK    8  A    between atoms: C_15  and  C_16 
REMARK    9  A    between atoms: C_15  and  C_22 
ROOT
HETATM    1  N   UNL     1      42.112 -15.817   0.178  1.00  0.00    -0.352 N 
HETATM    2  C   UNL     1      41.828 -17.026   0.759  1.00  0.00     0.223 C 
HETATM    3  O   UNL     1      40.688 -17.412   0.990  1.00  0.00    -0.273 OA
HETATM    4  H   UNL     1      43.072 -15.512   0.087  1.00  0.00     0.162 HD
ENDROOT
BRANCH   1   5
HETATM    5  C   UNL     1      41.071 -14.976  -0.375  1.00  0.00     0.227 C 
BRANCH   5   6
HETATM    6  C   UNL     1      40.340 -14.135   0.668  1.00  0.00     0.255 C 
HETATM    7  N   UNL     1      41.114 -13.088   1.143  1.00  0.00    -0.246 N 
HETATM    8  H   UNL     1      41.993 -12.857   0.672  1.00  0.00     0.192 HD
HETATM    9  O   UNL     1      39.204 -14.424   1.043  1.00  0.00    -0.270 OA
BRANCH   7  10
HETATM   10  N   UNL     1      40.730 -12.404   2.255  1.00  0.00    -0.184 NA
HETATM   11  C   UNL     1      40.976 -13.002   3.379  1.00  0.00     0.153 C 
BRANCH  11  12
HETATM   12  C   UNL     1      40.551 -12.418   4.668  1.00  0.00     0.019 A 
HETATM   13  C   UNL     1      40.992 -11.149   5.046  1.00  0.00     0.110 A 
HETATM   14  C   UNL     1      40.639 -10.606   6.290  1.00  0.00     0.102 A 
HETATM   15  C   UNL     1      39.820 -11.341   7.150  1.00  0.00     0.040 A 
HETATM   16  C   UNL     1      39.368 -12.609   6.772  1.00  0.00     0.004 A 
HETATM   17  C   UNL     1      39.735 -13.149   5.537  1.00  0.00     0.016 A 
BRANCH  13  18
HETATM   18  O   UNL     1      41.801 -10.417   4.213  1.00  0.00    -0.357 OA
HETATM   19  H   UNL     1      41.210  -9.757   3.798  1.00  0.00     0.218 HD
ENDBRANCH  13  18
BRANCH  14  20
HETATM   20  O   UNL     1      41.159  -9.361   6.544  1.00  0.00    -0.353 OA
HETATM   21  C   UNL     1      41.394  -9.035   7.910  1.00  0.00     0.210 C 
ENDBRANCH  14  20
ENDBRANCH  11  12
ENDBRANCH   7  10
ENDBRANCH   5   6
ENDBRANCH   1   5
BRANCH   2  22
HETATM   22  C   UNL     1      43.034 -17.824   1.079  1.00  0.00     0.097 A 
HETATM   23  C   UNL     1      43.430 -18.109   2.537  1.00  0.00     0.027 A 
HETATM   24  C   UNL     1      44.284 -17.218   1.634  1.00  0.00     0.035 A 
BRANCH  23  25
HETATM   25  C   UNL     1      42.766 -17.401   3.724  1.00  0.00    -0.044 A 
HETATM   26  C   UNL     1      41.635 -17.925   4.377  1.00  0.00     0.008 A 
HETATM   27  C   UNL     1      41.054 -17.275   5.469  1.00  0.00     0.001 A 
HETATM   28  C   UNL     1      41.602 -16.088   5.948  1.00  0.00     0.000 A 
HETATM   29  C   UNL     1      42.731 -15.554   5.336  1.00  0.00     0.001 A 
HETATM   30  C   UNL     1      43.303 -16.205   4.241  1.00  0.00     0.008 A 
ENDBRANCH  23  25
BRANCH  23  31
HETATM   31  C   UNL     1      43.871 -19.548   2.820  1.00  0.00    -0.044 A 
HETATM   32  C   UNL     1      44.512 -19.910   4.017  1.00  0.00     0.008 A 
HETATM   33  C   UNL     1      44.895 -21.231   4.268  1.00  0.00     0.001 A 
HETATM   34  C   UNL     1      44.641 -22.223   3.325  1.00  0.00     0.000 A 
HETATM   35  C   UNL     1      43.999 -21.897   2.135  1.00  0.00     0.001 A 
HETATM   36  C   UNL     1      43.618 -20.575   1.890  1.00  0.00     0.008 A 
ENDBRANCH  23  31
ENDBRANCH   2  22
TORSDOF 9
ENDMDL
MODEL 2
REMARK VINA RESULT:      -8.8      1.283      1.980
REMARK  9 active torsions:
REMARK  status: ('A' for Active; 'I' for Inactive)
REMARK    1  A    between atoms: O_2  and  C_3 
REMARK    2  A    between atoms: C_4  and  O_5 
REMARK    3  A    between atoms: C_6  and  C_7 
REMARK    4  A    between atoms: N_8  and  N_9 
REMARK       I    between atoms: N_9  and  C_10 
REMARK    5  A    between atoms: C_10  and  C_11 
REMARK    6  A    between atoms: C_11  and  N_12 
REMARK       I    between atoms: N_12  and  C_13 
REMARK    7  A    between atoms: C_13  and  C_14 
REMARK    8  A    between atoms: C_15  and  C_16 
REMARK    9  A    between atoms: C_15  and  C_22 
ROOT
HETATM    1  N   UNL     1      42.145 -15.741   0.372  1.00  0.00    -0.352 N 
HETATM    2  C   UNL     1      41.828 -16.958   0.918  1.00  0.00     0.223 C 
HETATM    3  O   UNL     1      40.683 -17.296   1.191  1.00  0.00    -0.273 OA
HETATM    4  H   UNL     1      43.114 -15.480   0.245  1.00  0.00     0.162 HD
ENDROOT
BRANCH   1   5
HETATM    5  C   UNL     1      41.124 -14.826  -0.093  1.00  0.00     0.227 C 
BRANCH   5   6
HETATM    6  C   UNL     1      41.139 -13.473   0.614  1.00  0.00     0.255 C 
HETATM    7  N   UNL     1      41.444 -13.583   1.962  1.00  0.00    -0.246 N 
HETATM    8  H   UNL     1      41.787 -14.475   2.330  1.00  0.00     0.192 HD
HETATM    9  O   UNL     1      40.862 -12.434   0.016  1.00  0.00    -0.270 OA
BRANCH   7  10
HETATM   10  N   UNL     1      41.244 -12.526   2.796  1.00  0.00    -0.184 NA
HETATM   11  C   UNL     1      40.909 -12.841   4.008  1.00  0.00     0.153 C 
BRANCH  11  12
HETATM   12  C   UNL     1      40.587 -11.803   5.009  1.00  0.00     0.019 A 
HETATM   13  C   UNL     1      40.012 -12.156   6.231  1.00  0.00     0.110 A 
HETATM   14  C   UNL     1      39.653 -11.175   7.167  1.00  0.00     0.102 A 
HETATM   15  C   UNL     1      39.892  -9.831   6.875  1.00  0.00     0.040 A 
HETATM   16  C   UNL     1      40.476  -9.472   5.656  1.00  0.00     0.004 A 
HETATM   17  C   UNL     1      40.818 -10.454   4.723  1.00  0.00     0.016 A 
BRANCH  13  18
HETATM   18  O   UNL     1      39.767 -13.473   6.530  1.00  0.00    -0.357 OA
HETATM   19  H   UNL     1      39.508 -13.477   7.473  1.00  0.00     0.218 HD
ENDBRANCH  13  18
BRANCH  14  20
HETATM   20  O   UNL     1      39.077 -11.659   8.316  1.00  0.00    -0.353 OA
HETATM   21  C   UNL     1      39.546 -11.108   9.543  1.00  0.00     0.210 C 
ENDBRANCH  14  20
ENDBRANCH  11  12
ENDBRANCH   7  10
ENDBRANCH   5   6
ENDBRANCH   1   5
BRANCH   2  22
HETATM   22  C   UNL     1      43.006 -17.827   1.144  1.00  0.00     0.097 A 
HETATM   23  C   UNL     1      43.468 -18.178   2.568  1.00  0.00     0.027 A 
HETATM   24  C   UNL     1      44.316 -17.305   1.642  1.00  0.00     0.035 A 
BRANCH  23  25
HETATM   25  C   UNL     1      42.911 -17.475   3.811  1.00  0.00    -0.044 A 
HETATM   26  C   UNL     1      43.439 -16.262   4.290  1.00  0.00     0.008 A 
HETATM   27  C   UNL     1      42.906 -15.625   5.415  1.00  0.00     0.001 A 
HETATM   28  C   UNL     1      41.817 -16.180   6.081  1.00  0.00     0.000 A 
HETATM   29  C   UNL     1      41.260 -17.368   5.621  1.00  0.00     0.001 A 
HETATM   30  C   UNL     1      41.801 -18.003   4.500  1.00  0.00     0.008 A 
ENDBRANCH  23  25
BRANCH  23  31
HETATM   31  C   UNL     1      43.846 -19.647   2.783  1.00  0.00    -0.044 A 
HETATM   32  C   UNL     1      43.569 -20.637   1.824  1.00  0.00     0.008 A 
HETATM   33  C   UNL     1      43.933 -21.970   2.028  1.00  0.00     0.001 A 
HETATM   34  C   UNL     1      44.588 -22.345   3.197  1.00  0.00     0.000 A 
HETATM   35  C   UNL     1      44.884 -21.386   4.160  1.00  0.00     0.001 A 
HETATM   36  C   UNL     1      44.518 -20.054   3.952  1.00  0.00     0.008 A 
ENDBRANCH  23  31
ENDBRANCH   2  22
TORSDOF 9
ENDMDL
MODEL 3
REMARK VINA RESULT:      -8.6      4.242      6.718
REMARK  9 active torsions:
REMARK  status: ('A' for Active; 'I' for Inactive)
REMARK    1  A    between atoms: O_2  and  C_3 
REMARK    2  A    between atoms: C_4  and  O_5 
REMARK    3  A    between atoms: C_6  and  C_7 
REMARK    4  A    between atoms: N_8  and  N_9 
REMARK       I    between atoms: N_9  and  C_10 
REMARK    5  A    between atoms: C_10  and  C_11 
REMARK    6  A    between atoms: C_11  and  N_12 
REMARK       I    between atoms: N_12  and  C_13 
REMARK    7  A    between atoms: C_13  and  C_14 
REMARK    8  A    between atoms: C_15  and  C_16 
REMARK    9  A    between atoms: C_15  and  C_22 
ROOT
HETATM    1  N   UNL     1      42.129 -15.765   0.248  1.00  0.00    -0.352 N 
HETATM    2  C   UNL     1      41.833 -16.989   0.792  1.00  0.00     0.223 C 
HETATM    3  O   UNL     1      40.690 -17.365   1.020  1.00  0.00    -0.273 OA
HETATM    4  H   UNL     1      43.093 -15.471   0.158  1.00  0.00     0.162 HD
ENDROOT
BRANCH   1   5
HETATM    5  C   UNL     1      41.096 -14.890  -0.265  1.00  0.00     0.227 C 
BRANCH   5   6
HETATM    6  C   UNL     1      41.331 -14.435  -1.703  1.00  0.00     0.255 C 
HETATM    7  N   UNL     1      42.182 -13.344  -1.782  1.00  0.00    -0.246 N 
HETATM    8  H   UNL     1      42.699 -13.047  -0.949  1.00  0.00     0.192 HD
HETATM    9  O   UNL     1      40.768 -14.984  -2.649  1.00  0.00    -0.270 OA
BRANCH   7  10
HETATM   10  N   UNL     1      42.293 -12.646  -2.945  1.00  0.00    -0.184 NA
HETATM   11  C   UNL     1      41.610 -11.545  -2.991  1.00  0.00     0.153 C 
BRANCH  11  12
HETATM   12  C   UNL     1      41.571 -10.717  -4.213  1.00  0.00     0.019 A 
HETATM   13  C   UNL     1      40.454 -10.748  -5.050  1.00  0.00     0.110 A 
HETATM   14  C   UNL     1      40.427 -10.008  -6.241  1.00  0.00     0.102 A 
HETATM   15  C   UNL     1      41.526  -9.216  -6.580  1.00  0.00     0.040 A 
HETATM   16  C   UNL     1      42.644  -9.174  -5.740  1.00  0.00     0.004 A 
HETATM   17  C   UNL     1      42.669  -9.926  -4.563  1.00  0.00     0.016 A 
BRANCH  13  18
HETATM   18  O   UNL     1      39.368 -11.525  -4.732  1.00  0.00    -0.357 OA
HETATM   19  H   UNL     1      38.911 -11.685  -5.582  1.00  0.00     0.218 HD
ENDBRANCH  13  18
BRANCH  14  20
HETATM   20  O   UNL     1      39.278 -10.147  -6.980  1.00  0.00    -0.353 OA
HETATM   21  C   UNL     1      39.441 -10.322  -8.384  1.00  0.00     0.210 C 
ENDBRANCH  14  20
ENDBRANCH  11  12
ENDBRANCH   7  10
ENDBRANCH   5   6
ENDBRANCH   1   5
BRANCH   2  22
HETATM   22  C   UNL     1      43.030 -17.815   1.071  1.00  0.00     0.097 A 
HETATM   23  C   UNL     1      43.453 -18.128   2.516  1.00  0.00     0.027 A 
HETATM   24  C   UNL     1      44.304 -17.241   1.606  1.00  0.00     0.035 A 
BRANCH  23  25
HETATM   25  C   UNL     1      42.831 -17.425   3.728  1.00  0.00    -0.044 A 
HETATM   26  C   UNL     1      41.733 -17.958   4.426  1.00  0.00     0.008 A 
HETATM   27  C   UNL     1      41.190 -17.312   5.541  1.00  0.00     0.001 A 
HETATM   28  C   UNL     1      41.745 -16.120   5.995  1.00  0.00     0.000 A 
HETATM   29  C   UNL     1      42.843 -15.576   5.338  1.00  0.00     0.001 A 
HETATM   30  C   UNL     1      43.377 -16.223   4.221  1.00  0.00     0.008 A 
ENDBRANCH  23  25
BRANCH  23  31
HETATM   31  C   UNL     1      43.871 -19.580   2.768  1.00  0.00    -0.044 A 
HETATM   32  C   UNL     1      44.523 -19.974   3.950  1.00  0.00     0.008 A 
HETATM   33  C   UNL     1      44.886 -21.305   4.173  1.00  0.00     0.001 A 
HETATM   34  C   UNL     1      44.599 -22.276   3.217  1.00  0.00     0.000 A 
HETATM   35  C   UNL     1      43.947 -21.918   2.042  1.00  0.00     0.001 A 
HETATM   36  C   UNL     1      43.587 -20.586   1.825  1.00  0.00     0.008 A 
ENDBRANCH  23  31
ENDBRANCH   2  22
TORSDOF 9
ENDMDL
MODEL 4
REMARK VINA RESULT:      -8.4      2.813      5.481
REMARK  9 active torsions:
REMARK  status: ('A' for Active; 'I' for Inactive)
REMARK    1  A    between atoms: O_2  and  C_3 
REMARK    2  A    between atoms: C_4  and  O_5 
REMARK    3  A    between atoms: C_6  and  C_7 
REMARK    4  A    between atoms: N_8  and  N_9 
REMARK       I    between atoms: N_9  and  C_10 
REMARK    5  A    between atoms: C_10  and  C_11 
REMARK    6  A    between atoms: C_11  and  N_12 
REMARK       I    between atoms: N_12  and  C_13 
REMARK    7  A    between atoms: C_13  and  C_14 
REMARK    8  A    between atoms: C_15  and  C_16 
REMARK    9  A    between atoms: C_15  and  C_22 
ROOT
HETATM    1  N   UNL     1      41.844 -14.477   5.789  1.00  0.00    -0.352 N 
HETATM    2  C   UNL     1      42.980 -15.235   5.914  1.00  0.00     0.223 C 
HETATM    3  O   UNL     1      44.110 -14.780   5.792  1.00  0.00    -0.273 OA
HETATM    4  H   UNL     1      40.935 -14.919   5.815  1.00  0.00     0.162 HD
ENDROOT
BRANCH   1   5
HETATM    5  C   UNL     1      41.901 -13.034   5.679  1.00  0.00     0.227 C 
BRANCH   5   6
HETATM    6  C   UNL     1      41.928 -12.525   4.241  1.00  0.00     0.255 C 
HETATM    7  N   UNL     1      42.422 -13.469   3.354  1.00  0.00    -0.246 N 
HETATM    8  H   UNL     1      42.560 -14.433   3.669  1.00  0.00     0.192 HD
HETATM    9  O   UNL     1      41.578 -11.380   3.959  1.00  0.00    -0.270 OA
BRANCH   7  10
HETATM   10  N   UNL     1      42.764 -13.104   2.088  1.00  0.00    -0.184 NA
HETATM   11  C   UNL     1      41.792 -13.121   1.231  1.00  0.00     0.153 C 
BRANCH  11  12
HETATM   12  C   UNL     1      42.023 -12.822  -0.197  1.00  0.00     0.019 A 
HETATM   13  C   UNL     1      42.589 -11.605  -0.579  1.00  0.00     0.110 A 
HETATM   14  C   UNL     1      42.764 -11.287  -1.934  1.00  0.00     0.102 A 
HETATM   15  C   UNL     1      42.384 -12.211  -2.908  1.00  0.00     0.040 A 
HETATM   16  C   UNL     1      41.824 -13.436  -2.531  1.00  0.00     0.004 A 
HETATM   17  C   UNL     1      41.639 -13.740  -1.180  1.00  0.00     0.016 A 
BRANCH  13  18
HETATM   18  O   UNL     1      42.965 -10.684   0.368  1.00  0.00    -0.357 OA
HETATM   19  H   UNL     1      42.134 -10.247   0.643  1.00  0.00     0.218 HD
ENDBRANCH  13  18
BRANCH  14  20
HETATM   20  O   UNL     1      43.311 -10.049  -2.170  1.00  0.00    -0.353 OA
HETATM   21  C   UNL     1      42.476  -9.098  -2.822  1.00  0.00     0.210 C 
ENDBRANCH  14  20
ENDBRANCH  11  12
ENDBRANCH   7  10
ENDBRANCH   5   6
ENDBRANCH   1   5
BRANCH   2  22
HETATM   22  C   UNL     1      42.707 -16.659   6.215  1.00  0.00     0.097 A 
HETATM   23  C   UNL     1      42.602 -17.699   5.087  1.00  0.00     0.027 A 
HETATM   24  C   UNL     1      41.389 -17.310   5.933  1.00  0.00     0.035 A 
BRANCH  23  25
HETATM   25  C   UNL     1      42.527 -17.304   3.607  1.00  0.00    -0.044 A 
HETATM   26  C   UNL     1      43.677 -17.061   2.833  1.00  0.00     0.008 A 
HETATM   27  C   UNL     1      43.590 -16.720   1.480  1.00  0.00     0.001 A 
HETATM   28  C   UNL     1      42.346 -16.630   0.862  1.00  0.00     0.000 A 
HETATM   29  C   UNL     1      41.192 -16.883   1.594  1.00  0.00     0.001 A 
HETATM   30  C   UNL     1      41.285 -17.217   2.947  1.00  0.00     0.008 A 
ENDBRANCH  23  25
BRANCH  23  31
HETATM   31  C   UNL     1      43.323 -19.023   5.356  1.00  0.00    -0.044 A 
HETATM   32  C   UNL     1      43.188 -19.711   6.575  1.00  0.00     0.008 A 
HETATM   33  C   UNL     1      43.841 -20.926   6.802  1.00  0.00     0.001 A 
HETATM   34  C   UNL     1      44.641 -21.484   5.810  1.00  0.00     0.000 A 
HETATM   35  C   UNL     1      44.786 -20.832   4.590  1.00  0.00     0.001 A 
HETATM   36  C   UNL     1      44.132 -19.618   4.369  1.00  0.00     0.008 A 
ENDBRANCH  23  31
ENDBRANCH   2  22
TORSDOF 9
ENDMDL
MODEL 5
REMARK VINA RESULT:      -8.3      2.075      2.955
REMARK  9 active torsions:
REMARK  status: ('A' for Active; 'I' for Inactive)
REMARK    1  A    between atoms: O_2  and  C_3 
REMARK    2  A    between atoms: C_4  and  O_5 
REMARK    3  A    between atoms: C_6  and  C_7 
REMARK    4  A    between atoms: N_8  and  N_9 
REMARK       I    between atoms: N_9  and  C_10 
REMARK    5  A    between atoms: C_10  and  C_11 
REMARK    6  A    between atoms: C_11  and  N_12 
REMARK       I    between atoms: N_12  and  C_13 
REMARK    7  A    between atoms: C_13  and  C_14 
REMARK    8  A    between atoms: C_15  and  C_16 
REMARK    9  A    between atoms: C_15  and  C_22 
ROOT
HETATM    1  N   UNL     1      41.713 -15.209   2.629  1.00  0.00    -0.352 N 
HETATM    2  C   UNL     1      41.376 -16.519   2.404  1.00  0.00     0.223 C 
HETATM    3  O   UNL     1      40.225 -16.935   2.445  1.00  0.00    -0.273 OA
HETATM    4  H   UNL     1      42.686 -14.936   2.666  1.00  0.00     0.162 HD
ENDROOT
BRANCH   1   5
HETATM    5  C   UNL     1      40.707 -14.176   2.757  1.00  0.00     0.227 C 
BRANCH   5   6
HETATM    6  C   UNL     1      40.416 -13.774   4.200  1.00  0.00     0.255 C 
HETATM    7  N   UNL     1      40.900 -12.511   4.507  1.00  0.00    -0.246 N 
HETATM    8  H   UNL     1      41.238 -11.905   3.754  1.00  0.00     0.192 HD
HETATM    9  O   UNL     1      39.850 -14.541   4.978  1.00  0.00    -0.270 OA
BRANCH   7  10
HETATM   10  N   UNL     1      40.968 -12.101   5.803  1.00  0.00    -0.184 NA
HETATM   11  C   UNL     1      41.260 -10.849   5.967  1.00  0.00     0.153 C 
BRANCH  11  12
HETATM   12  C   UNL     1      41.442 -10.274   7.315  1.00  0.00     0.019 A 
HETATM   13  C   UNL     1      42.285 -10.895   8.238  1.00  0.00     0.110 A 
HETATM   14  C   UNL     1      42.425 -10.389   9.539  1.00  0.00     0.102 A 
HETATM   15  C   UNL     1      41.724  -9.238   9.904  1.00  0.00     0.040 A 
HETATM   16  C   UNL     1      40.885  -8.607   8.980  1.00  0.00     0.004 A 
HETATM   17  C   UNL     1      40.740  -9.125   7.691  1.00  0.00     0.016 A 
BRANCH  13  18
HETATM   18  O   UNL     1      42.978 -12.029   7.894  1.00  0.00    -0.357 OA
HETATM   19  H   UNL     1      42.792 -12.164   6.943  1.00  0.00     0.218 HD
ENDBRANCH  13  18
BRANCH  14  20
HETATM   20  O   UNL     1      43.268 -11.109  10.350  1.00  0.00    -0.353 OA
HETATM   21  C   UNL     1      43.875 -10.400  11.425  1.00  0.00     0.210 C 
ENDBRANCH  14  20
ENDBRANCH  11  12
ENDBRANCH   7  10
ENDBRANCH   5   6
ENDBRANCH   1   5
BRANCH   2  22
HETATM   22  C   UNL     1      42.541 -17.383   2.102  1.00  0.00     0.097 A 
HETATM   23  C   UNL     1      43.386 -17.993   3.232  1.00  0.00     0.027 A 
HETATM   24  C   UNL     1      43.955 -16.933   2.288  1.00  0.00     0.035 A 
BRANCH  23  25
HETATM   25  C   UNL     1      43.238 -17.562   4.696  1.00  0.00    -0.044 A 
HETATM   26  C   UNL     1      44.130 -16.665   5.311  1.00  0.00     0.008 A 
HETATM   27  C   UNL     1      43.968 -16.269   6.641  1.00  0.00     0.001 A 
HETATM   28  C   UNL     1      42.896 -16.750   7.388  1.00  0.00     0.000 A 
HETATM   29  C   UNL     1      41.986 -17.624   6.804  1.00  0.00     0.001 A 
HETATM   30  C   UNL     1      42.157 -18.021   5.475  1.00  0.00     0.008 A 
ENDBRANCH  23  25
BRANCH  23  31
HETATM   31  C   UNL     1      43.764 -19.465   3.037  1.00  0.00    -0.044 A 
HETATM   32  C   UNL     1      44.541 -20.166   3.975  1.00  0.00     0.008 A 
HETATM   33  C   UNL     1      44.866 -21.513   3.791  1.00  0.00     0.001 A 
HETATM   34  C   UNL     1      44.415 -22.192   2.663  1.00  0.00     0.000 A 
HETATM   35  C   UNL     1      43.637 -21.527   1.721  1.00  0.00     0.001 A 
HETATM   36  C   UNL     1      43.315 -20.181   1.910  1.00  0.00     0.008 A 
ENDBRANCH  23  31
ENDBRANCH   2  22
TORSDOF 9
ENDMDL
MODEL 6
REMARK VINA RESULT:      -8.3      4.665      6.994
REMARK  9 active torsions:
REMARK  status: ('A' for Active; 'I' for Inactive)
REMARK    1  A    between atoms: O_2  and  C_3 
REMARK    2  A    between atoms: C_4  and  O_5 
REMARK    3  A    between atoms: C_6  and  C_7 
REMARK    4  A    between atoms: N_8  and  N_9 
REMARK       I    between atoms: N_9  and  C_10 
REMARK    5  A    between atoms: C_10  and  C_11 
REMARK    6  A    between atoms: C_11  and  N_12 
REMARK       I    between atoms: N_12  and  C_13 
REMARK    7  A    between atoms: C_13  and  C_14 
REMARK    8  A    between atoms: C_15  and  C_16 
REMARK    9  A    between atoms: C_15  and  C_22 
ROOT
HETATM    1  N   UNL     1      44.659 -13.714   8.088  1.00  0.00    -0.352 N 
HETATM    2  C   UNL     1      44.993 -14.197   6.849  1.00  0.00     0.223 C 
HETATM    3  O   UNL     1      45.588 -13.536   6.006  1.00  0.00    -0.273 OA
HETATM    4  H   UNL     1      44.094 -14.273   8.714  1.00  0.00     0.162 HD
ENDROOT
BRANCH   1   5
HETATM    5  C   UNL     1      45.143 -12.434   8.561  1.00  0.00     0.227 C 
BRANCH   5   6
HETATM    6  C   UNL     1      44.079 -11.592   9.260  1.00  0.00     0.255 C 
HETATM    7  N   UNL     1      44.169 -11.663  10.641  1.00  0.00    -0.246 N 
HETATM    8  H   UNL     1      44.989 -12.099  11.071  1.00  0.00     0.192 HD
HETATM    9  O   UNL     1      43.231 -10.971   8.620  1.00  0.00    -0.270 OA
BRANCH   7  10
HETATM   10  N   UNL     1      43.152 -11.197  11.417  1.00  0.00    -0.184 NA
HETATM   11  C   UNL     1      43.481 -10.254  12.244  1.00  0.00     0.153 C 
BRANCH  11  12
HETATM   12  C   UNL     1      42.504  -9.699  13.203  1.00  0.00     0.019 A 
HETATM   13  C   UNL     1      41.464  -8.883  12.755  1.00  0.00     0.110 A 
HETATM   14  C   UNL     1      40.561  -8.307  13.662  1.00  0.00     0.102 A 
HETATM   15  C   UNL     1      40.698  -8.572  15.026  1.00  0.00     0.040 A 
HETATM   16  C   UNL     1      41.733  -9.397  15.478  1.00  0.00     0.004 A 
HETATM   17  C   UNL     1      42.637  -9.955  14.571  1.00  0.00     0.016 A 
BRANCH  13  18
HETATM   18  O   UNL     1      41.319  -8.610  11.418  1.00  0.00    -0.357 OA
HETATM   19  H   UNL     1      41.269  -9.485  10.983  1.00  0.00     0.218 HD
ENDBRANCH  13  18
BRANCH  14  20
HETATM   20  O   UNL     1      39.602  -7.508  13.090  1.00  0.00    -0.353 OA
HETATM   21  C   UNL     1      38.275  -8.024  13.068  1.00  0.00     0.210 C 
ENDBRANCH  14  20
ENDBRANCH  11  12
ENDBRANCH   7  10
ENDBRANCH   5   6
ENDBRANCH   1   5
BRANCH   2  22
HETATM   22  C   UNL     1      44.570 -15.600   6.630  1.00  0.00     0.097 A 
HETATM   23  C   UNL     1      43.337 -15.928   5.772  1.00  0.00     0.027 A 
HETATM   24  C   UNL     1      43.359 -16.192   7.278  1.00  0.00     0.035 A 
BRANCH  23  25
HETATM   25  C   UNL     1      42.348 -14.852   5.306  1.00  0.00    -0.044 A 
HETATM   26  C   UNL     1      42.695 -13.869   4.362  1.00  0.00     0.008 A 
HETATM   27  C   UNL     1      41.775 -12.907   3.935  1.00  0.00     0.001 A 
HETATM   28  C   UNL     1      40.474 -12.917   4.431  1.00  0.00     0.000 A 
HETATM   29  C   UNL     1      40.094 -13.888   5.351  1.00  0.00     0.001 A 
HETATM   30  C   UNL     1      41.021 -14.842   5.778  1.00  0.00     0.008 A 
ENDBRANCH  23  25
BRANCH  23  31
HETATM   31  C   UNL     1      43.519 -17.092   4.794  1.00  0.00    -0.044 A 
HETATM   32  C   UNL     1      43.418 -16.920   3.402  1.00  0.00     0.008 A 
HETATM   33  C   UNL     1      43.601 -17.989   2.521  1.00  0.00     0.001 A 
HETATM   34  C   UNL     1      43.895 -19.258   3.013  1.00  0.00     0.000 A 
HETATM   35  C   UNL     1      44.010 -19.457   4.385  1.00  0.00     0.001 A 
HETATM   36  C   UNL     1      43.826 -18.385   5.261  1.00  0.00     0.008 A 
ENDBRANCH  23  31
ENDBRANCH   2  22
TORSDOF 9
ENDMDL
MODEL 7
REMARK VINA RESULT:      -8.2      3.747      5.602
REMARK  9 active torsions:
REMARK  status: ('A' for Active; 'I' for Inactive)
REMARK    1  A    between atoms: O_2  and  C_3 
REMARK    2  A    between atoms: C_4  and  O_5 
REMARK    3  A    between atoms: C_6  and  C_7 
REMARK    4  A    between atoms: N_8  and  N_9 
REMARK       I    between atoms: N_9  and  C_10 
REMARK    5  A    between atoms: C_10  and  C_11 
REMARK    6  A    between atoms: C_11  and  N_12 
REMARK       I    between atoms: N_12  and  C_13 
REMARK    7  A    between atoms: C_13  and  C_14 
REMARK    8  A    between atoms: C_15  and  C_16 
REMARK    9  A    between atoms: C_15  and  C_22 
ROOT
HETATM    1  N   UNL     1      43.955 -15.135   6.058  1.00  0.00    -0.352 N 
HETATM    2  C   UNL     1      42.675 -15.575   5.840  1.00  0.00     0.223 C 
HETATM    3  O   UNL     1      41.696 -14.840   5.870  1.00  0.00    -0.273 OA
HETATM    4  H   UNL     1      44.717 -15.798   6.105  1.00  0.00     0.162 HD
ENDROOT
BRANCH   1   5
HETATM    5  C   UNL     1      44.267 -13.725   6.163  1.00  0.00     0.227 C 
BRANCH   5   6
HETATM    6  C   UNL     1      44.223 -13.189   7.592  1.00  0.00     0.255 C 
HETATM    7  N   UNL     1      43.366 -12.108   7.726  1.00  0.00    -0.246 N 
HETATM    8  H   UNL     1      42.732 -11.869   6.958  1.00  0.00     0.192 HD
HETATM    9  O   UNL     1      44.924 -13.672   8.480  1.00  0.00    -0.270 OA
BRANCH   7  10
HETATM   10  N   UNL     1      43.401 -11.344   8.852  1.00  0.00    -0.184 NA
HETATM   11  C   UNL     1      42.295 -10.727   9.130  1.00  0.00     0.153 C 
BRANCH  11  12
HETATM   12  C   UNL     1      42.200  -9.802  10.278  1.00  0.00     0.019 A 
HETATM   13  C   UNL     1      42.766 -10.145  11.507  1.00  0.00     0.110 A 
HETATM   14  C   UNL     1      42.636  -9.300  12.619  1.00  0.00     0.102 A 
HETATM   15  C   UNL     1      41.949  -8.092  12.484  1.00  0.00     0.040 A 
HETATM   16  C   UNL     1      41.388  -7.740  11.252  1.00  0.00     0.004 A 
HETATM   17  C   UNL     1      41.509  -8.593  10.153  1.00  0.00     0.016 A 
BRANCH  13  18
HETATM   18  O   UNL     1      43.441 -11.331  11.656  1.00  0.00    -0.357 OA
HETATM   19  H   UNL     1      42.782 -11.956  12.019  1.00  0.00     0.218 HD
ENDBRANCH  13  18
BRANCH  14  20
HETATM   20  O   UNL     1      43.220  -9.769  13.770  1.00  0.00    -0.353 OA
HETATM   21  C   UNL     1      42.371  -9.904  14.905  1.00  0.00     0.210 C 
ENDBRANCH  14  20
ENDBRANCH  11  12
ENDBRANCH   7  10
ENDBRANCH   5   6
ENDBRANCH   1   5
BRANCH   2  22
HETATM   22  C   UNL     1      42.590 -17.027   5.561  1.00  0.00     0.097 A 
HETATM   23  C   UNL     1      42.277 -17.543   4.147  1.00  0.00     0.027 A 
HETATM   24  C   UNL     1      41.295 -17.730   5.304  1.00  0.00     0.035 A 
BRANCH  23  25
HETATM   25  C   UNL     1      41.800 -16.619   3.020  1.00  0.00    -0.044 A 
HETATM   26  C   UNL     1      42.694 -15.881   2.223  1.00  0.00     0.008 A 
HETATM   27  C   UNL     1      42.242 -15.058   1.188  1.00  0.00     0.001 A 
HETATM   28  C   UNL     1      40.881 -14.965   0.913  1.00  0.00     0.000 A 
HETATM   29  C   UNL     1      39.973 -15.697   1.671  1.00  0.00     0.001 A 
HETATM   30  C   UNL     1      40.430 -16.513   2.708  1.00  0.00     0.008 A 
ENDBRANCH  23  25
BRANCH  23  31
HETATM   31  C   UNL     1      43.136 -18.723   3.683  1.00  0.00    -0.044 A 
HETATM   32  C   UNL     1      44.132 -19.287   4.499  1.00  0.00     0.008 A 
HETATM   33  C   UNL     1      44.898 -20.374   4.067  1.00  0.00     0.001 A 
HETATM   34  C   UNL     1      44.682 -20.924   2.807  1.00  0.00     0.000 A 
HETATM   35  C   UNL     1      43.697 -20.393   1.981  1.00  0.00     0.001 A 
HETATM   36  C   UNL     1      42.934 -19.308   2.417  1.00  0.00     0.008 A 
ENDBRANCH  23  31
ENDBRANCH   2  22
TORSDOF 9
ENDMDL
MODEL 8
REMARK VINA RESULT:      -8.2      2.449      5.977
REMARK  9 active torsions:
REMARK  status: ('A' for Active; 'I' for Inactive)
REMARK    1  A    between atoms: O_2  and  C_3 
REMARK    2  A    between atoms: C_4  and  O_5 
REMARK    3  A    between atoms: C_6  and  C_7 
REMARK    4  A    between atoms: N_8  and  N_9 
REMARK       I    between atoms: N_9  and  C_10 
REMARK    5  A    between atoms: C_10  and  C_11 
REMARK    6  A    between atoms: C_11  and  N_12 
REMARK       I    between atoms: N_12  and  C_13 
REMARK    7  A    between atoms: C_13  and  C_14 
REMARK    8  A    between atoms: C_15  and  C_16 
REMARK    9  A    between atoms: C_15  and  C_22 
ROOT
HETATM    1  N   UNL     1      42.106 -14.914   5.145  1.00  0.00    -0.352 N 
HETATM    2  C   UNL     1      43.184 -15.563   5.689  1.00  0.00     0.223 C 
HETATM    3  O   UNL     1      44.268 -15.025   5.878  1.00  0.00    -0.273 OA
HETATM    4  H   UNL     1      41.261 -15.427   4.933  1.00  0.00     0.162 HD
ENDROOT
BRANCH   1   5
HETATM    5  C   UNL     1      42.114 -13.485   4.916  1.00  0.00     0.227 C 
BRANCH   5   6
HETATM    6  C   UNL     1      42.467 -13.092   3.484  1.00  0.00     0.255 C 
HETATM    7  N   UNL     1      41.371 -12.623   2.777  1.00  0.00    -0.246 N 
HETATM    8  H   UNL     1      40.500 -12.419   3.275  1.00  0.00     0.192 HD
HETATM    9  O   UNL     1      43.606 -13.236   3.042  1.00  0.00    -0.270 OA
BRANCH   7  10
HETATM   10  N   UNL     1      41.439 -12.481   1.425  1.00  0.00    -0.184 NA
HETATM   11  C   UNL     1      41.019 -13.501   0.744  1.00  0.00     0.153 C 
BRANCH  11  12
HETATM   12  C   UNL     1      41.099 -13.525  -0.730  1.00  0.00     0.019 A 
HETATM   13  C   UNL     1      40.048 -14.047  -1.485  1.00  0.00     0.110 A 
HETATM   14  C   UNL     1      40.134 -14.124  -2.883  1.00  0.00     0.102 A 
HETATM   15  C   UNL     1      41.282 -13.653  -3.524  1.00  0.00     0.040 A 
HETATM   16  C   UNL     1      42.335 -13.121  -2.773  1.00  0.00     0.004 A 
HETATM   17  C   UNL     1      42.247 -13.061  -1.381  1.00  0.00     0.016 A 
BRANCH  13  18
HETATM   18  O   UNL     1      38.915 -14.517  -0.869  1.00  0.00    -0.357 OA
HETATM   19  H   UNL     1      38.913 -15.480  -1.038  1.00  0.00     0.218 HD
ENDBRANCH  13  18
BRANCH  14  20
HETATM   20  O   UNL     1      39.040 -14.679  -3.499  1.00  0.00    -0.353 OA
HETATM   21  C   UNL     1      39.188 -16.011  -3.981  1.00  0.00     0.210 C 
ENDBRANCH  14  20
ENDBRANCH  11  12
ENDBRANCH   7  10
ENDBRANCH   5   6
ENDBRANCH   1   5
BRANCH   2  22
HETATM   22  C   UNL     1      42.910 -16.978   6.031  1.00  0.00     0.097 A 
HETATM   23  C   UNL     1      42.776 -18.045   4.932  1.00  0.00     0.027 A 
HETATM   24  C   UNL     1      41.583 -17.627   5.793  1.00  0.00     0.035 A 
BRANCH  23  25
HETATM   25  C   UNL     1      42.673 -17.686   3.444  1.00  0.00    -0.044 A 
HETATM   26  C   UNL     1      41.437 -17.567   2.783  1.00  0.00     0.008 A 
HETATM   27  C   UNL     1      41.362 -17.221   1.431  1.00  0.00     0.001 A 
HETATM   28  C   UNL     1      42.525 -16.969   0.708  1.00  0.00     0.000 A 
HETATM   29  C   UNL     1      43.761 -17.060   1.338  1.00  0.00     0.001 A 
HETATM   30  C   UNL     1      43.830 -17.412   2.688  1.00  0.00     0.008 A 
ENDBRANCH  23  25
BRANCH  23  31
HETATM   31  C   UNL     1      43.495 -19.366   5.220  1.00  0.00    -0.044 A 
HETATM   32  C   UNL     1      43.336 -20.052   6.437  1.00  0.00     0.008 A 
HETATM   33  C   UNL     1      43.987 -21.264   6.680  1.00  0.00     0.001 A 
HETATM   34  C   UNL     1      44.811 -21.822   5.706  1.00  0.00     0.000 A 
HETATM   35  C   UNL     1      44.981 -21.171   4.489  1.00  0.00     0.001 A 
HETATM   36  C   UNL     1      44.327 -19.959   4.251  1.00  0.00     0.008 A 
ENDBRANCH  23  31
ENDBRANCH   2  22
TORSDOF 9
ENDMDL
MODEL 9
REMARK VINA RESULT:      -8.1      4.258      6.344
REMARK  9 active torsions:
REMARK  status: ('A' for Active; 'I' for Inactive)
REMARK    1  A    between atoms: O_2  and  C_3 
REMARK    2  A    between atoms: C_4  and  O_5 
REMARK    3  A    between atoms: C_6  and  C_7 
REMARK    4  A    between atoms: N_8  and  N_9 
REMARK       I    between atoms: N_9  and  C_10 
REMARK    5  A    between atoms: C_10  and  C_11 
REMARK    6  A    between atoms: C_11  and  N_12 
REMARK       I    between atoms: N_12  and  C_13 
REMARK    7  A    between atoms: C_13  and  C_14 
REMARK    8  A    between atoms: C_15  and  C_16 
REMARK    9  A    between atoms: C_15  and  C_22 
ROOT
HETATM    1  N   UNL     1      44.349 -13.880   8.089  1.00  0.00    -0.352 N 
HETATM    2  C   UNL     1      44.629 -14.393   6.848  1.00  0.00     0.223 C 
HETATM    3  O   UNL     1      45.018 -13.710   5.910  1.00  0.00    -0.273 OA
HETATM    4  H   UNL     1      43.951 -14.474   8.804  1.00  0.00     0.162 HD
ENDROOT
BRANCH   1   5
HETATM    5  C   UNL     1      44.665 -12.510   8.435  1.00  0.00     0.227 C 
BRANCH   5   6
HETATM    6  C   UNL     1      43.793 -11.939   9.550  1.00  0.00     0.255 C 
HETATM    7  N   UNL     1      42.786 -11.118   9.067  1.00  0.00    -0.246 N 
HETATM    8  H   UNL     1      42.596 -11.092   8.061  1.00  0.00     0.192 HD
HETATM    9  O   UNL     1      44.028 -12.177  10.734  1.00  0.00    -0.270 OA
BRANCH   7  10
HETATM   10  N   UNL     1      42.087 -10.320   9.919  1.00  0.00    -0.184 NA
HETATM   11  C   UNL     1      40.852 -10.667  10.107  1.00  0.00     0.153 C 
BRANCH  11  12
HETATM   12  C   UNL     1      39.946  -9.856  10.947  1.00  0.00     0.019 A 
HETATM   13  C   UNL     1      40.379  -9.366  12.180  1.00  0.00     0.110 A 
HETATM   14  C   UNL     1      39.512  -8.641  13.010  1.00  0.00     0.102 A 
HETATM   15  C   UNL     1      38.206  -8.392  12.584  1.00  0.00     0.040 A 
HETATM   16  C   UNL     1      37.770  -8.873  11.345  1.00  0.00     0.004 A 
HETATM   17  C   UNL     1      38.635  -9.607  10.530  1.00  0.00     0.016 A 
BRANCH  13  18
HETATM   18  O   UNL     1      41.659  -9.607  12.613  1.00  0.00    -0.357 OA
HETATM   19  H   UNL     1      41.729 -10.580  12.676  1.00  0.00     0.218 HD
ENDBRANCH  13  18
BRANCH  14  20
HETATM   20  O   UNL     1      40.059  -8.238  14.203  1.00  0.00    -0.353 OA
HETATM   21  C   UNL     1      39.222  -7.467  15.059  1.00  0.00     0.210 C 
ENDBRANCH  14  20
ENDBRANCH  11  12
ENDBRANCH   7  10
ENDBRANCH   5   6
ENDBRANCH   1   5
BRANCH   2  22
HETATM   22  C   UNL     1      44.419 -15.856   6.755  1.00  0.00     0.097 A 
HETATM   23  C   UNL     1      43.276 -16.438   5.907  1.00  0.00     0.027 A 
HETATM   24  C   UNL     1      43.284 -16.558   7.431  1.00  0.00     0.035 A 
BRANCH  23  25
HETATM   25  C   UNL     1      42.160 -15.565   5.320  1.00  0.00    -0.044 A 
HETATM   26  C   UNL     1      40.927 -15.381   5.972  1.00  0.00     0.008 A 
HETATM   27  C   UNL     1      39.928 -14.566   5.431  1.00  0.00     0.001 A 
HETATM   28  C   UNL     1      40.145 -13.901   4.227  1.00  0.00     0.000 A 
HETATM   29  C   UNL     1      41.360 -14.048   3.568  1.00  0.00     0.001 A 
HETATM   30  C   UNL     1      42.352 -14.868   4.111  1.00  0.00     0.008 A 
ENDBRANCH  23  25
BRANCH  23  31
HETATM   31  C   UNL     1      43.657 -17.647   5.047  1.00  0.00    -0.044 A 
HETATM   32  C   UNL     1      43.608 -17.609   3.643  1.00  0.00     0.008 A 
HETATM   33  C   UNL     1      43.972 -18.716   2.871  1.00  0.00     0.001 A 
HETATM   34  C   UNL     1      44.400 -19.888   3.489  1.00  0.00     0.000 A 
HETATM   35  C   UNL     1      44.467 -19.952   4.877  1.00  0.00     0.001 A 
HETATM   36  C   UNL     1      44.102 -18.843   5.643  1.00  0.00     0.008 A 
ENDBRANCH  23  31
ENDBRANCH   2  22
TORSDOF 9
ENDMDL
MODEL 10
REMARK VINA RESULT:      -8.1      3.288      4.565
REMARK  9 active torsions:
REMARK  status: ('A' for Active; 'I' for Inactive)
REMARK    1  A    between atoms: O_2  and  C_3 
REMARK    2  A    between atoms: C_4  and  O_5 
REMARK    3  A    between atoms: C_6  and  C_7 
REMARK    4  A    between atoms: N_8  and  N_9 
REMARK       I    between atoms: N_9  and  C_10 
REMARK    5  A    between atoms: C_10  and  C_11 
REMARK    6  A    between atoms: C_11  and  N_12 
REMARK       I    between atoms: N_12  and  C_13 
REMARK    7  A    between atoms: C_13  and  C_14 
REMARK    8  A    between atoms: C_15  and  C_16 
REMARK    9  A    between atoms: C_15  and  C_22 
ROOT
HETATM    1  N   UNL     1      40.614 -16.833   1.548  1.00  0.00    -0.352 N 
HETATM    2  C   UNL     1      41.844 -16.331   1.890  1.00  0.00     0.223 C 
HETATM    3  O   UNL     1      42.022 -15.177   2.258  1.00  0.00    -0.273 OA
HETATM    4  H   UNL     1      40.536 -17.768   1.170  1.00  0.00     0.162 HD
ENDROOT
BRANCH   1   5
HETATM    5  C   UNL     1      39.397 -16.081   1.769  1.00  0.00     0.227 C 
BRANCH   5   6
HETATM    6  C   UNL     1      39.364 -14.736   1.048  1.00  0.00     0.255 C 
HETATM    7  N   UNL     1      40.023 -14.772  -0.171  1.00  0.00    -0.246 N 
HETATM    8  H   UNL     1      40.313 -15.674  -0.561  1.00  0.00     0.192 HD
HETATM    9  O   UNL     1      38.834 -13.749   1.556  1.00  0.00    -0.270 OA
BRANCH   7  10
HETATM   10  N   UNL     1      40.321 -13.614  -0.821  1.00  0.00    -0.184 NA
HETATM   11  C   UNL     1      41.588 -13.381  -0.973  1.00  0.00     0.153 C 
BRANCH  11  12
HETATM   12  C   UNL     1      42.069 -12.130  -1.593  1.00  0.00     0.019 A 
HETATM   13  C   UNL     1      42.678 -11.146  -0.813  1.00  0.00     0.110 A 
HETATM   14  C   UNL     1      43.090  -9.931  -1.381  1.00  0.00     0.102 A 
HETATM   15  C   UNL     1      42.904  -9.717  -2.748  1.00  0.00     0.040 A 
HETATM   16  C   UNL     1      42.302 -10.704  -3.535  1.00  0.00     0.004 A 
HETATM   17  C   UNL     1      41.881 -11.905  -2.960  1.00  0.00     0.016 A 
BRANCH  13  18
HETATM   18  O   UNL     1      42.864 -11.341   0.533  1.00  0.00    -0.357 OA
HETATM   19  H   UNL     1      42.247 -12.061   0.774  1.00  0.00     0.218 HD
ENDBRANCH  13  18
BRANCH  14  20
HETATM   20  O   UNL     1      43.653  -9.044  -0.497  1.00  0.00    -0.353 OA
HETATM   21  C   UNL     1      42.825  -7.972  -0.057  1.00  0.00     0.210 C 
ENDBRANCH  14  20
ENDBRANCH  11  12
ENDBRANCH   7  10
ENDBRANCH   5   6
ENDBRANCH   1   5
BRANCH   2  22
HETATM   22  C   UNL     1      42.938 -17.323   1.774  1.00  0.00     0.097 A 
HETATM   23  C   UNL     1      43.544 -17.980   3.025  1.00  0.00     0.027 A 
HETATM   24  C   UNL     1      44.353 -17.018   2.153  1.00  0.00     0.035 A 
BRANCH  23  25
HETATM   25  C   UNL     1      43.240 -17.486   4.445  1.00  0.00    -0.044 A 
HETATM   26  C   UNL     1      42.031 -17.780   5.101  1.00  0.00     0.008 A 
HETATM   27  C   UNL     1      41.778 -17.336   6.402  1.00  0.00     0.001 A 
HETATM   28  C   UNL     1      42.739 -16.599   7.088  1.00  0.00     0.000 A 
HETATM   29  C   UNL     1      43.952 -16.309   6.474  1.00  0.00     0.001 A 
HETATM   30  C   UNL     1      44.196 -16.750   5.171  1.00  0.00     0.008 A 
ENDBRANCH  23  25
BRANCH  23  31
HETATM   31  C   UNL     1      43.783 -19.489   2.914  1.00  0.00    -0.044 A 
HETATM   32  C   UNL     1      43.322 -20.238   1.817  1.00  0.00     0.008 A 
HETATM   33  C   UNL     1      43.560 -21.612   1.722  1.00  0.00     0.001 A 
HETATM   34  C   UNL     1      44.271 -22.268   2.722  1.00  0.00     0.000 A 
HETATM   35  C   UNL     1      44.747 -21.552   3.815  1.00  0.00     0.001 A 
HETATM   36  C   UNL     1      44.507 -20.179   3.905  1.00  0.00     0.008 A 
ENDBRANCH  23  31
ENDBRANCH   2  22
TORSDOF 9
ENDMDL
