MODEL 1
REMARK VINA RESULT:      -8.8      0.000      0.000
REMARK  6 active torsions:
REMARK  status: ('A' for Active; 'I' for Inactive)
REMARK    1  A    between atoms: O_2  and  C_3 
REMARK    2  A    between atoms: C_6  and  C_7 
REMARK    3  A    between atoms: C_12  and  C_13 
REMARK       I    between atoms: C_13  and  N_14 
REMARK    4  A    between atoms: N_14  and  C_15 
REMARK    5  A    between atoms: C_17  and  O_18 
REMARK    6  A    between atoms: C_24  and  C_25 
ROOT
HETATM    1  C   UNL     1      41.236 -17.126   3.040  1.00  0.00     0.118 C 
HETATM    2  N   UNL     1      40.512 -16.600   4.191  1.00  0.00    -0.366 N 
HETATM    3  C   UNL     1      40.487 -15.290   4.512  1.00  0.00     0.123 A 
HETATM    4  N   UNL     1      41.242 -14.372   3.841  1.00  0.00    -0.240 N 
HETATM    5  N   UNL     1      41.041 -13.100   4.235  1.00  0.00    -0.165 NA
HETATM    6  C   UNL     1      40.171 -13.227   5.265  1.00  0.00     0.148 A 
HETATM    7  C   UNL     1      39.804 -14.587   5.468  1.00  0.00     0.089 A 
HETATM    8  C   UNL     1      42.135 -14.708   2.750  1.00  0.00     0.221 C 
HETATM    9  C   UNL     1      41.665 -16.006   2.073  1.00  0.00     0.066 C 
HETATM   10  H   UNL     1      39.981 -17.286   4.726  1.00  0.00     0.161 HD
ENDROOT
BRANCH   6  11
HETATM   11  C   UNL     1      39.688 -12.063   6.032  1.00  0.00     0.276 C 
HETATM   12  N   UNL     1      40.385 -11.902   7.215  1.00  0.00    -0.322 N 
HETATM   13  H   UNL     1      41.103 -12.609   7.358  1.00  0.00     0.169 HD
HETATM   14  O   UNL     1      38.775 -11.359   5.618  1.00  0.00    -0.266 OA
BRANCH  12  15
HETATM   15  C   UNL     1      40.218 -10.914   8.201  1.00  0.00     0.037 A 
HETATM   16  C   UNL     1      39.106 -10.838   9.043  1.00  0.00     0.066 A 
HETATM   17  C   UNL     1      39.026  -9.821   9.994  1.00  0.00     0.067 A 
HETATM   18  C   UNL     1      40.034  -8.874  10.120  1.00  0.00     0.036 A 
HETATM   19  C   UNL     1      41.146  -8.944   9.284  1.00  0.00     0.005 A 
HETATM   20  C   UNL     1      41.236  -9.961   8.328  1.00  0.00     0.029 A 
BRANCH  17  21
HETATM   21  O   UNL     1      37.953  -9.719  10.832  1.00  0.00    -0.361 OA
HETATM   22  H   UNL     1      37.161  -9.548  10.295  1.00  0.00     0.217 HD
ENDBRANCH  17  21
ENDBRANCH  12  15
ENDBRANCH   6  11
BRANCH   8  23
HETATM   23  C   UNL     1      43.562 -14.741   3.244  1.00  0.00     0.409 C 
HETATM   24  F   UNL     1      44.171 -13.542   3.249  1.00  0.00    -0.169 F 
HETATM   25  F   UNL     1      43.605 -15.221   4.514  1.00  0.00    -0.169 F 
HETATM   26  F   UNL     1      44.325 -15.577   2.500  1.00  0.00    -0.169 F 
ENDBRANCH   8  23
BRANCH   1  27
HETATM   27  C   UNL     1      42.349 -18.080   3.436  1.00  0.00    -0.035 A 
HETATM   28  C   UNL     1      43.060 -18.760   2.432  1.00  0.00     0.012 A 
HETATM   29  C   UNL     1      44.082 -19.664   2.747  1.00  0.00     0.037 A 
HETATM   30  C   UNL     1      44.417 -19.907   4.076  1.00  0.00     0.068 A 
HETATM   31  C   UNL     1      43.715 -19.244   5.083  1.00  0.00     0.037 A 
HETATM   32  C   UNL     1      42.690 -18.345   4.769  1.00  0.00     0.012 A 
BRANCH  30  33
HETATM   33  O   UNL     1      45.390 -20.757   4.521  1.00  0.00    -0.356 OA
HETATM   34  C   UNL     1      44.959 -21.980   5.106  1.00  0.00     0.210 C 
ENDBRANCH  30  33
ENDBRANCH   1  27
TORSDOF 6
ENDMDL
MODEL 2
REMARK VINA RESULT:      -8.6      5.078      7.527
REMARK  6 active torsions:
REMARK  status: ('A' for Active; 'I' for Inactive)
REMARK    1  A    between atoms: O_2  and  C_3 
REMARK    2  A    between atoms: C_6  and  C_7 
REMARK    3  A    between atoms: C_12  and  C_13 
REMARK       I    between atoms: C_13  and  N_14 
REMARK    4  A    between atoms: N_14  and  C_15 
REMARK    5  A    between atoms: C_17  and  O_18 
REMARK    6  A    between atoms: C_24  and  C_25 
ROOT
HETATM    1  C   UNL     1      44.039 -17.026   1.813  1.00  0.00     0.118 C 
HETATM    2  N   UNL     1      43.165 -16.854   0.659  1.00  0.00    -0.366 N 
HETATM    3  C   UNL     1      42.036 -16.117   0.689  1.00  0.00     0.123 A 
HETATM    4  N   UNL     1      41.569 -15.568   1.848  1.00  0.00    -0.240 N 
HETATM    5  N   UNL     1      40.476 -14.797   1.690  1.00  0.00    -0.165 NA
HETATM    6  C   UNL     1      40.189 -14.927   0.373  1.00  0.00     0.148 A 
HETATM    7  C   UNL     1      41.146 -15.750  -0.284  1.00  0.00     0.089 A 
HETATM    8  C   UNL     1      42.216 -15.732   3.134  1.00  0.00     0.221 C 
HETATM    9  C   UNL     1      43.713 -16.016   2.931  1.00  0.00     0.066 C 
HETATM   10  H   UNL     1      43.483 -17.300  -0.202  1.00  0.00     0.161 HD
ENDROOT
BRANCH   6  11
HETATM   11  C   UNL     1      39.027 -14.264  -0.246  1.00  0.00     0.276 C 
HETATM   12  N   UNL     1      39.084 -14.311  -1.627  1.00  0.00    -0.322 N 
HETATM   13  H   UNL     1      39.911 -14.787  -1.979  1.00  0.00     0.169 HD
HETATM   14  O   UNL     1      38.146 -13.750   0.434  1.00  0.00    -0.266 OA
BRANCH  12  15
HETATM   15  C   UNL     1      38.165 -13.795  -2.558  1.00  0.00     0.037 A 
HETATM   16  C   UNL     1      37.442 -14.586  -3.455  1.00  0.00     0.066 A 
HETATM   17  C   UNL     1      36.552 -13.985  -4.345  1.00  0.00     0.067 A 
HETATM   18  C   UNL     1      36.369 -12.608  -4.359  1.00  0.00     0.036 A 
HETATM   19  C   UNL     1      37.086 -11.815  -3.467  1.00  0.00     0.005 A 
HETATM   20  C   UNL     1      37.980 -12.407  -2.570  1.00  0.00     0.029 A 
BRANCH  17  21
HETATM   21  O   UNL     1      35.830 -14.729  -5.233  1.00  0.00    -0.361 OA
HETATM   22  H   UNL     1      35.131 -14.166  -5.606  1.00  0.00     0.217 HD
ENDBRANCH  17  21
ENDBRANCH  12  15
ENDBRANCH   6  11
BRANCH   8  23
HETATM   23  C   UNL     1      41.486 -16.773   3.950  1.00  0.00     0.409 C 
HETATM   24  F   UNL     1      42.267 -17.440   4.817  1.00  0.00    -0.169 F 
HETATM   25  F   UNL     1      40.491 -16.189   4.667  1.00  0.00    -0.169 F 
HETATM   26  F   UNL     1      40.888 -17.693   3.156  1.00  0.00    -0.169 F 
ENDBRANCH   8  23
BRANCH   1  27
HETATM   27  C   UNL     1      44.124 -18.471   2.271  1.00  0.00    -0.035 A 
HETATM   28  C   UNL     1      43.548 -19.477   1.477  1.00  0.00     0.012 A 
HETATM   29  C   UNL     1      43.584 -20.823   1.866  1.00  0.00     0.037 A 
HETATM   30  C   UNL     1      44.199 -21.191   3.058  1.00  0.00     0.068 A 
HETATM   31  C   UNL     1      44.769 -20.201   3.859  1.00  0.00     0.037 A 
HETATM   32  C   UNL     1      44.730 -18.857   3.474  1.00  0.00     0.012 A 
BRANCH  30  33
HETATM   33  O   UNL     1      44.307 -22.461   3.552  1.00  0.00    -0.356 OA
HETATM   34  C   UNL     1      44.799 -22.596   4.879  1.00  0.00     0.210 C 
ENDBRANCH  30  33
ENDBRANCH   1  27
TORSDOF 6
ENDMDL
MODEL 3
REMARK VINA RESULT:      -8.5      5.029      8.026
REMARK  6 active torsions:
REMARK  status: ('A' for Active; 'I' for Inactive)
REMARK    1  A    between atoms: O_2  and  C_3 
REMARK    2  A    between atoms: C_6  and  C_7 
REMARK    3  A    between atoms: C_12  and  C_13 
REMARK       I    between atoms: C_13  and  N_14 
REMARK    4  A    between atoms: N_14  and  C_15 
REMARK    5  A    between atoms: C_17  and  O_18 
REMARK    6  A    between atoms: C_24  and  C_25 
ROOT
HETATM    1  C   UNL     1      41.193 -16.191   4.758  1.00  0.00     0.118 C 
HETATM    2  N   UNL     1      40.528 -15.234   3.881  1.00  0.00    -0.366 N 
HETATM    3  C   UNL     1      40.576 -15.307   2.535  1.00  0.00     0.123 A 
HETATM    4  N   UNL     1      41.356 -16.226   1.894  1.00  0.00    -0.240 N 
HETATM    5  N   UNL     1      41.228 -16.217   0.554  1.00  0.00    -0.165 NA
HETATM    6  C   UNL     1      40.382 -15.184   0.328  1.00  0.00     0.148 A 
HETATM    7  C   UNL     1      39.955 -14.590   1.549  1.00  0.00     0.089 A 
HETATM    8  C   UNL     1      42.200 -17.183   2.580  1.00  0.00     0.221 C 
HETATM    9  C   UNL     1      41.650 -17.447   3.991  1.00  0.00     0.066 C 
HETATM   10  H   UNL     1      39.980 -14.515   4.353  1.00  0.00     0.161 HD
ENDROOT
BRANCH   6  11
HETATM   11  C   UNL     1      39.978 -14.783  -1.033  1.00  0.00     0.276 C 
HETATM   12  N   UNL     1      38.692 -14.277  -1.059  1.00  0.00    -0.322 N 
HETATM   13  H   UNL     1      38.244 -14.270  -0.146  1.00  0.00     0.169 HD
HETATM   14  O   UNL     1      40.737 -14.907  -1.987  1.00  0.00    -0.266 OA
BRANCH  12  15
HETATM   15  C   UNL     1      37.965 -13.793  -2.161  1.00  0.00     0.037 A 
HETATM   16  C   UNL     1      37.601 -14.579  -3.256  1.00  0.00     0.066 A 
HETATM   17  C   UNL     1      36.878 -14.011  -4.307  1.00  0.00     0.067 A 
HETATM   18  C   UNL     1      36.514 -12.671  -4.286  1.00  0.00     0.036 A 
HETATM   19  C   UNL     1      36.874 -11.882  -3.196  1.00  0.00     0.005 A 
HETATM   20  C   UNL     1      37.597 -12.441  -2.139  1.00  0.00     0.029 A 
BRANCH  17  21
HETATM   21  O   UNL     1      36.506 -14.752  -5.391  1.00  0.00    -0.361 OA
HETATM   22  H   UNL     1      36.418 -14.155  -6.153  1.00  0.00     0.217 HD
ENDBRANCH  17  21
ENDBRANCH  12  15
ENDBRANCH   6  11
BRANCH   8  23
HETATM   23  C   UNL     1      43.638 -16.718   2.546  1.00  0.00     0.409 C 
HETATM   24  F   UNL     1      43.790 -15.389   2.674  1.00  0.00    -0.169 F 
HETATM   25  F   UNL     1      44.341 -17.304   3.550  1.00  0.00    -0.169 F 
HETATM   26  F   UNL     1      44.249 -17.085   1.394  1.00  0.00    -0.169 F 
ENDBRANCH   8  23
BRANCH   1  27
HETATM   27  C   UNL     1      42.269 -15.547   5.614  1.00  0.00    -0.035 A 
HETATM   28  C   UNL     1      42.977 -16.339   6.536  1.00  0.00     0.012 A 
HETATM   29  C   UNL     1      43.965 -15.788   7.363  1.00  0.00     0.037 A 
HETATM   30  C   UNL     1      44.269 -14.433   7.283  1.00  0.00     0.068 A 
HETATM   31  C   UNL     1      43.570 -13.635   6.377  1.00  0.00     0.037 A 
HETATM   32  C   UNL     1      42.579 -14.182   5.556  1.00  0.00     0.012 A 
BRANCH  30  33
HETATM   33  O   UNL     1      45.207 -13.771   8.025  1.00  0.00    -0.356 OA
HETATM   34  C   UNL     1      44.776 -12.607   8.718  1.00  0.00     0.210 C 
ENDBRANCH  30  33
ENDBRANCH   1  27
TORSDOF 6
ENDMDL
MODEL 4
REMARK VINA RESULT:      -8.1      5.997     10.105
REMARK  6 active torsions:
REMARK  status: ('A' for Active; 'I' for Inactive)
REMARK    1  A    between atoms: O_2  and  C_3 
REMARK    2  A    between atoms: C_6  and  C_7 
REMARK    3  A    between atoms: C_12  and  C_13 
REMARK       I    between atoms: C_13  and  N_14 
REMARK    4  A    between atoms: N_14  and  C_15 
REMARK    5  A    between atoms: C_17  and  O_18 
REMARK    6  A    between atoms: C_24  and  C_25 
ROOT
HETATM    1  C   UNL     1      39.177 -12.809  -1.347  1.00  0.00     0.118 C 
HETATM    2  N   UNL     1      38.918 -13.678  -0.205  1.00  0.00    -0.366 N 
HETATM    3  C   UNL     1      39.799 -14.597   0.240  1.00  0.00     0.123 A 
HETATM    4  N   UNL     1      40.960 -14.860  -0.427  1.00  0.00    -0.240 N 
HETATM    5  N   UNL     1      41.763 -15.746   0.192  1.00  0.00    -0.165 NA
HETATM    6  C   UNL     1      41.037 -16.124   1.271  1.00  0.00     0.148 A 
HETATM    7  C   UNL     1      39.799 -15.425   1.330  1.00  0.00     0.089 A 
HETATM    8  C   UNL     1      41.346 -14.202  -1.660  1.00  0.00     0.221 C 
HETATM    9  C   UNL     1      40.664 -12.828  -1.753  1.00  0.00     0.066 C 
HETATM   10  H   UNL     1      38.032 -13.519   0.274  1.00  0.00     0.161 HD
ENDROOT
BRANCH   6  11
HETATM   11  C   UNL     1      41.527 -17.127   2.234  1.00  0.00     0.276 C 
HETATM   12  N   UNL     1      42.571 -17.870   1.717  1.00  0.00    -0.322 N 
HETATM   13  H   UNL     1      42.821 -17.605   0.767  1.00  0.00     0.169 HD
HETATM   14  O   UNL     1      41.027 -17.241   3.348  1.00  0.00    -0.266 OA
BRANCH  12  15
HETATM   15  C   UNL     1      43.295 -18.907   2.331  1.00  0.00     0.037 A 
HETATM   16  C   UNL     1      43.447 -20.180   1.777  1.00  0.00     0.066 A 
HETATM   17  C   UNL     1      44.184 -21.149   2.460  1.00  0.00     0.067 A 
HETATM   18  C   UNL     1      44.772 -20.871   3.687  1.00  0.00     0.036 A 
HETATM   19  C   UNL     1      44.624 -19.604   4.244  1.00  0.00     0.005 A 
HETATM   20  C   UNL     1      43.889 -18.626   3.568  1.00  0.00     0.029 A 
BRANCH  17  21
HETATM   21  O   UNL     1      44.352 -22.402   1.945  1.00  0.00    -0.361 OA
HETATM   22  H   UNL     1      45.066 -22.841   2.439  1.00  0.00     0.217 HD
ENDBRANCH  17  21
ENDBRANCH  12  15
ENDBRANCH   6  11
BRANCH   8  23
HETATM   23  C   UNL     1      41.080 -15.114  -2.835  1.00  0.00     0.409 C 
HETATM   24  F   UNL     1      40.154 -16.060  -2.599  1.00  0.00    -0.169 F 
HETATM   25  F   UNL     1      40.655 -14.388  -3.901  1.00  0.00    -0.169 F 
HETATM   26  F   UNL     1      42.209 -15.746  -3.236  1.00  0.00    -0.169 F 
ENDBRANCH   8  23
BRANCH   1  27
HETATM   27  C   UNL     1      38.207 -13.044  -2.491  1.00  0.00    -0.035 A 
HETATM   28  C   UNL     1      37.804 -11.955  -3.283  1.00  0.00     0.012 A 
HETATM   29  C   UNL     1      36.896 -12.116  -4.338  1.00  0.00     0.037 A 
HETATM   30  C   UNL     1      36.372 -13.373  -4.624  1.00  0.00     0.068 A 
HETATM   31  C   UNL     1      36.758 -14.462  -3.841  1.00  0.00     0.037 A 
HETATM   32  C   UNL     1      37.660 -14.300  -2.784  1.00  0.00     0.012 A 
BRANCH  30  33
HETATM   33  O   UNL     1      35.484 -13.670  -5.620  1.00  0.00    -0.356 OA
HETATM   34  C   UNL     1      34.433 -12.740  -5.844  1.00  0.00     0.210 C 
ENDBRANCH  30  33
ENDBRANCH   1  27
TORSDOF 6
ENDMDL
MODEL 5
REMARK VINA RESULT:      -8.0      5.422      9.673
REMARK  6 active torsions:
REMARK  status: ('A' for Active; 'I' for Inactive)
REMARK    1  A    between atoms: O_2  and  C_3 
REMARK    2  A    between atoms: C_6  and  C_7 
REMARK    3  A    between atoms: C_12  and  C_13 
REMARK       I    between atoms: C_13  and  N_14 
REMARK    4  A    between atoms: N_14  and  C_15 
REMARK    5  A    between atoms: C_17  and  O_18 
REMARK    6  A    between atoms: C_24  and  C_25 
ROOT
HETATM    1  C   UNL     1      39.682 -14.146  -2.203  1.00  0.00     0.118 C 
HETATM    2  N   UNL     1      40.539 -15.262  -1.821  1.00  0.00    -0.366 N 
HETATM    3  C   UNL     1      40.765 -15.615  -0.539  1.00  0.00     0.123 A 
HETATM    4  N   UNL     1      40.294 -14.872   0.503  1.00  0.00    -0.240 N 
HETATM    5  N   UNL     1      40.540 -15.405   1.715  1.00  0.00    -0.165 NA
HETATM    6  C   UNL     1      41.275 -16.506   1.428  1.00  0.00     0.148 A 
HETATM    7  C   UNL     1      41.437 -16.666   0.024  1.00  0.00     0.089 A 
HETATM    8  C   UNL     1      39.533 -13.649   0.341  1.00  0.00     0.221 C 
HETATM    9  C   UNL     1      38.822 -13.655  -1.022  1.00  0.00     0.066 C 
HETATM   10  H   UNL     1      40.933 -15.796  -2.595  1.00  0.00     0.161 HD
ENDROOT
BRANCH   6  11
HETATM   11  C   UNL     1      41.800 -17.395   2.481  1.00  0.00     0.276 C 
HETATM   12  N   UNL     1      42.763 -18.257   1.992  1.00  0.00    -0.322 N 
HETATM   13  H   UNL     1      42.943 -18.138   0.998  1.00  0.00     0.169 HD
HETATM   14  O   UNL     1      41.393 -17.329   3.635  1.00  0.00    -0.266 OA
BRANCH  12  15
HETATM   15  C   UNL     1      43.490 -19.241   2.686  1.00  0.00     0.037 A 
HETATM   16  C   UNL     1      43.712 -20.531   2.198  1.00  0.00     0.066 A 
HETATM   17  C   UNL     1      44.447 -21.442   2.958  1.00  0.00     0.067 A 
HETATM   18  C   UNL     1      44.963 -21.091   4.199  1.00  0.00     0.036 A 
HETATM   19  C   UNL     1      44.745 -19.806   4.691  1.00  0.00     0.005 A 
HETATM   20  C   UNL     1      44.011 -18.886   3.937  1.00  0.00     0.029 A 
BRANCH  17  21
HETATM   21  O   UNL     1      44.682 -22.709   2.509  1.00  0.00    -0.361 OA
HETATM   22  H   UNL     1      45.644 -22.837   2.447  1.00  0.00     0.217 HD
ENDBRANCH  17  21
ENDBRANCH  12  15
ENDBRANCH   6  11
BRANCH   8  23
HETATM   23  C   UNL     1      40.425 -12.452   0.577  1.00  0.00     0.409 C 
HETATM   24  F   UNL     1      40.100 -11.371  -0.153  1.00  0.00    -0.169 F 
HETATM   25  F   UNL     1      40.379 -12.087   1.884  1.00  0.00    -0.169 F 
HETATM   26  F   UNL     1      41.722 -12.741   0.312  1.00  0.00    -0.169 F 
ENDBRANCH   8  23
BRANCH   1  27
HETATM   27  C   UNL     1      40.441 -13.050  -2.931  1.00  0.00    -0.035 A 
HETATM   28  C   UNL     1      39.722 -12.083  -3.655  1.00  0.00     0.012 A 
HETATM   29  C   UNL     1      40.376 -11.064  -4.359  1.00  0.00     0.037 A 
HETATM   30  C   UNL     1      41.765 -10.988  -4.351  1.00  0.00     0.068 A 
HETATM   31  C   UNL     1      42.491 -11.945  -3.642  1.00  0.00     0.037 A 
HETATM   32  C   UNL     1      41.839 -12.966  -2.943  1.00  0.00     0.012 A 
BRANCH  30  33
HETATM   33  O   UNL     1      42.526 -10.049  -4.990  1.00  0.00    -0.356 OA
HETATM   34  C   UNL     1      42.319  -8.692  -4.619  1.00  0.00     0.210 C 
ENDBRANCH  30  33
ENDBRANCH   1  27
TORSDOF 6
ENDMDL
MODEL 6
REMARK VINA RESULT:      -8.0      5.111      8.139
REMARK  6 active torsions:
REMARK  status: ('A' for Active; 'I' for Inactive)
REMARK    1  A    between atoms: O_2  and  C_3 
REMARK    2  A    between atoms: C_6  and  C_7 
REMARK    3  A    between atoms: C_12  and  C_13 
REMARK       I    between atoms: C_13  and  N_14 
REMARK    4  A    between atoms: N_14  and  C_15 
REMARK    5  A    between atoms: C_17  and  O_18 
REMARK    6  A    between atoms: C_24  and  C_25 
ROOT
HETATM    1  C   UNL     1      41.070 -15.995   4.124  1.00  0.00     0.118 C 
HETATM    2  N   UNL     1      40.687 -14.947   3.184  1.00  0.00    -0.366 N 
HETATM    3  C   UNL     1      40.928 -15.018   1.859  1.00  0.00     0.123 A 
HETATM    4  N   UNL     1      41.659 -16.035   1.317  1.00  0.00    -0.240 N 
HETATM    5  N   UNL     1      41.739 -16.000  -0.027  1.00  0.00    -0.165 NA
HETATM    6  C   UNL     1      41.090 -14.855  -0.348  1.00  0.00     0.148 A 
HETATM    7  C   UNL     1      40.571 -14.213   0.811  1.00  0.00     0.089 A 
HETATM    8  C   UNL     1      42.246 -17.108   2.095  1.00  0.00     0.221 C 
HETATM    9  C   UNL     1      41.456 -17.299   3.400  1.00  0.00     0.066 C 
HETATM   10  H   UNL     1      40.180 -14.160   3.589  1.00  0.00     0.161 HD
ENDROOT
BRANCH   6  11
HETATM   11  C   UNL     1      40.958 -14.392  -1.742  1.00  0.00     0.276 C 
HETATM   12  N   UNL     1      41.168 -13.031  -1.854  1.00  0.00    -0.322 N 
HETATM   13  H   UNL     1      41.372 -12.581  -0.964  1.00  0.00     0.169 HD
HETATM   14  O   UNL     1      40.694 -15.170  -2.651  1.00  0.00    -0.266 OA
BRANCH  12  15
HETATM   15  C   UNL     1      41.131 -12.232  -3.010  1.00  0.00     0.037 A 
HETATM   16  C   UNL     1      39.951 -11.846  -3.649  1.00  0.00     0.066 A 
HETATM   17  C   UNL     1      40.012 -11.051  -4.794  1.00  0.00     0.067 A 
HETATM   18  C   UNL     1      41.229 -10.634  -5.316  1.00  0.00     0.036 A 
HETATM   19  C   UNL     1      42.410 -11.015  -4.683  1.00  0.00     0.005 A 
HETATM   20  C   UNL     1      42.360 -11.811  -3.535  1.00  0.00     0.029 A 
BRANCH  17  21
HETATM   21  O   UNL     1      38.877 -10.656  -5.442  1.00  0.00    -0.361 OA
HETATM   22  H   UNL     1      38.791 -11.182  -6.256  1.00  0.00     0.217 HD
ENDBRANCH  17  21
ENDBRANCH  12  15
ENDBRANCH   6  11
BRANCH   8  23
HETATM   23  C   UNL     1      43.723 -16.853   2.289  1.00  0.00     0.409 C 
HETATM   24  F   UNL     1      44.265 -17.519   3.324  1.00  0.00    -0.169 F 
HETATM   25  F   UNL     1      44.409 -17.214   1.173  1.00  0.00    -0.169 F 
HETATM   26  F   UNL     1      43.978 -15.537   2.478  1.00  0.00    -0.169 F 
ENDBRANCH   8  23
BRANCH   1  27
HETATM   27  C   UNL     1      42.083 -15.517   5.149  1.00  0.00    -0.035 A 
HETATM   28  C   UNL     1      42.456 -14.162   5.165  1.00  0.00     0.012 A 
HETATM   29  C   UNL     1      43.400 -13.676   6.079  1.00  0.00     0.037 A 
HETATM   30  C   UNL     1      43.991 -14.537   6.999  1.00  0.00     0.068 A 
HETATM   31  C   UNL     1      43.635 -15.886   6.990  1.00  0.00     0.037 A 
HETATM   32  C   UNL     1      42.696 -16.372   6.074  1.00  0.00     0.012 A 
BRANCH  30  33
HETATM   33  O   UNL     1      44.919 -14.196   7.942  1.00  0.00    -0.356 OA
HETATM   34  C   UNL     1      44.915 -12.847   8.392  1.00  0.00     0.210 C 
ENDBRANCH  30  33
ENDBRANCH   1  27
TORSDOF 6
ENDMDL
MODEL 7
REMARK VINA RESULT:      -8.0      5.582      9.692
REMARK  6 active torsions:
REMARK  status: ('A' for Active; 'I' for Inactive)
REMARK    1  A    between atoms: O_2  and  C_3 
REMARK    2  A    between atoms: C_6  and  C_7 
REMARK    3  A    between atoms: C_12  and  C_13 
REMARK       I    between atoms: C_13  and  N_14 
REMARK    4  A    between atoms: N_14  and  C_15 
REMARK    5  A    between atoms: C_17  and  O_18 
REMARK    6  A    between atoms: C_24  and  C_25 
ROOT
HETATM    1  C   UNL     1      38.568 -13.429   0.666  1.00  0.00     0.118 C 
HETATM    2  N   UNL     1      38.985 -14.823   0.762  1.00  0.00    -0.366 N 
HETATM    3  C   UNL     1      40.261 -15.198   0.987  1.00  0.00     0.123 A 
HETATM    4  N   UNL     1      41.280 -14.291   1.026  1.00  0.00    -0.240 N 
HETATM    5  N   UNL     1      42.478 -14.820   1.339  1.00  0.00    -0.165 NA
HETATM    6  C   UNL     1      42.219 -16.147   1.426  1.00  0.00     0.148 A 
HETATM    7  C   UNL     1      40.839 -16.419   1.208  1.00  0.00     0.089 A 
HETATM    8  C   UNL     1      41.098 -12.867   0.820  1.00  0.00     0.221 C 
HETATM    9  C   UNL     1      39.657 -12.468   1.180  1.00  0.00     0.066 C 
HETATM   10  H   UNL     1      38.236 -15.510   0.688  1.00  0.00     0.161 HD
ENDROOT
BRANCH   6  11
HETATM   11  C   UNL     1      43.272 -17.134   1.726  1.00  0.00     0.276 C 
HETATM   12  N   UNL     1      42.803 -18.161   2.523  1.00  0.00    -0.322 N 
HETATM   13  H   UNL     1      41.821 -18.062   2.769  1.00  0.00     0.169 HD
HETATM   14  O   UNL     1      44.411 -17.006   1.291  1.00  0.00    -0.266 OA
BRANCH  12  15
HETATM   15  C   UNL     1      43.502 -19.278   3.012  1.00  0.00     0.037 A 
HETATM   16  C   UNL     1      43.736 -20.435   2.264  1.00  0.00     0.066 A 
HETATM   17  C   UNL     1      44.440 -21.497   2.834  1.00  0.00     0.067 A 
HETATM   18  C   UNL     1      44.915 -21.427   4.137  1.00  0.00     0.036 A 
HETATM   19  C   UNL     1      44.686 -20.276   4.887  1.00  0.00     0.005 A 
HETATM   20  C   UNL     1      43.982 -19.207   4.326  1.00  0.00     0.029 A 
BRANCH  17  21
HETATM   21  O   UNL     1      44.686 -22.640   2.130  1.00  0.00    -0.361 OA
HETATM   22  H   UNL     1      44.980 -23.325   2.754  1.00  0.00     0.217 HD
ENDBRANCH  17  21
ENDBRANCH  12  15
ENDBRANCH   6  11
BRANCH   8  23
HETATM   23  C   UNL     1      41.519 -12.492  -0.582  1.00  0.00     0.409 C 
HETATM   24  F   UNL     1      40.815 -11.479  -1.116  1.00  0.00    -0.169 F 
HETATM   25  F   UNL     1      42.827 -12.126  -0.593  1.00  0.00    -0.169 F 
HETATM   26  F   UNL     1      41.416 -13.544  -1.429  1.00  0.00    -0.169 F 
ENDBRANCH   8  23
BRANCH   1  27
HETATM   27  C   UNL     1      38.012 -13.079  -0.703  1.00  0.00    -0.035 A 
HETATM   28  C   UNL     1      38.148 -14.002  -1.755  1.00  0.00     0.012 A 
HETATM   29  C   UNL     1      37.669 -13.718  -3.041  1.00  0.00     0.037 A 
HETATM   30  C   UNL     1      37.041 -12.504  -3.301  1.00  0.00     0.068 A 
HETATM   31  C   UNL     1      36.905 -11.576  -2.268  1.00  0.00     0.037 A 
HETATM   32  C   UNL     1      37.388 -11.857  -0.986  1.00  0.00     0.012 A 
BRANCH  30  33
HETATM   33  O   UNL     1      36.528 -12.102  -4.503  1.00  0.00    -0.356 OA
HETATM   34  C   UNL     1      35.536 -12.935  -5.090  1.00  0.00     0.210 C 
ENDBRANCH  30  33
ENDBRANCH   1  27
TORSDOF 6
ENDMDL
MODEL 8
REMARK VINA RESULT:      -7.9      2.611      9.273
REMARK  6 active torsions:
REMARK  status: ('A' for Active; 'I' for Inactive)
REMARK    1  A    between atoms: O_2  and  C_3 
REMARK    2  A    between atoms: C_6  and  C_7 
REMARK    3  A    between atoms: C_12  and  C_13 
REMARK       I    between atoms: C_13  and  N_14 
REMARK    4  A    between atoms: N_14  and  C_15 
REMARK    5  A    between atoms: C_17  and  O_18 
REMARK    6  A    between atoms: C_24  and  C_25 
ROOT
HETATM    1  C   UNL     1      41.870 -11.801   3.368  1.00  0.00     0.118 C 
HETATM    2  N   UNL     1      42.782 -12.904   3.652  1.00  0.00    -0.366 N 
HETATM    3  C   UNL     1      42.712 -14.099   3.030  1.00  0.00     0.123 A 
HETATM    4  N   UNL     1      41.700 -14.400   2.166  1.00  0.00    -0.240 N 
HETATM    5  N   UNL     1      41.823 -15.602   1.572  1.00  0.00    -0.165 NA
HETATM    6  C   UNL     1      42.931 -16.124   2.150  1.00  0.00     0.148 A 
HETATM    7  C   UNL     1      43.512 -15.209   3.071  1.00  0.00     0.089 A 
HETATM    8  C   UNL     1      40.617 -13.492   1.848  1.00  0.00     0.221 C 
HETATM    9  C   UNL     1      41.070 -12.040   2.073  1.00  0.00     0.066 C 
HETATM   10  H   UNL     1      43.515 -12.702   4.331  1.00  0.00     0.161 HD
ENDROOT
BRANCH   6  11
HETATM   11  C   UNL     1      43.431 -17.470   1.815  1.00  0.00     0.276 C 
HETATM   12  N   UNL     1      43.409 -18.314   2.910  1.00  0.00    -0.322 N 
HETATM   13  H   UNL     1      43.060 -17.868   3.754  1.00  0.00     0.169 HD
HETATM   14  O   UNL     1      43.806 -17.749   0.682  1.00  0.00    -0.266 OA
BRANCH  12  15
HETATM   15  C   UNL     1      43.801 -19.662   2.983  1.00  0.00     0.037 A 
HETATM   16  C   UNL     1      44.444 -20.225   4.088  1.00  0.00     0.066 A 
HETATM   17  C   UNL     1      44.796 -21.575   4.071  1.00  0.00     0.067 A 
HETATM   18  C   UNL     1      44.522 -22.375   2.970  1.00  0.00     0.036 A 
HETATM   19  C   UNL     1      43.881 -21.821   1.865  1.00  0.00     0.005 A 
HETATM   20  C   UNL     1      43.523 -20.469   1.872  1.00  0.00     0.029 A 
BRANCH  17  21
HETATM   21  O   UNL     1      45.425 -22.155   5.135  1.00  0.00    -0.361 OA
HETATM   22  H   UNL     1      45.029 -23.031   5.283  1.00  0.00     0.217 HD
ENDBRANCH  17  21
ENDBRANCH  12  15
ENDBRANCH   6  11
BRANCH   8  23
HETATM   23  C   UNL     1      39.374 -13.885   2.613  1.00  0.00     0.409 C 
HETATM   24  F   UNL     1      39.615 -14.369   3.844  1.00  0.00    -0.169 F 
HETATM   25  F   UNL     1      38.554 -12.811   2.753  1.00  0.00    -0.169 F 
HETATM   26  F   UNL     1      38.657 -14.821   1.945  1.00  0.00    -0.169 F 
ENDBRANCH   8  23
BRANCH   1  27
HETATM   27  C   UNL     1      41.027 -11.417   4.571  1.00  0.00    -0.035 A 
HETATM   28  C   UNL     1      40.108 -10.360   4.454  1.00  0.00     0.012 A 
HETATM   29  C   UNL     1      39.320  -9.955   5.540  1.00  0.00     0.037 A 
HETATM   30  C   UNL     1      39.435 -10.601   6.767  1.00  0.00     0.068 A 
HETATM   31  C   UNL     1      40.349 -11.647   6.899  1.00  0.00     0.037 A 
HETATM   32  C   UNL     1      41.139 -12.048   5.816  1.00  0.00     0.012 A 
BRANCH  30  33
HETATM   33  O   UNL     1      38.730 -10.310   7.901  1.00  0.00    -0.356 OA
HETATM   34  C   UNL     1      39.440  -9.676   8.957  1.00  0.00     0.210 C 
ENDBRANCH  30  33
ENDBRANCH   1  27
TORSDOF 6
ENDMDL
MODEL 9
REMARK VINA RESULT:      -7.9      4.557      7.383
REMARK  6 active torsions:
REMARK  status: ('A' for Active; 'I' for Inactive)
REMARK    1  A    between atoms: O_2  and  C_3 
REMARK    2  A    between atoms: C_6  and  C_7 
REMARK    3  A    between atoms: C_12  and  C_13 
REMARK       I    between atoms: C_13  and  N_14 
REMARK    4  A    between atoms: N_14  and  C_15 
REMARK    5  A    between atoms: C_17  and  O_18 
REMARK    6  A    between atoms: C_24  and  C_25 
ROOT
HETATM    1  C   UNL     1      43.398 -15.702   3.717  1.00  0.00     0.118 C 
HETATM    2  N   UNL     1      42.567 -16.082   2.581  1.00  0.00    -0.366 N 
HETATM    3  C   UNL     1      41.435 -15.431   2.242  1.00  0.00     0.123 A 
HETATM    4  N   UNL     1      40.922 -14.433   3.018  1.00  0.00    -0.240 N 
HETATM    5  N   UNL     1      39.833 -13.835   2.498  1.00  0.00    -0.165 NA
HETATM    6  C   UNL     1      39.597 -14.546   1.369  1.00  0.00     0.148 A 
HETATM    7  C   UNL     1      40.581 -15.556   1.180  1.00  0.00     0.089 A 
HETATM    8  C   UNL     1      41.522 -13.992   4.262  1.00  0.00     0.221 C 
HETATM    9  C   UNL     1      43.027 -14.306   4.256  1.00  0.00     0.066 C 
HETATM   10  H   UNL     1      42.920 -16.857   2.021  1.00  0.00     0.161 HD
ENDROOT
BRANCH   6  11
HETATM   11  C   UNL     1      38.457 -14.252   0.482  1.00  0.00     0.276 C 
HETATM   12  N   UNL     1      38.867 -13.972  -0.808  1.00  0.00    -0.322 N 
HETATM   13  H   UNL     1      39.877 -14.011  -0.925  1.00  0.00     0.169 HD
HETATM   14  O   UNL     1      37.303 -14.271   0.896  1.00  0.00    -0.266 OA
BRANCH  12  15
HETATM   15  C   UNL     1      38.079 -13.652  -1.927  1.00  0.00     0.037 A 
HETATM   16  C   UNL     1      37.862 -14.522  -2.998  1.00  0.00     0.066 A 
HETATM   17  C   UNL     1      37.063 -14.116  -4.068  1.00  0.00     0.067 A 
HETATM   18  C   UNL     1      36.478 -12.857  -4.091  1.00  0.00     0.036 A 
HETATM   19  C   UNL     1      36.690 -11.985  -3.027  1.00  0.00     0.005 A 
HETATM   20  C   UNL     1      37.488 -12.382  -1.949  1.00  0.00     0.029 A 
BRANCH  17  21
HETATM   21  O   UNL     1      36.831 -14.943  -5.129  1.00  0.00    -0.361 OA
HETATM   22  H   UNL     1      37.279 -14.573  -5.909  1.00  0.00     0.217 HD
ENDBRANCH  17  21
ENDBRANCH  12  15
ENDBRANCH   6  11
BRANCH   8  23
HETATM   23  C   UNL     1      40.765 -14.574   5.433  1.00  0.00     0.409 C 
HETATM   24  F   UNL     1      40.270 -15.804   5.212  1.00  0.00    -0.169 F 
HETATM   25  F   UNL     1      41.577 -14.654   6.519  1.00  0.00    -0.169 F 
HETATM   26  F   UNL     1      39.728 -13.782   5.796  1.00  0.00    -0.169 F 
ENDBRANCH   8  23
BRANCH   1  27
HETATM   27  C   UNL     1      43.472 -16.788   4.775  1.00  0.00    -0.035 A 
HETATM   28  C   UNL     1      44.079 -16.502   6.011  1.00  0.00     0.012 A 
HETATM   29  C   UNL     1      44.189 -17.476   7.012  1.00  0.00     0.037 A 
HETATM   30  C   UNL     1      43.691 -18.758   6.799  1.00  0.00     0.068 A 
HETATM   31  C   UNL     1      43.092 -19.057   5.575  1.00  0.00     0.037 A 
HETATM   32  C   UNL     1      42.986 -18.087   4.573  1.00  0.00     0.012 A 
BRANCH  30  33
HETATM   33  O   UNL     1      43.729 -19.797   7.687  1.00  0.00    -0.356 OA
HETATM   34  C   UNL     1      43.586 -21.106   7.153  1.00  0.00     0.210 C 
ENDBRANCH  30  33
ENDBRANCH   1  27
TORSDOF 6
ENDMDL
MODEL 10
REMARK VINA RESULT:      -7.8      1.587      2.196
REMARK  6 active torsions:
REMARK  status: ('A' for Active; 'I' for Inactive)
REMARK    1  A    between atoms: O_2  and  C_3 
REMARK    2  A    between atoms: C_6  and  C_7 
REMARK    3  A    between atoms: C_12  and  C_13 
REMARK       I    between atoms: C_13  and  N_14 
REMARK    4  A    between atoms: N_14  and  C_15 
REMARK    5  A    between atoms: C_17  and  O_18 
REMARK    6  A    between atoms: C_24  and  C_25 
ROOT
HETATM    1  C   UNL     1      42.564 -15.938   3.887  1.00  0.00     0.118 C 
HETATM    2  N   UNL     1      41.300 -15.469   4.441  1.00  0.00    -0.366 N 
HETATM    3  C   UNL     1      41.179 -14.322   5.140  1.00  0.00     0.123 A 
HETATM    4  N   UNL     1      42.267 -13.571   5.480  1.00  0.00    -0.240 N 
HETATM    5  N   UNL     1      41.966 -12.418   6.107  1.00  0.00    -0.165 NA
HETATM    6  C   UNL     1      40.620 -12.479   6.243  1.00  0.00     0.148 A 
HETATM    7  C   UNL     1      40.094 -13.661   5.650  1.00  0.00     0.089 A 
HETATM    8  C   UNL     1      43.630 -13.930   5.142  1.00  0.00     0.221 C 
HETATM    9  C   UNL     1      43.638 -14.832   3.897  1.00  0.00     0.066 C 
HETATM   10  H   UNL     1      40.488 -16.049   4.231  1.00  0.00     0.161 HD
ENDROOT
BRANCH   6  11
HETATM   11  C   UNL     1      39.850 -11.417   6.917  1.00  0.00     0.276 C 
HETATM   12  N   UNL     1      40.353 -11.135   8.173  1.00  0.00    -0.322 N 
HETATM   13  H   UNL     1      41.159 -11.704   8.420  1.00  0.00     0.169 HD
HETATM   14  O   UNL     1      38.888 -10.884   6.376  1.00  0.00    -0.266 OA
BRANCH  12  15
HETATM   15  C   UNL     1      39.895 -10.190   9.107  1.00  0.00     0.037 A 
HETATM   16  C   UNL     1      38.673 -10.291   9.777  1.00  0.00     0.066 A 
HETATM   17  C   UNL     1      38.299  -9.303  10.688  1.00  0.00     0.067 A 
HETATM   18  C   UNL     1      39.122  -8.213  10.944  1.00  0.00     0.036 A 
HETATM   19  C   UNL     1      40.341  -8.107  10.280  1.00  0.00     0.005 A 
HETATM   20  C   UNL     1      40.725  -9.092   9.365  1.00  0.00     0.029 A 
BRANCH  17  21
HETATM   21  O   UNL     1      37.113  -9.372  11.360  1.00  0.00    -0.361 OA
HETATM   22  H   UNL     1      37.261  -9.850  12.193  1.00  0.00     0.217 HD
ENDBRANCH  17  21
ENDBRANCH  12  15
ENDBRANCH   6  11
BRANCH   8  23
HETATM   23  C   UNL     1      44.320 -14.523   6.349  1.00  0.00     0.409 C 
HETATM   24  F   UNL     1      45.138 -15.551   6.065  1.00  0.00    -0.169 F 
HETATM   25  F   UNL     1      45.065 -13.573   6.972  1.00  0.00    -0.169 F 
HETATM   26  F   UNL     1      43.425 -14.961   7.266  1.00  0.00    -0.169 F 
ENDBRANCH   8  23
BRANCH   1  27
HETATM   27  C   UNL     1      43.011 -17.259   4.488  1.00  0.00    -0.035 A 
HETATM   28  C   UNL     1      42.499 -17.652   5.736  1.00  0.00     0.012 A 
HETATM   29  C   UNL     1      42.895 -18.852   6.342  1.00  0.00     0.037 A 
HETATM   30  C   UNL     1      43.812 -19.686   5.708  1.00  0.00     0.068 A 
HETATM   31  C   UNL     1      44.333 -19.304   4.472  1.00  0.00     0.037 A 
HETATM   32  C   UNL     1      43.942 -18.104   3.870  1.00  0.00     0.012 A 
BRANCH  30  33
HETATM   33  O   UNL     1      44.279 -20.880   6.184  1.00  0.00    -0.356 OA
HETATM   34  C   UNL     1      44.774 -21.805   5.225  1.00  0.00     0.210 C 
ENDBRANCH  30  33
ENDBRANCH   1  27
TORSDOF 6
ENDMDL
