MODEL 1
REMARK VINA RESULT:      -8.1      0.000      0.000
REMARK  6 active torsions:
REMARK  status: ('A' for Active; 'I' for Inactive)
REMARK    1  A    between atoms: C_3  and  C_4 
REMARK    2  A    between atoms: C_9  and  C_10 
REMARK    3  A    between atoms: C_10  and  O_11 
REMARK    4  A    between atoms: C_10  and  C_12 
REMARK    5  A    between atoms: C_12  and  N_13 
REMARK    6  A    between atoms: C_17  and  C_18 
ROOT
HETATM    1  C   UNL     1      41.734 -16.680   1.576  1.00  0.00     0.271 C 
ENDROOT
BRANCH   1   2
HETATM    2  C   UNL     1      43.251 -17.015   1.592  1.00  0.00     0.177 C 
BRANCH   2   3
HETATM    3  C   UNL     1      43.649 -18.131   2.544  1.00  0.00    -0.027 A 
HETATM    4  C   UNL     1      43.708 -19.464   2.095  1.00  0.00     0.025 A 
HETATM    5  C   UNL     1      44.122 -20.510   2.943  1.00  0.00     0.048 A 
HETATM    6  C   UNL     1      44.437 -20.220   4.273  1.00  0.00     0.016 A 
HETATM    7  C   UNL     1      44.338 -18.915   4.747  1.00  0.00     0.001 A 
HETATM    8  C   UNL     1      43.948 -17.880   3.893  1.00  0.00     0.010 A 
BRANCH   5   9
HETATM    9  C   UNL     1      44.246 -21.914   2.394  1.00  0.00     0.417 C 
HETATM   10  F   UNL     1      45.350 -22.112   1.628  1.00  0.00    -0.166 F 
HETATM   11  F   UNL     1      44.282 -22.851   3.379  1.00  0.00    -0.166 F 
HETATM   12  F   UNL     1      43.176 -22.235   1.613  1.00  0.00    -0.166 F 
ENDBRANCH   5   9
ENDBRANCH   2   3
BRANCH   2  13
HETATM   13  O   UNL     1      43.592 -17.326   0.231  1.00  0.00    -0.389 OA
HETATM   14  H   UNL     1      44.188 -16.613  -0.075  1.00  0.00     0.210 HD
ENDBRANCH   2  13
ENDBRANCH   1   2
BRANCH   1  15
HETATM   15  N   UNL     1      41.412 -15.435   2.420  1.00  0.00    -0.068 N 
HETATM   16  H   UNL     1      40.724 -14.923   1.839  1.00  0.00     0.280 HD
HETATM   17  C   UNL     1      40.730 -15.766   3.725  1.00  0.00     0.235 C 
HETATM   18  C   UNL     1      40.474 -14.504   4.537  1.00  0.00     0.037 C 
HETATM   19  C   UNL     1      41.767 -13.725   4.809  1.00  0.00     0.025 C 
HETATM   20  C   UNL     1      42.381 -13.367   3.448  1.00  0.00     0.037 C 
HETATM   21  C   UNL     1      42.652 -14.594   2.590  1.00  0.00     0.235 C 
BRANCH  19  22
HETATM   22  C   UNL     1      42.708 -14.459   5.732  1.00  0.00    -0.018 A 
HETATM   23  C   UNL     1      44.064 -14.172   6.031  1.00  0.00     0.147 A 
HETATM   24  N   UNL     1      44.612 -15.061   6.856  1.00  0.00    -0.187 NA
HETATM   25  N   UNL     1      43.594 -15.863   7.193  1.00  0.00    -0.289 N 
HETATM   26  H   UNL     1      43.760 -16.600   7.872  1.00  0.00     0.188 HD
HETATM   27  C   UNL     1      42.437 -15.554   6.534  1.00  0.00     0.118 A 
ENDBRANCH  19  22
ENDBRANCH   1  15
TORSDOF 6
ENDMDL
MODEL 2
REMARK VINA RESULT:      -8.0      1.949      2.606
REMARK  6 active torsions:
REMARK  status: ('A' for Active; 'I' for Inactive)
REMARK    1  A    between atoms: C_3  and  C_4 
REMARK    2  A    between atoms: C_9  and  C_10 
REMARK    3  A    between atoms: C_10  and  O_11 
REMARK    4  A    between atoms: C_10  and  C_12 
REMARK    5  A    between atoms: C_12  and  N_13 
REMARK    6  A    between atoms: C_17  and  C_18 
ROOT
HETATM    1  C   UNL     1      42.084 -17.633   2.233  1.00  0.00     0.271 C 
ENDROOT
BRANCH   1   2
HETATM    2  C   UNL     1      43.572 -18.041   2.047  1.00  0.00     0.177 C 
BRANCH   2   3
HETATM    3  C   UNL     1      43.864 -19.514   2.278  1.00  0.00    -0.027 A 
HETATM    4  C   UNL     1      44.231 -19.976   3.557  1.00  0.00     0.025 A 
HETATM    5  C   UNL     1      44.459 -21.342   3.811  1.00  0.00     0.048 A 
HETATM    6  C   UNL     1      44.362 -22.253   2.755  1.00  0.00     0.016 A 
HETATM    7  C   UNL     1      44.047 -21.808   1.474  1.00  0.00     0.001 A 
HETATM    8  C   UNL     1      43.802 -20.453   1.236  1.00  0.00     0.010 A 
BRANCH   5   9
HETATM    9  C   UNL     1      44.773 -21.801   5.218  1.00  0.00     0.417 C 
HETATM   10  F   UNL     1      45.973 -22.425   5.341  1.00  0.00    -0.166 F 
HETATM   11  F   UNL     1      44.775 -20.773   6.107  1.00  0.00    -0.166 F 
HETATM   12  F   UNL     1      43.836 -22.682   5.668  1.00  0.00    -0.166 F 
ENDBRANCH   5   9
ENDBRANCH   2   3
BRANCH   2  13
HETATM   13  O   UNL     1      43.920 -17.630   0.714  1.00  0.00    -0.389 OA
HETATM   14  H   UNL     1      43.904 -18.438   0.162  1.00  0.00     0.210 HD
ENDBRANCH   2  13
ENDBRANCH   1   2
BRANCH   1  15
HETATM   15  N   UNL     1      41.907 -16.615   3.373  1.00  0.00    -0.068 N 
HETATM   16  H   UNL     1      41.309 -15.883   2.949  1.00  0.00     0.280 HD
HETATM   17  C   UNL     1      41.152 -17.175   4.553  1.00  0.00     0.235 C 
HETATM   18  C   UNL     1      41.043 -16.141   5.665  1.00  0.00     0.037 C 
HETATM   19  C   UNL     1      42.420 -15.640   6.119  1.00  0.00     0.025 C 
HETATM   20  C   UNL     1      43.112 -15.031   4.893  1.00  0.00     0.037 C 
HETATM   21  C   UNL     1      43.242 -16.021   3.744  1.00  0.00     0.235 C 
BRANCH  19  22
HETATM   22  C   UNL     1      43.230 -16.707   6.814  1.00  0.00    -0.018 A 
HETATM   23  C   UNL     1      44.589 -17.060   6.617  1.00  0.00     0.147 A 
HETATM   24  N   UNL     1      44.971 -18.088   7.372  1.00  0.00    -0.187 NA
HETATM   25  N   UNL     1      43.906 -18.337   8.145  1.00  0.00    -0.289 N 
HETATM   26  H   UNL     1      43.981 -19.060   8.856  1.00  0.00     0.188 HD
HETATM   27  C   UNL     1      42.834 -17.548   7.839  1.00  0.00     0.118 A 
ENDBRANCH  19  22
ENDBRANCH   1  15
TORSDOF 6
ENDMDL
MODEL 3
REMARK VINA RESULT:      -7.9      2.340      4.149
REMARK  6 active torsions:
REMARK  status: ('A' for Active; 'I' for Inactive)
REMARK    1  A    between atoms: C_3  and  C_4 
REMARK    2  A    between atoms: C_9  and  C_10 
REMARK    3  A    between atoms: C_10  and  O_11 
REMARK    4  A    between atoms: C_10  and  C_12 
REMARK    5  A    between atoms: C_12  and  N_13 
REMARK    6  A    between atoms: C_17  and  C_18 
ROOT
HETATM    1  C   UNL     1      43.337 -15.917   6.634  1.00  0.00     0.271 C 
ENDROOT
BRANCH   1   2
HETATM    2  C   UNL     1      42.694 -17.331   6.676  1.00  0.00     0.177 C 
BRANCH   2   3
HETATM    3  C   UNL     1      43.318 -18.345   5.732  1.00  0.00    -0.027 A 
HETATM    4  C   UNL     1      43.038 -18.301   4.353  1.00  0.00     0.025 A 
HETATM    5  C   UNL     1      43.640 -19.197   3.449  1.00  0.00     0.048 A 
HETATM    6  C   UNL     1      44.502 -20.182   3.943  1.00  0.00     0.016 A 
HETATM    7  C   UNL     1      44.753 -20.270   5.309  1.00  0.00     0.001 A 
HETATM    8  C   UNL     1      44.166 -19.362   6.196  1.00  0.00     0.010 A 
BRANCH   5   9
HETATM    9  C   UNL     1      43.371 -19.061   1.966  1.00  0.00     0.417 C 
HETATM   10  F   UNL     1      42.084 -18.753   1.664  1.00  0.00    -0.166 F 
HETATM   11  F   UNL     1      44.147 -18.107   1.387  1.00  0.00    -0.166 F 
HETATM   12  F   UNL     1      43.652 -20.221   1.306  1.00  0.00    -0.166 F 
ENDBRANCH   5   9
ENDBRANCH   2   3
BRANCH   2  13
HETATM   13  O   UNL     1      42.781 -17.752   8.047  1.00  0.00    -0.389 OA
HETATM   14  H   UNL     1      43.709 -18.026   8.194  1.00  0.00     0.210 HD
ENDBRANCH   2  13
ENDBRANCH   1   2
BRANCH   1  15
HETATM   15  N   UNL     1      42.350 -14.852   6.124  1.00  0.00    -0.068 N 
HETATM   16  H   UNL     1      42.270 -14.198   6.924  1.00  0.00     0.280 HD
HETATM   17  C   UNL     1      42.886 -14.061   4.957  1.00  0.00     0.235 C 
HETATM   18  C   UNL     1      41.854 -13.054   4.467  1.00  0.00     0.037 C 
HETATM   19  C   UNL     1      40.534 -13.729   4.076  1.00  0.00     0.025 C 
HETATM   20  C   UNL     1      40.012 -14.466   5.317  1.00  0.00     0.037 C 
HETATM   21  C   UNL     1      41.008 -15.484   5.854  1.00  0.00     0.235 C 
BRANCH  19  22
HETATM   22  C   UNL     1      40.665 -14.604   2.853  1.00  0.00    -0.018 A 
HETATM   23  C   UNL     1      41.783 -14.774   1.998  1.00  0.00     0.147 A 
HETATM   24  N   UNL     1      41.534 -15.591   0.978  1.00  0.00    -0.187 NA
HETATM   25  N   UNL     1      40.299 -16.048   1.220  1.00  0.00    -0.289 N 
HETATM   26  H   UNL     1      39.907 -16.744   0.593  1.00  0.00     0.188 HD
HETATM   27  C   UNL     1      39.730 -15.475   2.322  1.00  0.00     0.118 A 
ENDBRANCH  19  22
ENDBRANCH   1  15
TORSDOF 6
ENDMDL
MODEL 4
REMARK VINA RESULT:      -7.8      2.886      4.803
REMARK  6 active torsions:
REMARK  status: ('A' for Active; 'I' for Inactive)
REMARK    1  A    between atoms: C_3  and  C_4 
REMARK    2  A    between atoms: C_9  and  C_10 
REMARK    3  A    between atoms: C_10  and  O_11 
REMARK    4  A    between atoms: C_10  and  C_12 
REMARK    5  A    between atoms: C_12  and  N_13 
REMARK    6  A    between atoms: C_17  and  C_18 
ROOT
HETATM    1  C   UNL     1      40.698 -16.227   2.442  1.00  0.00     0.271 C 
ENDROOT
BRANCH   1   2
HETATM    2  C   UNL     1      41.598 -17.145   1.571  1.00  0.00     0.177 C 
BRANCH   2   3
HETATM    3  C   UNL     1      42.559 -18.025   2.351  1.00  0.00    -0.027 A 
HETATM    4  C   UNL     1      42.776 -19.362   1.966  1.00  0.00     0.025 A 
HETATM    5  C   UNL     1      43.698 -20.185   2.642  1.00  0.00     0.048 A 
HETATM    6  C   UNL     1      44.379 -19.672   3.750  1.00  0.00     0.016 A 
HETATM    7  C   UNL     1      44.142 -18.367   4.174  1.00  0.00     0.001 A 
HETATM    8  C   UNL     1      43.241 -17.552   3.484  1.00  0.00     0.010 A 
BRANCH   5   9
HETATM    9  C   UNL     1      43.956 -21.589   2.142  1.00  0.00     0.417 C 
HETATM   10  F   UNL     1      45.060 -21.703   1.358  1.00  0.00    -0.166 F 
HETATM   11  F   UNL     1      44.107 -22.479   3.159  1.00  0.00    -0.166 F 
HETATM   12  F   UNL     1      42.910 -22.047   1.397  1.00  0.00    -0.166 F 
ENDBRANCH   5   9
ENDBRANCH   2   3
BRANCH   2  13
HETATM   13  O   UNL     1      40.693 -17.922   0.768  1.00  0.00    -0.389 OA
HETATM   14  H   UNL     1      40.478 -18.722   1.289  1.00  0.00     0.210 HD
ENDBRANCH   2  13
ENDBRANCH   1   2
BRANCH   1  15
HETATM   15  N   UNL     1      40.665 -14.783   1.909  1.00  0.00    -0.068 N 
HETATM   16  H   UNL     1      40.450 -14.222   2.753  1.00  0.00     0.280 HD
HETATM   17  C   UNL     1      42.002 -14.313   1.393  1.00  0.00     0.235 C 
HETATM   18  C   UNL     1      41.902 -12.898   0.840  1.00  0.00     0.037 C 
HETATM   19  C   UNL     1      40.848 -12.789  -0.269  1.00  0.00     0.025 C 
HETATM   20  C   UNL     1      39.504 -13.223   0.332  1.00  0.00     0.037 C 
HETATM   21  C   UNL     1      39.549 -14.632   0.907  1.00  0.00     0.235 C 
BRANCH  19  22
HETATM   22  C   UNL     1      41.234 -13.544  -1.517  1.00  0.00    -0.018 A 
HETATM   23  C   UNL     1      40.493 -14.520  -2.231  1.00  0.00     0.147 A 
HETATM   24  N   UNL     1      41.160 -15.021  -3.268  1.00  0.00    -0.187 NA
HETATM   25  N   UNL     1      42.288 -14.300  -3.309  1.00  0.00    -0.289 N 
HETATM   26  H   UNL     1      42.944 -14.467  -4.066  1.00  0.00     0.188 HD
HETATM   27  C   UNL     1      42.386 -13.414  -2.272  1.00  0.00     0.118 A 
ENDBRANCH  19  22
ENDBRANCH   1  15
TORSDOF 6
ENDMDL
MODEL 5
REMARK VINA RESULT:      -7.8      3.320      5.465
REMARK  6 active torsions:
REMARK  status: ('A' for Active; 'I' for Inactive)
REMARK    1  A    between atoms: C_3  and  C_4 
REMARK    2  A    between atoms: C_9  and  C_10 
REMARK    3  A    between atoms: C_10  and  O_11 
REMARK    4  A    between atoms: C_10  and  C_12 
REMARK    5  A    between atoms: C_12  and  N_13 
REMARK    6  A    between atoms: C_17  and  C_18 
ROOT
HETATM    1  C   UNL     1      40.841 -16.120   2.008  1.00  0.00     0.271 C 
ENDROOT
BRANCH   1   2
HETATM    2  C   UNL     1      41.557 -17.289   1.278  1.00  0.00     0.177 C 
BRANCH   2   3
HETATM    3  C   UNL     1      42.513 -18.093   2.142  1.00  0.00    -0.027 A 
HETATM    4  C   UNL     1      42.779 -19.443   1.846  1.00  0.00     0.025 A 
HETATM    5  C   UNL     1      43.699 -20.197   2.600  1.00  0.00     0.048 A 
HETATM    6  C   UNL     1      44.326 -19.600   3.698  1.00  0.00     0.016 A 
HETATM    7  C   UNL     1      44.039 -18.280   4.035  1.00  0.00     0.001 A 
HETATM    8  C   UNL     1      43.141 -17.533   3.267  1.00  0.00     0.010 A 
BRANCH   5   9
HETATM    9  C   UNL     1      44.013 -21.620   2.195  1.00  0.00     0.417 C 
HETATM   10  F   UNL     1      44.199 -22.465   3.243  1.00  0.00    -0.166 F 
HETATM   11  F   UNL     1      43.034 -22.165   1.424  1.00  0.00    -0.166 F 
HETATM   12  F   UNL     1      45.152 -21.680   1.449  1.00  0.00    -0.166 F 
ENDBRANCH   5   9
ENDBRANCH   2   3
BRANCH   2  13
HETATM   13  O   UNL     1      40.505 -18.108   0.739  1.00  0.00    -0.389 OA
HETATM   14  H   UNL     1      39.681 -17.828   1.186  1.00  0.00     0.210 HD
ENDBRANCH   2  13
ENDBRANCH   1   2
BRANCH   1  15
HETATM   15  N   UNL     1      40.837 -14.832   1.164  1.00  0.00    -0.068 N 
HETATM   16  H   UNL     1      41.245 -14.126   1.804  1.00  0.00     0.280 HD
HETATM   17  C   UNL     1      41.741 -14.913  -0.041  1.00  0.00     0.235 C 
HETATM   18  C   UNL     1      41.665 -13.633  -0.860  1.00  0.00     0.037 C 
HETATM   19  C   UNL     1      40.231 -13.320  -1.305  1.00  0.00     0.025 C 
HETATM   20  C   UNL     1      39.377 -13.192  -0.037  1.00  0.00     0.037 C 
HETATM   21  C   UNL     1      39.420 -14.445   0.825  1.00  0.00     0.235 C 
BRANCH  19  22
HETATM   22  C   UNL     1      39.700 -14.317  -2.305  1.00  0.00    -0.018 A 
HETATM   23  C   UNL     1      40.419 -15.214  -3.136  1.00  0.00     0.147 A 
HETATM   24  N   UNL     1      39.630 -15.922  -3.940  1.00  0.00    -0.187 NA
HETATM   25  N   UNL     1      38.391 -15.580  -3.563  1.00  0.00    -0.289 N 
HETATM   26  H   UNL     1      37.604 -16.044  -4.006  1.00  0.00     0.188 HD
HETATM   27  C   UNL     1      38.380 -14.611  -2.599  1.00  0.00     0.118 A 
ENDBRANCH  19  22
ENDBRANCH   1  15
TORSDOF 6
ENDMDL
MODEL 6
REMARK VINA RESULT:      -7.6      1.813      3.729
REMARK  6 active torsions:
REMARK  status: ('A' for Active; 'I' for Inactive)
REMARK    1  A    between atoms: C_3  and  C_4 
REMARK    2  A    between atoms: C_9  and  C_10 
REMARK    3  A    between atoms: C_10  and  O_11 
REMARK    4  A    between atoms: C_10  and  C_12 
REMARK    5  A    between atoms: C_12  and  N_13 
REMARK    6  A    between atoms: C_17  and  C_18 
ROOT
HETATM    1  C   UNL     1      43.725 -16.348   5.957  1.00  0.00     0.271 C 
ENDROOT
BRANCH   1   2
HETATM    2  C   UNL     1      43.091 -17.704   5.543  1.00  0.00     0.177 C 
BRANCH   2   3
HETATM    3  C   UNL     1      43.421 -18.159   4.132  1.00  0.00    -0.027 A 
HETATM    4  C   UNL     1      43.637 -19.523   3.855  1.00  0.00     0.025 A 
HETATM    5  C   UNL     1      43.896 -19.978   2.547  1.00  0.00     0.048 A 
HETATM    6  C   UNL     1      43.985 -19.045   1.510  1.00  0.00     0.016 A 
HETATM    7  C   UNL     1      43.822 -17.688   1.773  1.00  0.00     0.001 A 
HETATM    8  C   UNL     1      43.544 -17.248   3.071  1.00  0.00     0.010 A 
BRANCH   5   9
HETATM    9  C   UNL     1      44.041 -21.461   2.285  1.00  0.00     0.417 C 
HETATM   10  F   UNL     1      44.198 -22.208   3.408  1.00  0.00    -0.166 F 
HETATM   11  F   UNL     1      42.971 -21.974   1.621  1.00  0.00    -0.166 F 
HETATM   12  F   UNL     1      45.125 -21.718   1.500  1.00  0.00    -0.166 F 
ENDBRANCH   5   9
ENDBRANCH   2   3
BRANCH   2  13
HETATM   13  O   UNL     1      43.531 -18.652   6.529  1.00  0.00    -0.389 OA
HETATM   14  H   UNL     1      44.222 -18.203   7.056  1.00  0.00     0.210 HD
ENDBRANCH   2  13
ENDBRANCH   1   2
BRANCH   1  15
HETATM   15  N   UNL     1      42.742 -15.177   5.783  1.00  0.00    -0.068 N 
HETATM   16  H   UNL     1      42.817 -14.666   6.681  1.00  0.00     0.280 HD
HETATM   17  C   UNL     1      43.153 -14.218   4.693  1.00  0.00     0.235 C 
HETATM   18  C   UNL     1      42.125 -13.107   4.535  1.00  0.00     0.037 C 
HETATM   19  C   UNL     1      40.724 -13.657   4.243  1.00  0.00     0.025 C 
HETATM   20  C   UNL     1      40.340 -14.575   5.412  1.00  0.00     0.037 C 
HETATM   21  C   UNL     1      41.339 -15.704   5.619  1.00  0.00     0.235 C 
BRANCH  19  22
HETATM   22  C   UNL     1      40.625 -14.315   2.888  1.00  0.00    -0.018 A 
HETATM   23  C   UNL     1      41.470 -14.158   1.760  1.00  0.00     0.147 A 
HETATM   24  N   UNL     1      41.060 -14.858   0.705  1.00  0.00    -0.187 NA
HETATM   25  N   UNL     1      40.019 -15.562   1.166  1.00  0.00    -0.289 N 
HETATM   26  H   UNL     1      39.567 -16.225   0.543  1.00  0.00     0.188 HD
HETATM   27  C   UNL     1      39.709 -15.261   2.463  1.00  0.00     0.118 A 
ENDBRANCH  19  22
ENDBRANCH   1  15
TORSDOF 6
ENDMDL
MODEL 7
REMARK VINA RESULT:      -7.5      3.471      5.500
REMARK  6 active torsions:
REMARK  status: ('A' for Active; 'I' for Inactive)
REMARK    1  A    between atoms: C_3  and  C_4 
REMARK    2  A    between atoms: C_9  and  C_10 
REMARK    3  A    between atoms: C_10  and  O_11 
REMARK    4  A    between atoms: C_10  and  C_12 
REMARK    5  A    between atoms: C_12  and  N_13 
REMARK    6  A    between atoms: C_17  and  C_18 
ROOT
HETATM    1  C   UNL     1      41.977 -15.089   2.692  1.00  0.00     0.271 C 
ENDROOT
BRANCH   1   2
HETATM    2  C   UNL     1      41.323 -16.474   2.949  1.00  0.00     0.177 C 
BRANCH   2   3
HETATM    3  C   UNL     1      42.290 -17.645   2.957  1.00  0.00    -0.027 A 
HETATM    4  C   UNL     1      42.952 -18.015   4.143  1.00  0.00     0.025 A 
HETATM    5  C   UNL     1      43.816 -19.127   4.190  1.00  0.00     0.048 A 
HETATM    6  C   UNL     1      44.053 -19.851   3.018  1.00  0.00     0.016 A 
HETATM    7  C   UNL     1      43.443 -19.472   1.825  1.00  0.00     0.001 A 
HETATM    8  C   UNL     1      42.571 -18.379   1.793  1.00  0.00     0.010 A 
BRANCH   5   9
HETATM    9  C   UNL     1      44.443 -19.534   5.505  1.00  0.00     0.417 C 
HETATM   10  F   UNL     1      43.584 -19.515   6.557  1.00  0.00    -0.166 F 
HETATM   11  F   UNL     1      44.975 -20.785   5.458  1.00  0.00    -0.166 F 
HETATM   12  F   UNL     1      45.472 -18.704   5.838  1.00  0.00    -0.166 F 
ENDBRANCH   5   9
ENDBRANCH   2   3
BRANCH   2  13
HETATM   13  O   UNL     1      40.627 -16.345   4.200  1.00  0.00    -0.389 OA
HETATM   14  H   UNL     1      41.202 -16.754   4.879  1.00  0.00     0.210 HD
ENDBRANCH   2  13
ENDBRANCH   1   2
BRANCH   1  15
HETATM   15  N   UNL     1      41.059 -14.164   1.872  1.00  0.00    -0.068 N 
HETATM   16  H   UNL     1      40.528 -13.649   2.598  1.00  0.00     0.280 HD
HETATM   17  C   UNL     1      41.820 -13.138   1.069  1.00  0.00     0.235 C 
HETATM   18  C   UNL     1      40.868 -12.280   0.247  1.00  0.00     0.037 C 
HETATM   19  C   UNL     1      39.994 -13.127  -0.686  1.00  0.00     0.025 C 
HETATM   20  C   UNL     1      39.204 -14.107   0.192  1.00  0.00     0.037 C 
HETATM   21  C   UNL     1      40.108 -14.988   1.042  1.00  0.00     0.235 C 
BRANCH  19  22
HETATM   22  C   UNL     1      40.785 -13.790  -1.787  1.00  0.00    -0.018 A 
HETATM   23  C   UNL     1      40.466 -14.951  -2.536  1.00  0.00     0.147 A 
HETATM   24  N   UNL     1      41.420 -15.287  -3.401  1.00  0.00    -0.187 NA
HETATM   25  N   UNL     1      42.310 -14.292  -3.307  1.00  0.00    -0.289 N 
HETATM   26  H   UNL     1      43.115 -14.301  -3.926  1.00  0.00     0.188 HD
HETATM   27  C   UNL     1      41.984 -13.380  -2.343  1.00  0.00     0.118 A 
ENDBRANCH  19  22
ENDBRANCH   1  15
TORSDOF 6
ENDMDL
MODEL 8
REMARK VINA RESULT:      -7.5      1.800      2.397
REMARK  6 active torsions:
REMARK  status: ('A' for Active; 'I' for Inactive)
REMARK    1  A    between atoms: C_3  and  C_4 
REMARK    2  A    between atoms: C_9  and  C_10 
REMARK    3  A    between atoms: C_10  and  O_11 
REMARK    4  A    between atoms: C_10  and  C_12 
REMARK    5  A    between atoms: C_12  and  N_13 
REMARK    6  A    between atoms: C_17  and  C_18 
ROOT
HETATM    1  C   UNL     1      41.434 -16.458   2.077  1.00  0.00     0.271 C 
ENDROOT
BRANCH   1   2
HETATM    2  C   UNL     1      42.905 -16.825   1.738  1.00  0.00     0.177 C 
BRANCH   2   3
HETATM    3  C   UNL     1      43.413 -18.098   2.394  1.00  0.00    -0.027 A 
HETATM    4  C   UNL     1      43.627 -18.148   3.784  1.00  0.00     0.025 A 
HETATM    5  C   UNL     1      44.050 -19.329   4.424  1.00  0.00     0.048 A 
HETATM    6  C   UNL     1      44.306 -20.465   3.650  1.00  0.00     0.016 A 
HETATM    7  C   UNL     1      44.146 -20.421   2.268  1.00  0.00     0.001 A 
HETATM    8  C   UNL     1      43.705 -19.249   1.645  1.00  0.00     0.010 A 
BRANCH   5   9
HETATM    9  C   UNL     1      44.190 -19.358   5.930  1.00  0.00     0.417 C 
HETATM   10  F   UNL     1      44.342 -20.604   6.448  1.00  0.00    -0.166 F 
HETATM   11  F   UNL     1      45.248 -18.623   6.364  1.00  0.00    -0.166 F 
HETATM   12  F   UNL     1      43.092 -18.824   6.537  1.00  0.00    -0.166 F 
ENDBRANCH   5   9
ENDBRANCH   2   3
BRANCH   2  13
HETATM   13  O   UNL     1      42.963 -16.902   0.305  1.00  0.00    -0.389 OA
HETATM   14  H   UNL     1      42.123 -17.312   0.015  1.00  0.00     0.210 HD
ENDBRANCH   2  13
ENDBRANCH   1   2
BRANCH   1  15
HETATM   15  N   UNL     1      41.339 -15.144   2.872  1.00  0.00    -0.068 N 
HETATM   16  H   UNL     1      40.674 -14.576   2.315  1.00  0.00     0.280 HD
HETATM   17  C   UNL     1      40.729 -15.324   4.240  1.00  0.00     0.235 C 
HETATM   18  C   UNL     1      40.699 -14.003   4.996  1.00  0.00     0.037 C 
HETATM   19  C   UNL     1      42.096 -13.384   5.126  1.00  0.00     0.025 C 
HETATM   20  C   UNL     1      42.636 -13.171   3.706  1.00  0.00     0.037 C 
HETATM   21  C   UNL     1      42.683 -14.462   2.900  1.00  0.00     0.235 C 
BRANCH  19  22
HETATM   22  C   UNL     1      43.011 -14.188   6.017  1.00  0.00    -0.018 A 
HETATM   23  C   UNL     1      44.191 -13.774   6.685  1.00  0.00     0.147 A 
HETATM   24  N   UNL     1      44.782 -14.762   7.352  1.00  0.00    -0.187 NA
HETATM   25  N   UNL     1      43.939 -15.793   7.221  1.00  0.00    -0.289 N 
HETATM   26  H   UNL     1      44.155 -16.661   7.703  1.00  0.00     0.188 HD
HETATM   27  C   UNL     1      42.872 -15.505   6.418  1.00  0.00     0.118 A 
ENDBRANCH  19  22
ENDBRANCH   1  15
TORSDOF 6
ENDMDL
MODEL 9
REMARK VINA RESULT:      -7.3      3.847      5.653
REMARK  6 active torsions:
REMARK  status: ('A' for Active; 'I' for Inactive)
REMARK    1  A    between atoms: C_3  and  C_4 
REMARK    2  A    between atoms: C_9  and  C_10 
REMARK    3  A    between atoms: C_10  and  O_11 
REMARK    4  A    between atoms: C_10  and  C_12 
REMARK    5  A    between atoms: C_12  and  N_13 
REMARK    6  A    between atoms: C_17  and  C_18 
ROOT
HETATM    1  C   UNL     1      41.669 -16.218   0.298  1.00  0.00     0.271 C 
ENDROOT
BRANCH   1   2
HETATM    2  C   UNL     1      41.234 -17.533   1.000  1.00  0.00     0.177 C 
BRANCH   2   3
HETATM    3  C   UNL     1      42.294 -18.166   1.885  1.00  0.00    -0.027 A 
HETATM    4  C   UNL     1      42.652 -19.517   1.714  1.00  0.00     0.025 A 
HETATM    5  C   UNL     1      43.666 -20.116   2.487  1.00  0.00     0.048 A 
HETATM    6  C   UNL     1      44.299 -19.359   3.477  1.00  0.00     0.016 A 
HETATM    7  C   UNL     1      43.925 -18.035   3.693  1.00  0.00     0.001 A 
HETATM    8  C   UNL     1      42.932 -17.444   2.906  1.00  0.00     0.010 A 
BRANCH   5   9
HETATM    9  C   UNL     1      44.072 -21.547   2.212  1.00  0.00     0.417 C 
HETATM   10  F   UNL     1      44.210 -22.306   3.330  1.00  0.00    -0.166 F 
HETATM   11  F   UNL     1      43.182 -22.191   1.411  1.00  0.00    -0.166 F 
HETATM   12  F   UNL     1      45.268 -21.604   1.562  1.00  0.00    -0.166 F 
ENDBRANCH   5   9
ENDBRANCH   2   3
BRANCH   2  13
HETATM   13  O   UNL     1      40.048 -17.200   1.740  1.00  0.00    -0.389 OA
HETATM   14  H   UNL     1      39.720 -18.037   2.128  1.00  0.00     0.210 HD
ENDBRANCH   2  13
ENDBRANCH   1   2
BRANCH   1  15
HETATM   15  N   UNL     1      40.562 -15.659  -0.613  1.00  0.00    -0.068 N 
HETATM   16  H   UNL     1      39.784 -16.330  -0.483  1.00  0.00     0.280 HD
HETATM   17  C   UNL     1      40.059 -14.307  -0.170  1.00  0.00     0.235 C 
HETATM   18  C   UNL     1      38.998 -13.784  -1.128  1.00  0.00     0.037 C 
HETATM   19  C   UNL     1      39.518 -13.699  -2.569  1.00  0.00     0.025 C 
HETATM   20  C   UNL     1      39.958 -15.111  -2.980  1.00  0.00     0.037 C 
HETATM   21  C   UNL     1      41.016 -15.687  -2.050  1.00  0.00     0.235 C 
BRANCH  19  22
HETATM   22  C   UNL     1      40.587 -12.649  -2.743  1.00  0.00    -0.018 A 
HETATM   23  C   UNL     1      41.710 -12.658  -3.609  1.00  0.00     0.147 A 
HETATM   24  N   UNL     1      42.481 -11.582  -3.469  1.00  0.00    -0.187 NA
HETATM   25  N   UNL     1      41.811 -10.813  -2.602  1.00  0.00    -0.289 N 
HETATM   26  H   UNL     1      42.184  -9.895  -2.378  1.00  0.00     0.188 HD
HETATM   27  C   UNL     1      40.680 -11.414  -2.126  1.00  0.00     0.118 A 
ENDBRANCH  19  22
ENDBRANCH   1  15
TORSDOF 6
ENDMDL
MODEL 10
REMARK VINA RESULT:      -7.3      1.770      2.253
REMARK  6 active torsions:
REMARK  status: ('A' for Active; 'I' for Inactive)
REMARK    1  A    between atoms: C_3  and  C_4 
REMARK    2  A    between atoms: C_9  and  C_10 
REMARK    3  A    between atoms: C_10  and  O_11 
REMARK    4  A    between atoms: C_10  and  C_12 
REMARK    5  A    between atoms: C_12  and  N_13 
REMARK    6  A    between atoms: C_17  and  C_18 
ROOT
HETATM    1  C   UNL     1      41.256 -16.783   1.772  1.00  0.00     0.271 C 
ENDROOT
BRANCH   1   2
HETATM    2  C   UNL     1      42.799 -16.946   1.703  1.00  0.00     0.177 C 
BRANCH   2   3
HETATM    3  C   UNL     1      43.365 -18.055   2.573  1.00  0.00    -0.027 A 
HETATM    4  C   UNL     1      43.448 -19.373   2.084  1.00  0.00     0.025 A 
HETATM    5  C   UNL     1      44.013 -20.410   2.851  1.00  0.00     0.048 A 
HETATM    6  C   UNL     1      44.460 -20.130   4.146  1.00  0.00     0.016 A 
HETATM    7  C   UNL     1      44.342 -18.843   4.663  1.00  0.00     0.001 A 
HETATM    8  C   UNL     1      43.799 -17.816   3.887  1.00  0.00     0.010 A 
BRANCH   5   9
HETATM    9  C   UNL     1      44.154 -21.793   2.253  1.00  0.00     0.417 C 
HETATM   10  F   UNL     1      44.260 -22.785   3.175  1.00  0.00    -0.166 F 
HETATM   11  F   UNL     1      43.106 -22.117   1.450  1.00  0.00    -0.166 F 
HETATM   12  F   UNL     1      45.266 -21.879   1.469  1.00  0.00    -0.166 F 
ENDBRANCH   5   9
ENDBRANCH   2   3
BRANCH   2  13
HETATM   13  O   UNL     1      43.103 -17.148   0.313  1.00  0.00    -0.389 OA
HETATM   14  H   UNL     1      44.041 -16.896   0.195  1.00  0.00     0.210 HD
ENDBRANCH   2  13
ENDBRANCH   1   2
BRANCH   1  15
HETATM   15  N   UNL     1      40.821 -15.326   1.534  1.00  0.00    -0.068 N 
HETATM   16  H   UNL     1      40.572 -15.312   0.529  1.00  0.00     0.280 HD
HETATM   17  C   UNL     1      39.579 -14.948   2.303  1.00  0.00     0.235 C 
HETATM   18  C   UNL     1      39.219 -13.488   2.064  1.00  0.00     0.037 C 
HETATM   19  C   UNL     1      40.370 -12.545   2.439  1.00  0.00     0.025 C 
HETATM   20  C   UNL     1      41.582 -12.941   1.584  1.00  0.00     0.037 C 
HETATM   21  C   UNL     1      41.983 -14.397   1.779  1.00  0.00     0.235 C 
BRANCH  19  22
HETATM   22  C   UNL     1      40.646 -12.521   3.922  1.00  0.00    -0.018 A 
HETATM   23  C   UNL     1      41.895 -12.527   4.593  1.00  0.00     0.147 A 
HETATM   24  N   UNL     1      41.770 -12.550   5.918  1.00  0.00    -0.187 NA
HETATM   25  N   UNL     1      40.451 -12.441   6.123  1.00  0.00    -0.289 N 
HETATM   26  H   UNL     1      40.112 -12.380   7.078  1.00  0.00     0.188 HD
HETATM   27  C   UNL     1      39.735 -12.437   4.959  1.00  0.00     0.118 A 
ENDBRANCH  19  22
ENDBRANCH   1  15
TORSDOF 6
ENDMDL
