MODEL 1
REMARK VINA RESULT:      -9.4      0.000      0.000
REMARK  9 active torsions:
REMARK  status: ('A' for Active; 'I' for Inactive)
REMARK    1  A    between atoms: C_2  and  O_3 
REMARK    2  A    between atoms: O_3  and  C_4 
REMARK    3  A    between atoms: C_7  and  C_8 
REMARK    4  A    between atoms: C_9  and  C_10 
REMARK       I    between atoms: C_10  and  N_11 
REMARK    5  A    between atoms: N_11  and  C_12 
REMARK    6  A    between atoms: C_22  and  S_23 
REMARK    7  A    between atoms: S_23  and  C_24 
REMARK    8  A    between atoms: C_24  and  C_25 
REMARK       I    between atoms: C_25  and  N_26 
REMARK    9  A    between atoms: N_26  and  C_27 
ROOT
HETATM    1  C   UNL     1      42.569 -13.892   4.992  1.00  0.00     0.104 C 
HETATM    2  C   UNL     1      41.784 -14.812   4.055  1.00  0.00     0.046 C 
HETATM    3  C   UNL     1      41.661 -16.135   4.313  1.00  0.00     0.019 C 
HETATM    4  C   UNL     1      40.994 -17.150   3.419  1.00  0.00     0.069 C 
HETATM    5  N   UNL     1      42.210 -16.642   5.471  1.00  0.00    -0.353 N 
HETATM    6  C   UNL     1      43.030 -15.956   6.340  1.00  0.00     0.087 C 
HETATM    7  C   UNL     1      43.319 -14.658   6.093  1.00  0.00     0.055 C 
HETATM    8  C   UNL     1      44.248 -13.870   7.002  1.00  0.00     0.019 C 
HETATM    9  N   UNL     1      45.019 -13.216   7.757  1.00  0.00    -0.096 N 
HETATM   10  H   UNL     1      41.947 -17.582   5.775  1.00  0.00     0.166 HD
ENDROOT
BRANCH   1  11
HETATM   11  C   UNL     1      41.662 -12.859   5.684  1.00  0.00    -0.044 A 
HETATM   12  C   UNL     1      41.872 -11.477   5.536  1.00  0.00     0.011 A 
HETATM   13  C   UNL     1      40.941 -10.555   6.023  1.00  0.00     0.037 A 
HETATM   14  C   UNL     1      39.762 -10.996   6.619  1.00  0.00     0.068 A 
HETATM   15  C   UNL     1      39.568 -12.362   6.819  1.00  0.00     0.037 A 
HETATM   16  C   UNL     1      40.509 -13.289   6.361  1.00  0.00     0.011 A 
BRANCH  14  17
HETATM   17  O   UNL     1      38.744 -10.186   7.040  1.00  0.00    -0.352 OA
BRANCH  17  18
HETATM   18  C   UNL     1      39.055  -9.312   8.127  1.00  0.00     0.171 C 
HETATM   19  C   UNL     1      38.654  -9.995   9.421  1.00  0.00     0.034 C 
ENDBRANCH  17  18
ENDBRANCH  14  17
ENDBRANCH   1  11
BRANCH   6  20
HETATM   20  S   UNL     1      43.617 -16.778   7.774  1.00  0.00    -0.102 SA
BRANCH  20  21
HETATM   21  C   UNL     1      44.818 -17.916   7.000  1.00  0.00     0.184 C 
BRANCH  21  22
HETATM   22  C   UNL     1      44.163 -19.031   6.178  1.00  0.00     0.231 C 
HETATM   23  N   UNL     1      44.880 -19.304   5.018  1.00  0.00    -0.326 N 
HETATM   24  H   UNL     1      45.846 -18.998   5.024  1.00  0.00     0.169 HD
HETATM   25  O   UNL     1      43.141 -19.608   6.539  1.00  0.00    -0.272 OA
BRANCH  23  26
HETATM   26  C   UNL     1      44.553 -20.219   3.986  1.00  0.00     0.040 A 
HETATM   27  C   UNL     1      44.763 -21.608   4.001  1.00  0.00    -0.035 A 
HETATM   28  C   UNL     1      45.237 -22.393   5.192  1.00  0.00     0.050 C 
HETATM   29  C   UNL     1      44.453 -22.358   2.844  1.00  0.00     0.009 A 
HETATM   30  C   UNL     1      43.881 -21.763   1.721  1.00  0.00     0.001 A 
HETATM   31  C   UNL     1      43.593 -20.407   1.739  1.00  0.00     0.002 A 
HETATM   32  C   UNL     1      43.915 -19.649   2.868  1.00  0.00     0.030 A 
ENDBRANCH  23  26
ENDBRANCH  21  22
ENDBRANCH  20  21
ENDBRANCH   6  20
BRANCH   2  33
HETATM   33  C   UNL     1      41.204 -14.160   2.846  1.00  0.00     0.255 C 
HETATM   34  N   UNL     1      39.851 -13.921   2.970  1.00  0.00    -0.323 N 
HETATM   35  H   UNL     1      39.426 -14.167   3.855  1.00  0.00     0.169 HD
HETATM   36  O   UNL     1      41.936 -13.872   1.908  1.00  0.00    -0.268 OA
BRANCH  34  37
HETATM   37  C   UNL     1      38.962 -13.448   1.985  1.00  0.00     0.035 A 
HETATM   38  C   UNL     1      38.509 -14.213   0.911  1.00  0.00     0.029 A 
HETATM   39  C   UNL     1      37.597 -13.675  -0.003  1.00  0.00     0.002 A 
HETATM   40  C   UNL     1      37.127 -12.373   0.154  1.00  0.00     0.000 A 
HETATM   41  C   UNL     1      37.575 -11.601   1.221  1.00  0.00     0.002 A 
HETATM   42  C   UNL     1      38.493 -12.135   2.130  1.00  0.00     0.029 A 
ENDBRANCH  34  37
ENDBRANCH   2  33
TORSDOF 9
ENDMDL
MODEL 2
REMARK VINA RESULT:      -9.4      1.729      1.994
REMARK  9 active torsions:
REMARK  status: ('A' for Active; 'I' for Inactive)
REMARK    1  A    between atoms: C_2  and  O_3 
REMARK    2  A    between atoms: O_3  and  C_4 
REMARK    3  A    between atoms: C_7  and  C_8 
REMARK    4  A    between atoms: C_9  and  C_10 
REMARK       I    between atoms: C_10  and  N_11 
REMARK    5  A    between atoms: N_11  and  C_12 
REMARK    6  A    between atoms: C_22  and  S_23 
REMARK    7  A    between atoms: S_23  and  C_24 
REMARK    8  A    between atoms: C_24  and  C_25 
REMARK       I    between atoms: C_25  and  N_26 
REMARK    9  A    between atoms: N_26  and  C_27 
ROOT
HETATM    1  C   UNL     1      42.488 -14.395   4.745  1.00  0.00     0.104 C 
HETATM    2  C   UNL     1      41.659 -15.401   3.945  1.00  0.00     0.046 C 
HETATM    3  C   UNL     1      41.517 -16.681   4.361  1.00  0.00     0.019 C 
HETATM    4  C   UNL     1      40.805 -17.779   3.611  1.00  0.00     0.069 C 
HETATM    5  N   UNL     1      42.090 -17.061   5.556  1.00  0.00    -0.353 N 
HETATM    6  C   UNL     1      42.947 -16.296   6.315  1.00  0.00     0.087 C 
HETATM    7  C   UNL     1      43.255 -15.043   5.909  1.00  0.00     0.055 C 
HETATM    8  C   UNL     1      44.225 -14.175   6.694  1.00  0.00     0.019 C 
HETATM    9  N   UNL     1      45.030 -13.455   7.345  1.00  0.00    -0.096 N 
HETATM   10  H   UNL     1      41.817 -17.952   5.976  1.00  0.00     0.166 HD
ENDROOT
BRANCH   1  11
HETATM   11  C   UNL     1      41.622 -13.267   5.333  1.00  0.00    -0.044 A 
HETATM   12  C   UNL     1      41.861 -11.916   5.023  1.00  0.00     0.011 A 
HETATM   13  C   UNL     1      40.963 -10.921   5.421  1.00  0.00     0.037 A 
HETATM   14  C   UNL     1      39.789 -11.261   6.088  1.00  0.00     0.068 A 
HETATM   15  C   UNL     1      39.569 -12.591   6.448  1.00  0.00     0.037 A 
HETATM   16  C   UNL     1      40.477 -13.587   6.079  1.00  0.00     0.011 A 
BRANCH  14  17
HETATM   17  O   UNL     1      38.801 -10.383   6.436  1.00  0.00    -0.352 OA
BRANCH  17  18
HETATM   18  C   UNL     1      39.238  -9.154   7.019  1.00  0.00     0.171 C 
HETATM   19  C   UNL     1      39.092  -9.260   8.526  1.00  0.00     0.034 C 
ENDBRANCH  17  18
ENDBRANCH  14  17
ENDBRANCH   1  11
BRANCH   6  20
HETATM   20  S   UNL     1      43.558 -16.956   7.821  1.00  0.00    -0.102 SA
BRANCH  20  21
HETATM   21  C   UNL     1      44.807 -18.113   7.159  1.00  0.00     0.184 C 
BRANCH  21  22
HETATM   22  C   UNL     1      44.208 -19.242   6.313  1.00  0.00     0.231 C 
HETATM   23  N   UNL     1      44.868 -19.378   5.096  1.00  0.00    -0.326 N 
HETATM   24  H   UNL     1      45.798 -18.978   5.060  1.00  0.00     0.169 HD
HETATM   25  O   UNL     1      43.273 -19.936   6.700  1.00  0.00    -0.272 OA
BRANCH  23  26
HETATM   26  C   UNL     1      44.561 -20.263   4.032  1.00  0.00     0.040 A 
HETATM   27  C   UNL     1      44.779 -21.651   4.008  1.00  0.00    -0.035 A 
HETATM   28  C   UNL     1      45.241 -22.469   5.182  1.00  0.00     0.050 C 
HETATM   29  C   UNL     1      44.490 -22.368   2.825  1.00  0.00     0.009 A 
HETATM   30  C   UNL     1      43.930 -21.743   1.713  1.00  0.00     0.001 A 
HETATM   31  C   UNL     1      43.634 -20.390   1.768  1.00  0.00     0.002 A 
HETATM   32  C   UNL     1      43.935 -19.664   2.922  1.00  0.00     0.030 A 
ENDBRANCH  23  26
ENDBRANCH  21  22
ENDBRANCH  20  21
ENDBRANCH   6  20
BRANCH   2  33
HETATM   33  C   UNL     1      41.058 -14.883   2.682  1.00  0.00     0.255 C 
HETATM   34  N   UNL     1      41.873 -15.083   1.586  1.00  0.00    -0.323 N 
HETATM   35  H   UNL     1      42.738 -15.581   1.749  1.00  0.00     0.169 HD
HETATM   36  O   UNL     1      39.941 -14.383   2.708  1.00  0.00    -0.268 OA
BRANCH  34  37
HETATM   37  C   UNL     1      41.689 -14.608   0.273  1.00  0.00     0.035 A 
HETATM   38  C   UNL     1      41.979 -13.307  -0.134  1.00  0.00     0.029 A 
HETATM   39  C   UNL     1      41.799 -12.929  -1.468  1.00  0.00     0.002 A 
HETATM   40  C   UNL     1      41.335 -13.850  -2.406  1.00  0.00     0.000 A 
HETATM   41  C   UNL     1      41.041 -15.150  -2.008  1.00  0.00     0.002 A 
HETATM   42  C   UNL     1      41.211 -15.526  -0.674  1.00  0.00     0.029 A 
ENDBRANCH  34  37
ENDBRANCH   2  33
TORSDOF 9
ENDMDL
MODEL 3
REMARK VINA RESULT:      -9.2      3.037      7.502
REMARK  9 active torsions:
REMARK  status: ('A' for Active; 'I' for Inactive)
REMARK    1  A    between atoms: C_2  and  O_3 
REMARK    2  A    between atoms: O_3  and  C_4 
REMARK    3  A    between atoms: C_7  and  C_8 
REMARK    4  A    between atoms: C_9  and  C_10 
REMARK       I    between atoms: C_10  and  N_11 
REMARK    5  A    between atoms: N_11  and  C_12 
REMARK    6  A    between atoms: C_22  and  S_23 
REMARK    7  A    between atoms: S_23  and  C_24 
REMARK    8  A    between atoms: C_24  and  C_25 
REMARK       I    between atoms: C_25  and  N_26 
REMARK    9  A    between atoms: N_26  and  C_27 
ROOT
HETATM    1  C   UNL     1      40.986 -15.551   5.062  1.00  0.00     0.104 C 
HETATM    2  C   UNL     1      41.099 -16.467   3.842  1.00  0.00     0.046 C 
HETATM    3  C   UNL     1      40.647 -16.076   2.628  1.00  0.00     0.019 C 
HETATM    4  C   UNL     1      40.620 -16.923   1.381  1.00  0.00     0.069 C 
HETATM    5  N   UNL     1      40.127 -14.807   2.487  1.00  0.00    -0.353 N 
HETATM    6  C   UNL     1      39.866 -13.927   3.515  1.00  0.00     0.087 C 
HETATM    7  C   UNL     1      40.163 -14.284   4.785  1.00  0.00     0.055 C 
HETATM    8  C   UNL     1      39.860 -13.362   5.955  1.00  0.00     0.019 C 
HETATM    9  N   UNL     1      39.608 -12.597   6.925  1.00  0.00    -0.096 N 
HETATM   10  H   UNL     1      39.979 -14.432   1.548  1.00  0.00     0.166 HD
ENDROOT
BRANCH   1  11
HETATM   11  C   UNL     1      42.365 -15.103   5.579  1.00  0.00    -0.044 A 
HETATM   12  C   UNL     1      43.059 -14.030   4.991  1.00  0.00     0.011 A 
HETATM   13  C   UNL     1      44.222 -13.523   5.579  1.00  0.00     0.037 A 
HETATM   14  C   UNL     1      44.682 -14.042   6.787  1.00  0.00     0.068 A 
HETATM   15  C   UNL     1      44.032 -15.140   7.350  1.00  0.00     0.037 A 
HETATM   16  C   UNL     1      42.886 -15.671   6.753  1.00  0.00     0.011 A 
BRANCH  14  17
HETATM   17  O   UNL     1      45.747 -13.559   7.494  1.00  0.00    -0.352 OA
BRANCH  17  18
HETATM   18  C   UNL     1      45.442 -12.568   8.477  1.00  0.00     0.171 C 
HETATM   19  C   UNL     1      46.580 -11.564   8.515  1.00  0.00     0.034 C 
ENDBRANCH  17  18
ENDBRANCH  14  17
ENDBRANCH   1  11
BRANCH   6  20
HETATM   20  S   UNL     1      39.215 -12.346   3.126  1.00  0.00    -0.102 SA
BRANCH  20  21
HETATM   21  C   UNL     1      40.759 -11.489   2.661  1.00  0.00     0.184 C 
BRANCH  21  22
HETATM   22  C   UNL     1      41.546 -12.202   1.556  1.00  0.00     0.231 C 
HETATM   23  N   UNL     1      40.871 -12.168   0.340  1.00  0.00    -0.326 N 
HETATM   24  H   UNL     1      40.164 -11.447   0.258  1.00  0.00     0.169 HD
HETATM   25  O   UNL     1      42.646 -12.713   1.748  1.00  0.00    -0.272 OA
BRANCH  23  26
HETATM   26  C   UNL     1      41.250 -12.771  -0.885  1.00  0.00     0.040 A 
HETATM   27  C   UNL     1      42.192 -12.278  -1.805  1.00  0.00    -0.035 A 
HETATM   28  C   UNL     1      43.081 -11.089  -1.571  1.00  0.00     0.050 C 
HETATM   29  C   UNL     1      42.384 -12.969  -3.022  1.00  0.00     0.009 A 
HETATM   30  C   UNL     1      41.716 -14.160  -3.297  1.00  0.00     0.001 A 
HETATM   31  C   UNL     1      40.853 -14.693  -2.352  1.00  0.00     0.002 A 
HETATM   32  C   UNL     1      40.636 -14.009  -1.154  1.00  0.00     0.030 A 
ENDBRANCH  23  26
ENDBRANCH  21  22
ENDBRANCH  20  21
ENDBRANCH   6  20
BRANCH   2  33
HETATM   33  C   UNL     1      41.703 -17.808   4.094  1.00  0.00     0.255 C 
HETATM   34  N   UNL     1      42.714 -18.109   3.203  1.00  0.00    -0.323 N 
HETATM   35  H   UNL     1      42.952 -17.393   2.529  1.00  0.00     0.169 HD
HETATM   36  O   UNL     1      41.305 -18.480   5.035  1.00  0.00    -0.268 OA
BRANCH  34  37
HETATM   37  C   UNL     1      43.406 -19.327   3.059  1.00  0.00     0.035 A 
HETATM   38  C   UNL     1      44.331 -19.812   3.983  1.00  0.00     0.029 A 
HETATM   39  C   UNL     1      44.946 -21.051   3.779  1.00  0.00     0.002 A 
HETATM   40  C   UNL     1      44.638 -21.816   2.656  1.00  0.00     0.000 A 
HETATM   41  C   UNL     1      43.718 -21.339   1.728  1.00  0.00     0.002 A 
HETATM   42  C   UNL     1      43.109 -20.097   1.926  1.00  0.00     0.029 A 
ENDBRANCH  34  37
ENDBRANCH   2  33
TORSDOF 9
ENDMDL
MODEL 4
REMARK VINA RESULT:      -9.0      3.003      8.961
REMARK  9 active torsions:
REMARK  status: ('A' for Active; 'I' for Inactive)
REMARK    1  A    between atoms: C_2  and  O_3 
REMARK    2  A    between atoms: O_3  and  C_4 
REMARK    3  A    between atoms: C_7  and  C_8 
REMARK    4  A    between atoms: C_9  and  C_10 
REMARK       I    between atoms: C_10  and  N_11 
REMARK    5  A    between atoms: N_11  and  C_12 
REMARK    6  A    between atoms: C_22  and  S_23 
REMARK    7  A    between atoms: S_23  and  C_24 
REMARK    8  A    between atoms: C_24  and  C_25 
REMARK       I    between atoms: C_25  and  N_26 
REMARK    9  A    between atoms: N_26  and  C_27 
ROOT
HETATM    1  C   UNL     1      41.795 -13.811   3.647  1.00  0.00     0.104 C 
HETATM    2  C   UNL     1      42.114 -15.103   4.401  1.00  0.00     0.046 C 
HETATM    3  C   UNL     1      41.699 -15.292   5.675  1.00  0.00     0.019 C 
HETATM    4  C   UNL     1      42.031 -16.478   6.545  1.00  0.00     0.069 C 
HETATM    5  N   UNL     1      40.930 -14.318   6.277  1.00  0.00    -0.353 N 
HETATM    6  C   UNL     1      40.664 -13.070   5.759  1.00  0.00     0.087 C 
HETATM    7  C   UNL     1      41.150 -12.740   4.541  1.00  0.00     0.055 C 
HETATM    8  C   UNL     1      40.915 -11.362   3.944  1.00  0.00     0.019 C 
HETATM    9  N   UNL     1      40.719 -10.218   3.449  1.00  0.00    -0.096 N 
HETATM   10  H   UNL     1      40.444 -14.539   7.149  1.00  0.00     0.166 HD
ENDROOT
BRANCH   1  11
HETATM   11  C   UNL     1      40.847 -14.052   2.459  1.00  0.00    -0.044 A 
HETATM   12  C   UNL     1      39.542 -14.544   2.645  1.00  0.00     0.011 A 
HETATM   13  C   UNL     1      38.637 -14.592   1.581  1.00  0.00     0.037 A 
HETATM   14  C   UNL     1      39.000 -14.102   0.329  1.00  0.00     0.068 A 
HETATM   15  C   UNL     1      40.306 -13.662   0.120  1.00  0.00     0.037 A 
HETATM   16  C   UNL     1      41.226 -13.640   1.172  1.00  0.00     0.011 A 
BRANCH  14  17
HETATM   17  O   UNL     1      38.166 -14.011  -0.751  1.00  0.00    -0.352 OA
BRANCH  17  18
HETATM   18  C   UNL     1      38.795 -14.101  -2.031  1.00  0.00     0.171 C 
HETATM   19  C   UNL     1      37.790 -14.665  -3.020  1.00  0.00     0.034 C 
ENDBRANCH  17  18
ENDBRANCH  14  17
ENDBRANCH   1  11
BRANCH   6  20
HETATM   20  S   UNL     1      39.646 -11.976   6.677  1.00  0.00    -0.102 SA
BRANCH  20  21
HETATM   21  C   UNL     1      40.921 -10.827   7.300  1.00  0.00     0.184 C 
BRANCH  21  22
HETATM   22  C   UNL     1      40.928 -10.689   8.826  1.00  0.00     0.231 C 
HETATM   23  N   UNL     1      42.100 -10.095   9.284  1.00  0.00    -0.326 N 
HETATM   24  H   UNL     1      42.614  -9.563   8.592  1.00  0.00     0.169 HD
HETATM   25  O   UNL     1      39.988 -11.050   9.529  1.00  0.00    -0.272 OA
BRANCH  23  26
HETATM   26  C   UNL     1      42.492  -9.863  10.626  1.00  0.00     0.040 A 
HETATM   27  C   UNL     1      43.328 -10.679  11.407  1.00  0.00    -0.035 A 
HETATM   28  C   UNL     1      44.082 -11.875  10.896  1.00  0.00     0.050 C 
HETATM   29  C   UNL     1      43.546 -10.337  12.760  1.00  0.00     0.009 A 
HETATM   30  C   UNL     1      43.010  -9.176  13.314  1.00  0.00     0.001 A 
HETATM   31  C   UNL     1      42.257  -8.325  12.519  1.00  0.00     0.002 A 
HETATM   32  C   UNL     1      42.015  -8.662  11.186  1.00  0.00     0.030 A 
ENDBRANCH  23  26
ENDBRANCH  21  22
ENDBRANCH  20  21
ENDBRANCH   6  20
BRANCH   2  33
HETATM   33  C   UNL     1      42.926 -16.105   3.651  1.00  0.00     0.255 C 
HETATM   34  N   UNL     1      42.492 -17.399   3.857  1.00  0.00    -0.323 N 
HETATM   35  H   UNL     1      41.672 -17.516   4.438  1.00  0.00     0.169 HD
HETATM   36  O   UNL     1      43.836 -15.722   2.929  1.00  0.00    -0.268 OA
BRANCH  34  37
HETATM   37  C   UNL     1      43.098 -18.594   3.421  1.00  0.00     0.035 A 
HETATM   38  C   UNL     1      42.804 -19.221   2.211  1.00  0.00     0.029 A 
HETATM   39  C   UNL     1      43.480 -20.388   1.840  1.00  0.00     0.002 A 
HETATM   40  C   UNL     1      44.457 -20.932   2.672  1.00  0.00     0.000 A 
HETATM   41  C   UNL     1      44.755 -20.314   3.883  1.00  0.00     0.002 A 
HETATM   42  C   UNL     1      44.074 -19.153   4.258  1.00  0.00     0.029 A 
ENDBRANCH  34  37
ENDBRANCH   2  33
TORSDOF 9
ENDMDL
MODEL 5
REMARK VINA RESULT:      -8.8      2.979      8.704
REMARK  9 active torsions:
REMARK  status: ('A' for Active; 'I' for Inactive)
REMARK    1  A    between atoms: C_2  and  O_3 
REMARK    2  A    between atoms: O_3  and  C_4 
REMARK    3  A    between atoms: C_7  and  C_8 
REMARK    4  A    between atoms: C_9  and  C_10 
REMARK       I    between atoms: C_10  and  N_11 
REMARK    5  A    between atoms: N_11  and  C_12 
REMARK    6  A    between atoms: C_22  and  S_23 
REMARK    7  A    between atoms: S_23  and  C_24 
REMARK    8  A    between atoms: C_24  and  C_25 
REMARK       I    between atoms: C_25  and  N_26 
REMARK    9  A    between atoms: N_26  and  C_27 
ROOT
HETATM    1  C   UNL     1      41.310 -14.061   2.369  1.00  0.00     0.104 C 
HETATM    2  C   UNL     1      41.088 -15.061   3.505  1.00  0.00     0.046 C 
HETATM    3  C   UNL     1      40.755 -14.646   4.749  1.00  0.00     0.019 C 
HETATM    4  C   UNL     1      40.603 -15.528   5.963  1.00  0.00     0.069 C 
HETATM    5  N   UNL     1      40.563 -13.299   4.974  1.00  0.00    -0.353 N 
HETATM    6  C   UNL     1      40.835 -12.288   4.078  1.00  0.00     0.087 C 
HETATM    7  C   UNL     1      41.299 -12.601   2.847  1.00  0.00     0.055 C 
HETATM    8  C   UNL     1      41.648 -11.519   1.838  1.00  0.00     0.019 C 
HETATM    9  N   UNL     1      41.938 -10.620   1.001  1.00  0.00    -0.096 N 
HETATM   10  H   UNL     1      40.114 -13.000   5.842  1.00  0.00     0.166 HD
ENDROOT
BRANCH   1  11
HETATM   11  C   UNL     1      40.247 -14.193   1.264  1.00  0.00    -0.044 A 
HETATM   12  C   UNL     1      38.873 -14.083   1.547  1.00  0.00     0.011 A 
HETATM   13  C   UNL     1      37.933 -14.030   0.514  1.00  0.00     0.037 A 
HETATM   14  C   UNL     1      38.349 -14.033  -0.815  1.00  0.00     0.068 A 
HETATM   15  C   UNL     1      39.703 -14.196  -1.106  1.00  0.00     0.037 A 
HETATM   16  C   UNL     1      40.646 -14.280  -0.079  1.00  0.00     0.011 A 
BRANCH  14  17
HETATM   17  O   UNL     1      37.525 -13.887  -1.897  1.00  0.00    -0.352 OA
BRANCH  17  18
HETATM   18  C   UNL     1      38.142 -14.054  -3.174  1.00  0.00     0.171 C 
HETATM   19  C   UNL     1      37.647 -15.355  -3.780  1.00  0.00     0.034 C 
ENDBRANCH  17  18
ENDBRANCH  14  17
ENDBRANCH   1  11
BRANCH   6  20
HETATM   20  S   UNL     1      40.504 -10.632   4.550  1.00  0.00    -0.102 SA
BRANCH  20  21
HETATM   21  C   UNL     1      40.341 -10.859   6.355  1.00  0.00     0.184 C 
BRANCH  21  22
HETATM   22  C   UNL     1      41.548 -10.347   7.148  1.00  0.00     0.231 C 
HETATM   23  N   UNL     1      42.039 -11.315   8.018  1.00  0.00    -0.326 N 
HETATM   24  H   UNL     1      41.777 -12.268   7.798  1.00  0.00     0.169 HD
HETATM   25  O   UNL     1      42.013  -9.221   6.995  1.00  0.00    -0.272 OA
BRANCH  23  26
HETATM   26  C   UNL     1      43.097 -11.190   8.953  1.00  0.00     0.040 A 
HETATM   27  C   UNL     1      43.081 -10.437  10.140  1.00  0.00    -0.035 A 
HETATM   28  C   UNL     1      41.870  -9.749  10.704  1.00  0.00     0.050 C 
HETATM   29  C   UNL     1      44.260 -10.356  10.914  1.00  0.00     0.009 A 
HETATM   30  C   UNL     1      45.411 -11.060  10.564  1.00  0.00     0.001 A 
HETATM   31  C   UNL     1      45.399 -11.872   9.441  1.00  0.00     0.002 A 
HETATM   32  C   UNL     1      44.247 -11.944   8.654  1.00  0.00     0.030 A 
ENDBRANCH  23  26
ENDBRANCH  21  22
ENDBRANCH  20  21
ENDBRANCH   6  20
BRANCH   2  33
HETATM   33  C   UNL     1      41.293 -16.496   3.152  1.00  0.00     0.255 C 
HETATM   34  N   UNL     1      42.541 -16.958   3.518  1.00  0.00    -0.323 N 
HETATM   35  H   UNL     1      43.141 -16.307   4.007  1.00  0.00     0.169 HD
HETATM   36  O   UNL     1      40.381 -17.123   2.629  1.00  0.00    -0.268 OA
BRANCH  34  37
HETATM   37  C   UNL     1      43.121 -18.208   3.223  1.00  0.00     0.035 A 
HETATM   38  C   UNL     1      43.002 -18.852   1.993  1.00  0.00     0.029 A 
HETATM   39  C   UNL     1      43.641 -20.077   1.774  1.00  0.00     0.002 A 
HETATM   40  C   UNL     1      44.408 -20.661   2.780  1.00  0.00     0.000 A 
HETATM   41  C   UNL     1      44.531 -20.027   4.012  1.00  0.00     0.002 A 
HETATM   42  C   UNL     1      43.885 -18.808   4.234  1.00  0.00     0.029 A 
ENDBRANCH  34  37
ENDBRANCH   2  33
TORSDOF 9
ENDMDL
MODEL 6
REMARK VINA RESULT:      -8.7      3.109      8.463
REMARK  9 active torsions:
REMARK  status: ('A' for Active; 'I' for Inactive)
REMARK    1  A    between atoms: C_2  and  O_3 
REMARK    2  A    between atoms: O_3  and  C_4 
REMARK    3  A    between atoms: C_7  and  C_8 
REMARK    4  A    between atoms: C_9  and  C_10 
REMARK       I    between atoms: C_10  and  N_11 
REMARK    5  A    between atoms: N_11  and  C_12 
REMARK    6  A    between atoms: C_22  and  S_23 
REMARK    7  A    between atoms: S_23  and  C_24 
REMARK    8  A    between atoms: C_24  and  C_25 
REMARK       I    between atoms: C_25  and  N_26 
REMARK    9  A    between atoms: N_26  and  C_27 
ROOT
HETATM    1  C   UNL     1      40.077 -14.976   3.201  1.00  0.00     0.104 C 
HETATM    2  C   UNL     1      39.687 -13.823   2.275  1.00  0.00     0.046 C 
HETATM    3  C   UNL     1      40.005 -12.543   2.577  1.00  0.00     0.019 C 
HETATM    4  C   UNL     1      39.595 -11.322   1.792  1.00  0.00     0.069 C 
HETATM    5  N   UNL     1      40.741 -12.290   3.715  1.00  0.00    -0.353 N 
HETATM    6  C   UNL     1      41.061 -13.212   4.687  1.00  0.00     0.087 C 
HETATM    7  C   UNL     1      40.669 -14.498   4.536  1.00  0.00     0.055 C 
HETATM    8  C   UNL     1      40.966 -15.543   5.599  1.00  0.00     0.019 C 
HETATM    9  N   UNL     1      41.213 -16.410   6.481  1.00  0.00    -0.096 N 
HETATM   10  H   UNL     1      41.160 -11.366   3.839  1.00  0.00     0.166 HD
ENDROOT
BRANCH   1  11
HETATM   11  C   UNL     1      41.105 -15.919   2.551  1.00  0.00    -0.044 A 
HETATM   12  C   UNL     1      42.483 -15.635   2.574  1.00  0.00     0.011 A 
HETATM   13  C   UNL     1      43.415 -16.581   2.138  1.00  0.00     0.037 A 
HETATM   14  C   UNL     1      42.994 -17.841   1.721  1.00  0.00     0.068 A 
HETATM   15  C   UNL     1      41.629 -18.114   1.643  1.00  0.00     0.037 A 
HETATM   16  C   UNL     1      40.689 -17.163   2.050  1.00  0.00     0.011 A 
BRANCH  14  17
HETATM   17  O   UNL     1      43.823 -18.869   1.368  1.00  0.00    -0.352 OA
BRANCH  17  18
HETATM   18  C   UNL     1      44.123 -19.808   2.402  1.00  0.00     0.171 C 
HETATM   19  C   UNL     1      43.777 -21.199   1.902  1.00  0.00     0.034 C 
ENDBRANCH  17  18
ENDBRANCH  14  17
ENDBRANCH   1  11
BRANCH   6  20
HETATM   20  S   UNL     1      42.025 -12.693   6.057  1.00  0.00    -0.102 SA
BRANCH  20  21
HETATM   21  C   UNL     1      41.086 -11.203   6.541  1.00  0.00     0.184 C 
BRANCH  21  22
HETATM   22  C   UNL     1      41.756 -10.391   7.653  1.00  0.00     0.231 C 
HETATM   23  N   UNL     1      41.991 -11.164   8.785  1.00  0.00    -0.326 N 
HETATM   24  H   UNL     1      42.000 -12.166   8.631  1.00  0.00     0.169 HD
HETATM   25  O   UNL     1      42.056  -9.207   7.522  1.00  0.00    -0.272 OA
BRANCH  23  26
HETATM   26  C   UNL     1      42.530 -10.749  10.028  1.00  0.00     0.040 A 
HETATM   27  C   UNL     1      43.883 -10.786  10.408  1.00  0.00    -0.035 A 
HETATM   28  C   UNL     1      45.023 -11.134   9.492  1.00  0.00     0.050 C 
HETATM   29  C   UNL     1      44.234 -10.411  11.724  1.00  0.00     0.009 A 
HETATM   30  C   UNL     1      43.281  -9.941  12.626  1.00  0.00     0.001 A 
HETATM   31  C   UNL     1      41.960  -9.822  12.224  1.00  0.00     0.002 A 
HETATM   32  C   UNL     1      41.595 -10.211  10.932  1.00  0.00     0.030 A 
ENDBRANCH  23  26
ENDBRANCH  21  22
ENDBRANCH  20  21
ENDBRANCH   6  20
BRANCH   2  33
HETATM   33  C   UNL     1      38.917 -14.206   1.055  1.00  0.00     0.255 C 
HETATM   34  N   UNL     1      39.724 -14.358  -0.054  1.00  0.00    -0.323 N 
HETATM   35  H   UNL     1      40.719 -14.239   0.089  1.00  0.00     0.169 HD
HETATM   36  O   UNL     1      37.709 -14.379   1.136  1.00  0.00    -0.268 OA
BRANCH  34  37
HETATM   37  C   UNL     1      39.329 -14.580  -1.388  1.00  0.00     0.035 A 
HETATM   38  C   UNL     1      38.155 -14.076  -1.947  1.00  0.00     0.029 A 
HETATM   39  C   UNL     1      37.857 -14.316  -3.292  1.00  0.00     0.002 A 
HETATM   40  C   UNL     1      38.731 -15.054  -4.088  1.00  0.00     0.000 A 
HETATM   41  C   UNL     1      39.903 -15.563  -3.537  1.00  0.00     0.002 A 
HETATM   42  C   UNL     1      40.198 -15.331  -2.191  1.00  0.00     0.029 A 
ENDBRANCH  34  37
ENDBRANCH   2  33
TORSDOF 9
ENDMDL
MODEL 7
REMARK VINA RESULT:      -8.6      3.116      8.490
REMARK  9 active torsions:
REMARK  status: ('A' for Active; 'I' for Inactive)
REMARK    1  A    between atoms: C_2  and  O_3 
REMARK    2  A    between atoms: O_3  and  C_4 
REMARK    3  A    between atoms: C_7  and  C_8 
REMARK    4  A    between atoms: C_9  and  C_10 
REMARK       I    between atoms: C_10  and  N_11 
REMARK    5  A    between atoms: N_11  and  C_12 
REMARK    6  A    between atoms: C_22  and  S_23 
REMARK    7  A    between atoms: S_23  and  C_24 
REMARK    8  A    between atoms: C_24  and  C_25 
REMARK       I    between atoms: C_25  and  N_26 
REMARK    9  A    between atoms: N_26  and  C_27 
ROOT
HETATM    1  C   UNL     1      41.109 -14.823   2.036  1.00  0.00     0.104 C 
HETATM    2  C   UNL     1      41.428 -13.649   1.108  1.00  0.00     0.046 C 
HETATM    3  C   UNL     1      41.874 -12.469   1.599  1.00  0.00     0.019 C 
HETATM    4  C   UNL     1      42.131 -11.219   0.796  1.00  0.00     0.069 C 
HETATM    5  N   UNL     1      42.094 -12.352   2.955  1.00  0.00    -0.353 N 
HETATM    6  C   UNL     1      41.747 -13.283   3.909  1.00  0.00     0.087 C 
HETATM    7  C   UNL     1      41.171 -14.444   3.524  1.00  0.00     0.055 C 
HETATM    8  C   UNL     1      40.737 -15.486   4.542  1.00  0.00     0.019 C 
HETATM    9  N   UNL     1      40.378 -16.351   5.388  1.00  0.00    -0.096 N 
HETATM   10  H   UNL     1      42.621 -11.549   3.305  1.00  0.00     0.166 HD
ENDROOT
BRANCH   1  11
HETATM   11  C   UNL     1      42.067 -16.008   1.820  1.00  0.00    -0.044 A 
HETATM   12  C   UNL     1      43.447 -15.894   2.068  1.00  0.00     0.011 A 
HETATM   13  C   UNL     1      44.275 -17.021   2.038  1.00  0.00     0.037 A 
HETATM   14  C   UNL     1      43.733 -18.284   1.812  1.00  0.00     0.068 A 
HETATM   15  C   UNL     1      42.376 -18.401   1.513  1.00  0.00     0.037 A 
HETATM   16  C   UNL     1      41.548 -17.275   1.512  1.00  0.00     0.011 A 
BRANCH  14  17
HETATM   17  O   UNL     1      44.432 -19.458   1.858  1.00  0.00    -0.352 OA
BRANCH  17  18
HETATM   18  C   UNL     1      43.839 -20.504   2.630  1.00  0.00     0.171 C 
HETATM   19  C   UNL     1      43.844 -21.774   1.799  1.00  0.00     0.034 C 
ENDBRANCH  17  18
ENDBRANCH  14  17
ENDBRANCH   1  11
BRANCH   6  20
HETATM   20  S   UNL     1      42.128 -12.952   5.589  1.00  0.00    -0.102 SA
BRANCH  20  21
HETATM   21  C   UNL     1      41.360 -11.304   5.754  1.00  0.00     0.184 C 
BRANCH  21  22
HETATM   22  C   UNL     1      41.837 -10.526   6.985  1.00  0.00     0.231 C 
HETATM   23  N   UNL     1      42.277 -11.377   7.993  1.00  0.00    -0.326 N 
HETATM   24  H   UNL     1      42.526 -12.312   7.692  1.00  0.00     0.169 HD
HETATM   25  O   UNL     1      41.837  -9.299   7.035  1.00  0.00    -0.272 OA
BRANCH  23  26
HETATM   26  C   UNL     1      42.727 -11.032   9.292  1.00  0.00     0.040 A 
HETATM   27  C   UNL     1      41.924 -10.660  10.384  1.00  0.00    -0.035 A 
HETATM   28  C   UNL     1      40.422 -10.714  10.405  1.00  0.00     0.050 C 
HETATM   29  C   UNL     1      42.550 -10.263  11.587  1.00  0.00     0.009 A 
HETATM   30  C   UNL     1      43.935 -10.299  11.735  1.00  0.00     0.001 A 
HETATM   31  C   UNL     1      44.722 -10.749  10.686  1.00  0.00     0.002 A 
HETATM   32  C   UNL     1      44.118 -11.124   9.483  1.00  0.00     0.030 A 
ENDBRANCH  23  26
ENDBRANCH  21  22
ENDBRANCH  20  21
ENDBRANCH   6  20
BRANCH   2  33
HETATM   33  C   UNL     1      41.184 -13.888  -0.344  1.00  0.00     0.255 C 
HETATM   34  N   UNL     1      39.881 -14.258  -0.608  1.00  0.00    -0.323 N 
HETATM   35  H   UNL     1      39.248 -14.283   0.180  1.00  0.00     0.169 HD
HETATM   36  O   UNL     1      42.094 -13.713  -1.143  1.00  0.00    -0.268 OA
BRANCH  34  37
HETATM   37  C   UNL     1      39.336 -14.687  -1.834  1.00  0.00     0.035 A 
HETATM   38  C   UNL     1      39.973 -15.569  -2.706  1.00  0.00     0.029 A 
HETATM   39  C   UNL     1      39.343 -15.970  -3.887  1.00  0.00     0.002 A 
HETATM   40  C   UNL     1      38.070 -15.499  -4.203  1.00  0.00     0.000 A 
HETATM   41  C   UNL     1      37.427 -14.617  -3.341  1.00  0.00     0.002 A 
HETATM   42  C   UNL     1      38.060 -14.208  -2.164  1.00  0.00     0.029 A 
ENDBRANCH  34  37
ENDBRANCH   2  33
TORSDOF 9
ENDMDL
MODEL 8
REMARK VINA RESULT:      -8.3      2.388      2.981
REMARK  9 active torsions:
REMARK  status: ('A' for Active; 'I' for Inactive)
REMARK    1  A    between atoms: C_2  and  O_3 
REMARK    2  A    between atoms: O_3  and  C_4 
REMARK    3  A    between atoms: C_7  and  C_8 
REMARK    4  A    between atoms: C_9  and  C_10 
REMARK       I    between atoms: C_10  and  N_11 
REMARK    5  A    between atoms: N_11  and  C_12 
REMARK    6  A    between atoms: C_22  and  S_23 
REMARK    7  A    between atoms: S_23  and  C_24 
REMARK    8  A    between atoms: C_24  and  C_25 
REMARK       I    between atoms: C_25  and  N_26 
REMARK    9  A    between atoms: N_26  and  C_27 
ROOT
HETATM    1  C   UNL     1      41.920 -13.853   3.819  1.00  0.00     0.104 C 
HETATM    2  C   UNL     1      41.227 -14.697   2.748  1.00  0.00     0.046 C 
HETATM    3  C   UNL     1      40.975 -16.012   2.945  1.00  0.00     0.019 C 
HETATM    4  C   UNL     1      40.385 -16.960   1.932  1.00  0.00     0.069 C 
HETATM    5  N   UNL     1      41.305 -16.579   4.158  1.00  0.00    -0.353 N 
HETATM    6  C   UNL     1      42.027 -15.969   5.161  1.00  0.00     0.087 C 
HETATM    7  C   UNL     1      42.438 -14.691   4.998  1.00  0.00     0.055 C 
HETATM    8  C   UNL     1      43.269 -13.989   6.060  1.00  0.00     0.019 C 
HETATM    9  N   UNL     1      43.958 -13.406   6.941  1.00  0.00    -0.096 N 
HETATM   10  H   UNL     1      40.934 -17.502   4.391  1.00  0.00     0.166 HD
ENDROOT
BRANCH   1  11
HETATM   11  C   UNL     1      40.990 -12.770   4.395  1.00  0.00    -0.044 A 
HETATM   12  C   UNL     1      39.746 -13.095   4.965  1.00  0.00     0.011 A 
HETATM   13  C   UNL     1      38.994 -12.128   5.639  1.00  0.00     0.037 A 
HETATM   14  C   UNL     1      39.493 -10.838   5.801  1.00  0.00     0.068 A 
HETATM   15  C   UNL     1      40.700 -10.492   5.195  1.00  0.00     0.037 A 
HETATM   16  C   UNL     1      41.443 -11.445   4.494  1.00  0.00     0.011 A 
BRANCH  14  17
HETATM   17  O   UNL     1      38.888  -9.847   6.523  1.00  0.00    -0.352 OA
BRANCH  17  18
HETATM   18  C   UNL     1      38.832  -8.566   5.893  1.00  0.00     0.171 C 
HETATM   19  C   UNL     1      37.655  -8.555   4.935  1.00  0.00     0.034 C 
ENDBRANCH  17  18
ENDBRANCH  14  17
ENDBRANCH   1  11
BRANCH   6  20
HETATM   20  S   UNL     1      42.329 -16.857   6.642  1.00  0.00    -0.102 SA
BRANCH  20  21
HETATM   21  C   UNL     1      44.154 -16.811   6.656  1.00  0.00     0.184 C 
BRANCH  21  22
HETATM   22  C   UNL     1      44.803 -18.007   5.952  1.00  0.00     0.231 C 
HETATM   23  N   UNL     1      43.923 -18.624   5.069  1.00  0.00    -0.326 N 
HETATM   24  H   UNL     1      43.140 -18.054   4.771  1.00  0.00     0.169 HD
HETATM   25  O   UNL     1      45.967 -18.342   6.151  1.00  0.00    -0.272 OA
BRANCH  23  26
HETATM   26  C   UNL     1      44.140 -19.790   4.293  1.00  0.00     0.040 A 
HETATM   27  C   UNL     1      44.010 -19.904   2.898  1.00  0.00    -0.035 A 
HETATM   28  C   UNL     1      43.764 -18.754   1.962  1.00  0.00     0.050 C 
HETATM   29  C   UNL     1      44.183 -21.170   2.298  1.00  0.00     0.009 A 
HETATM   30  C   UNL     1      44.547 -22.288   3.046  1.00  0.00     0.001 A 
HETATM   31  C   UNL     1      44.760 -22.157   4.409  1.00  0.00     0.002 A 
HETATM   32  C   UNL     1      44.571 -20.916   5.021  1.00  0.00     0.030 A 
ENDBRANCH  23  26
ENDBRANCH  21  22
ENDBRANCH  20  21
ENDBRANCH   6  20
BRANCH   2  33
HETATM   33  C   UNL     1      40.885 -13.982   1.483  1.00  0.00     0.255 C 
HETATM   34  N   UNL     1      41.924 -13.989   0.574  1.00  0.00    -0.323 N 
HETATM   35  H   UNL     1      42.757 -14.498   0.841  1.00  0.00     0.169 HD
HETATM   36  O   UNL     1      39.767 -13.506   1.345  1.00  0.00    -0.268 OA
BRANCH  34  37
HETATM   37  C   UNL     1      42.002 -13.305  -0.654  1.00  0.00     0.035 A 
HETATM   38  C   UNL     1      42.416 -11.980  -0.784  1.00  0.00     0.029 A 
HETATM   39  C   UNL     1      42.499 -11.388  -2.048  1.00  0.00     0.002 A 
HETATM   40  C   UNL     1      42.175 -12.117  -3.191  1.00  0.00     0.000 A 
HETATM   41  C   UNL     1      41.758 -13.439  -3.071  1.00  0.00     0.002 A 
HETATM   42  C   UNL     1      41.667 -14.029  -1.808  1.00  0.00     0.029 A 
ENDBRANCH  34  37
ENDBRANCH   2  33
TORSDOF 9
ENDMDL
MODEL 9
REMARK VINA RESULT:      -8.0      3.309      8.527
REMARK  9 active torsions:
REMARK  status: ('A' for Active; 'I' for Inactive)
REMARK    1  A    between atoms: C_2  and  O_3 
REMARK    2  A    between atoms: O_3  and  C_4 
REMARK    3  A    between atoms: C_7  and  C_8 
REMARK    4  A    between atoms: C_9  and  C_10 
REMARK       I    between atoms: C_10  and  N_11 
REMARK    5  A    between atoms: N_11  and  C_12 
REMARK    6  A    between atoms: C_22  and  S_23 
REMARK    7  A    between atoms: S_23  and  C_24 
REMARK    8  A    between atoms: C_24  and  C_25 
REMARK       I    between atoms: C_25  and  N_26 
REMARK    9  A    between atoms: N_26  and  C_27 
ROOT
HETATM    1  C   UNL     1      40.554 -14.408   3.331  1.00  0.00     0.104 C 
HETATM    2  C   UNL     1      41.047 -15.151   2.088  1.00  0.00     0.046 C 
HETATM    3  C   UNL     1      41.227 -14.507   0.912  1.00  0.00     0.019 C 
HETATM    4  C   UNL     1      41.618 -15.148  -0.396  1.00  0.00     0.069 C 
HETATM    5  N   UNL     1      41.011 -13.146   0.857  1.00  0.00    -0.353 N 
HETATM    6  C   UNL     1      40.464 -12.378   1.862  1.00  0.00     0.087 C 
HETATM    7  C   UNL     1      40.128 -12.962   3.034  1.00  0.00     0.055 C 
HETATM    8  C   UNL     1      39.487 -12.164   4.158  1.00  0.00     0.019 C 
HETATM    9  N   UNL     1      38.956 -11.501   5.091  1.00  0.00    -0.096 N 
HETATM   10  H   UNL     1      41.341 -12.623   0.043  1.00  0.00     0.166 HD
ENDROOT
BRANCH   1  11
HETATM   11  C   UNL     1      41.623 -14.357   4.437  1.00  0.00    -0.044 A 
HETATM   12  C   UNL     1      41.498 -15.111   5.618  1.00  0.00     0.011 A 
HETATM   13  C   UNL     1      42.554 -15.191   6.531  1.00  0.00     0.037 A 
HETATM   14  C   UNL     1      43.766 -14.564   6.258  1.00  0.00     0.068 A 
HETATM   15  C   UNL     1      43.883 -13.770   5.117  1.00  0.00     0.037 A 
HETATM   16  C   UNL     1      42.822 -13.661   4.215  1.00  0.00     0.011 A 
BRANCH  14  17
HETATM   17  O   UNL     1      44.891 -14.657   7.031  1.00  0.00    -0.352 OA
BRANCH  17  18
HETATM   18  C   UNL     1      45.545 -13.421   7.326  1.00  0.00     0.171 C 
HETATM   19  C   UNL     1      44.855 -12.787   8.520  1.00  0.00     0.034 C 
ENDBRANCH  17  18
ENDBRANCH  14  17
ENDBRANCH   1  11
BRANCH   6  20
HETATM   20  S   UNL     1      40.285 -10.653   1.602  1.00  0.00    -0.102 SA
BRANCH  20  21
HETATM   21  C   UNL     1      38.711 -10.648   0.677  1.00  0.00     0.184 C 
BRANCH  21  22
HETATM   22  C   UNL     1      38.812 -11.296  -0.707  1.00  0.00     0.231 C 
HETATM   23  N   UNL     1      37.646 -11.975  -1.044  1.00  0.00    -0.326 N 
HETATM   24  H   UNL     1      36.820 -11.699  -0.527  1.00  0.00     0.169 HD
HETATM   25  O   UNL     1      39.809 -11.192  -1.417  1.00  0.00    -0.272 OA
BRANCH  23  26
HETATM   26  C   UNL     1      37.390 -12.745  -2.206  1.00  0.00     0.040 A 
HETATM   27  C   UNL     1      36.641 -12.347  -3.327  1.00  0.00    -0.035 A 
HETATM   28  C   UNL     1      36.103 -10.962  -3.553  1.00  0.00     0.050 C 
HETATM   29  C   UNL     1      36.415 -13.280  -4.364  1.00  0.00     0.009 A 
HETATM   30  C   UNL     1      36.975 -14.555  -4.332  1.00  0.00     0.001 A 
HETATM   31  C   UNL     1      37.787 -14.918  -3.268  1.00  0.00     0.002 A 
HETATM   32  C   UNL     1      38.000 -14.014  -2.224  1.00  0.00     0.030 A 
ENDBRANCH  23  26
ENDBRANCH  21  22
ENDBRANCH  20  21
ENDBRANCH   6  20
BRANCH   2  33
HETATM   33  C   UNL     1      41.279 -16.614   2.260  1.00  0.00     0.255 C 
HETATM   34  N   UNL     1      42.557 -16.900   2.699  1.00  0.00    -0.323 N 
HETATM   35  H   UNL     1      43.158 -16.110   2.890  1.00  0.00     0.169 HD
HETATM   36  O   UNL     1      40.364 -17.398   2.045  1.00  0.00    -0.268 OA
BRANCH  34  37
HETATM   37  C   UNL     1      43.160 -18.165   2.838  1.00  0.00     0.035 A 
HETATM   38  C   UNL     1      43.769 -18.614   4.010  1.00  0.00     0.029 A 
HETATM   39  C   UNL     1      44.314 -19.900   4.072  1.00  0.00     0.002 A 
HETATM   40  C   UNL     1      44.248 -20.749   2.969  1.00  0.00     0.000 A 
HETATM   41  C   UNL     1      43.644 -20.309   1.795  1.00  0.00     0.002 A 
HETATM   42  C   UNL     1      43.108 -19.021   1.728  1.00  0.00     0.029 A 
ENDBRANCH  34  37
ENDBRANCH   2  33
TORSDOF 9
ENDMDL
MODEL 10
REMARK VINA RESULT:      -8.0      3.141      6.273
REMARK  9 active torsions:
REMARK  status: ('A' for Active; 'I' for Inactive)
REMARK    1  A    between atoms: C_2  and  O_3 
REMARK    2  A    between atoms: O_3  and  C_4 
REMARK    3  A    between atoms: C_7  and  C_8 
REMARK    4  A    between atoms: C_9  and  C_10 
REMARK       I    between atoms: C_10  and  N_11 
REMARK    5  A    between atoms: N_11  and  C_12 
REMARK    6  A    between atoms: C_22  and  S_23 
REMARK    7  A    between atoms: S_23  and  C_24 
REMARK    8  A    between atoms: C_24  and  C_25 
REMARK       I    between atoms: C_25  and  N_26 
REMARK    9  A    between atoms: N_26  and  C_27 
ROOT
HETATM    1  C   UNL     1      38.846 -13.476   1.527  1.00  0.00     0.104 C 
HETATM    2  C   UNL     1      38.425 -12.092   2.026  1.00  0.00     0.046 C 
HETATM    3  C   UNL     1      38.692 -11.693   3.291  1.00  0.00     0.019 C 
HETATM    4  C   UNL     1      38.248 -10.396   3.921  1.00  0.00     0.069 C 
HETATM    5  N   UNL     1      39.404 -12.534   4.120  1.00  0.00    -0.353 N 
HETATM    6  C   UNL     1      39.745 -13.839   3.839  1.00  0.00     0.087 C 
HETATM    7  C   UNL     1      39.403 -14.372   2.644  1.00  0.00     0.055 C 
HETATM    8  C   UNL     1      39.724 -15.818   2.304  1.00  0.00     0.019 C 
HETATM    9  N   UNL     1      39.991 -17.018   2.021  1.00  0.00    -0.096 N 
HETATM   10  H   UNL     1      39.787 -12.165   4.993  1.00  0.00     0.166 HD
ENDROOT
BRANCH   1  11
HETATM   11  C   UNL     1      39.916 -13.393   0.424  1.00  0.00    -0.044 A 
HETATM   12  C   UNL     1      39.661 -13.839  -0.885  1.00  0.00     0.011 A 
HETATM   13  C   UNL     1      40.576 -13.598  -1.914  1.00  0.00     0.037 A 
HETATM   14  C   UNL     1      41.734 -12.864  -1.666  1.00  0.00     0.068 A 
HETATM   15  C   UNL     1      42.022 -12.463  -0.362  1.00  0.00     0.037 A 
HETATM   16  C   UNL     1      41.126 -12.727   0.678  1.00  0.00     0.011 A 
BRANCH  14  17
HETATM   17  O   UNL     1      42.644 -12.488  -2.615  1.00  0.00    -0.352 OA
BRANCH  17  18
HETATM   18  C   UNL     1      42.111 -11.806  -3.751  1.00  0.00     0.171 C 
HETATM   19  C   UNL     1      42.457 -10.333  -3.631  1.00  0.00     0.034 C 
ENDBRANCH  17  18
ENDBRANCH  14  17
ENDBRANCH   1  11
BRANCH   6  20
HETATM   20  S   UNL     1      40.671 -14.743   5.024  1.00  0.00    -0.102 SA
BRANCH  20  21
HETATM   21  C   UNL     1      42.339 -14.096   4.659  1.00  0.00     0.184 C 
BRANCH  21  22
HETATM   22  C   UNL     1      43.235 -15.096   3.921  1.00  0.00     0.231 C 
HETATM   23  N   UNL     1      42.778 -16.402   4.065  1.00  0.00    -0.326 N 
HETATM   24  H   UNL     1      41.804 -16.492   4.332  1.00  0.00     0.169 HD
HETATM   25  O   UNL     1      44.220 -14.752   3.273  1.00  0.00    -0.272 OA
BRANCH  23  26
HETATM   26  C   UNL     1      43.375 -17.593   3.584  1.00  0.00     0.040 A 
HETATM   27  C   UNL     1      43.509 -17.979   2.239  1.00  0.00    -0.035 A 
HETATM   28  C   UNL     1      43.173 -17.111   1.059  1.00  0.00     0.050 C 
HETATM   29  C   UNL     1      44.056 -19.247   1.943  1.00  0.00     0.009 A 
HETATM   30  C   UNL     1      44.529 -20.089   2.948  1.00  0.00     0.001 A 
HETATM   31  C   UNL     1      44.478 -19.672   4.269  1.00  0.00     0.002 A 
HETATM   32  C   UNL     1      43.918 -18.430   4.578  1.00  0.00     0.030 A 
ENDBRANCH  23  26
ENDBRANCH  21  22
ENDBRANCH  20  21
ENDBRANCH   6  20
BRANCH   2  33
HETATM   33  C   UNL     1      37.686 -11.247   1.044  1.00  0.00     0.255 C 
HETATM   34  N   UNL     1      36.367 -11.627   0.905  1.00  0.00    -0.323 N 
HETATM   35  H   UNL     1      36.048 -12.383   1.498  1.00  0.00     0.169 HD
HETATM   36  O   UNL     1      38.263 -10.317   0.496  1.00  0.00    -0.268 OA
BRANCH  34  37
HETATM   37  C   UNL     1      35.421 -11.146  -0.021  1.00  0.00     0.035 A 
HETATM   38  C   UNL     1      35.645 -11.067  -1.395  1.00  0.00     0.029 A 
HETATM   39  C   UNL     1      34.635 -10.609  -2.247  1.00  0.00     0.002 A 
HETATM   40  C   UNL     1      33.395 -10.234  -1.735  1.00  0.00     0.000 A 
HETATM   41  C   UNL     1      33.163 -10.308  -0.365  1.00  0.00     0.002 A 
HETATM   42  C   UNL     1      34.174 -10.756   0.489  1.00  0.00     0.029 A 
ENDBRANCH  34  37
ENDBRANCH   2  33
TORSDOF 9
ENDMDL
