MODEL 1
REMARK VINA RESULT:     -10.3      0.000      0.000
REMARK  6 active torsions:
REMARK  status: ('A' for Active; 'I' for Inactive)
REMARK    1  A    between atoms: C_2  and  C_3 
REMARK    2  A    between atoms: C_3  and  N_4 
REMARK    3  A    between atoms: C_10  and  S_11 
REMARK    4  A    between atoms: S_11  and  C_12 
REMARK    5  A    between atoms: C_12  and  C_13 
REMARK       I    between atoms: C_13  and  N_14 
REMARK    6  A    between atoms: N_14  and  C_15 
ROOT
HETATM    1  N   UNL     1      42.784 -17.145   2.378  1.00  0.00    -0.063 N 
HETATM    2  H   UNL     1      42.644 -17.644   3.264  1.00  0.00     0.280 HD
HETATM    3  C   UNL     1      43.459 -15.828   2.737  1.00  0.00     0.281 C 
HETATM    4  C   UNL     1      42.540 -14.919   3.476  1.00  0.00     0.060 A 
HETATM    5  C   UNL     1      41.211 -15.082   3.556  1.00  0.00     0.052 A 
HETATM    6  N   UNL     1      40.395 -14.298   4.331  1.00  0.00    -0.228 NA
HETATM    7  C   UNL     1      40.954 -13.358   5.018  1.00  0.00     0.169 A 
HETATM    8  N   UNL     1      42.282 -13.075   4.981  1.00  0.00    -0.302 N 
HETATM    9  C   UNL     1      43.145 -13.799   4.220  1.00  0.00     0.257 A 
HETATM   10  O   UNL     1      44.346 -13.578   4.144  1.00  0.00    -0.267 OA
HETATM   11  C   UNL     1      40.522 -16.202   2.811  1.00  0.00     0.088 C 
HETATM   12  C   UNL     1      41.419 -16.899   1.782  1.00  0.00     0.241 C 
HETATM   13  H   UNL     1      42.646 -12.309   5.530  1.00  0.00     0.171 HD
ENDROOT
BRANCH   7  14
HETATM   14  S   UNL     1      40.069 -12.338   6.107  1.00  0.00    -0.083 SA
BRANCH  14  15
HETATM   15  C   UNL     1      40.928 -10.764   5.786  1.00  0.00     0.185 C 
BRANCH  15  16
HETATM   16  C   UNL     1      41.580 -10.143   7.011  1.00  0.00     0.231 C 
HETATM   17  N   UNL     1      41.839 -11.011   8.053  1.00  0.00    -0.326 N 
HETATM   18  H   UNL     1      41.476 -11.953   7.942  1.00  0.00     0.169 HD
HETATM   19  O   UNL     1      41.881  -8.951   6.983  1.00  0.00    -0.272 OA
BRANCH  17  20
HETATM   20  C   UNL     1      42.486 -10.724   9.273  1.00  0.00     0.037 A 
HETATM   21  C   UNL     1      43.818 -11.046   9.545  1.00  0.00     0.075 A 
HETATM   22  C   UNL     1      44.373 -10.729  10.784  1.00  0.00     0.157 A 
HETATM   23  F   UNL     1      45.650 -11.049  11.032  1.00  0.00    -0.203 F 
HETATM   24  C   UNL     1      43.614 -10.093  11.757  1.00  0.00     0.155 A 
HETATM   25  F   UNL     1      44.152  -9.792  12.946  1.00  0.00    -0.203 F 
HETATM   26  C   UNL     1      42.288  -9.765  11.504  1.00  0.00     0.048 A 
HETATM   27  C   UNL     1      41.725 -10.083  10.264  1.00  0.00     0.032 A 
ENDBRANCH  17  20
ENDBRANCH  15  16
ENDBRANCH  14  15
ENDBRANCH   7  14
BRANCH   1  28
HETATM   28  C   UNL     1      43.650 -18.043   1.527  1.00  0.00     0.273 C 
BRANCH  28  29
HETATM   29  C   UNL     1      43.885 -19.386   2.166  1.00  0.00    -0.030 A 
HETATM   30  C   UNL     1      43.711 -20.576   1.419  1.00  0.00     0.012 A 
HETATM   31  C   UNL     1      43.977 -21.827   1.989  1.00  0.00     0.040 A 
HETATM   32  C   UNL     1      44.416 -21.863   3.294  1.00  0.00     0.105 A 
HETATM   33  C   UNL     1      44.578 -20.716   4.029  1.00  0.00     0.105 A 
HETATM   34  O   UNL     1      44.735 -22.979   3.997  1.00  0.00    -0.323 OA
HETATM   35  C   UNL     1      44.315 -19.468   3.504  1.00  0.00     0.048 A 
HETATM   36  O   UNL     1      45.025 -20.964   5.288  1.00  0.00    -0.323 OA
HETATM   37  C   UNL     1      45.118 -22.407   5.266  1.00  0.00     0.352 A 
ENDBRANCH  28  29
ENDBRANCH   1  28
TORSDOF 6
ENDMDL
MODEL 2
REMARK VINA RESULT:      -9.7      3.518      4.145
REMARK  6 active torsions:
REMARK  status: ('A' for Active; 'I' for Inactive)
REMARK    1  A    between atoms: C_2  and  C_3 
REMARK    2  A    between atoms: C_3  and  N_4 
REMARK    3  A    between atoms: C_10  and  S_11 
REMARK    4  A    between atoms: S_11  and  C_12 
REMARK    5  A    between atoms: C_12  and  C_13 
REMARK       I    between atoms: C_13  and  N_14 
REMARK    6  A    between atoms: N_14  and  C_15 
ROOT
HETATM    1  N   UNL     1      42.230 -16.679   1.706  1.00  0.00    -0.063 N 
HETATM    2  H   UNL     1      42.494 -16.630   2.697  1.00  0.00     0.280 HD
HETATM    3  C   UNL     1      42.400 -15.269   1.153  1.00  0.00     0.281 C 
HETATM    4  C   UNL     1      41.388 -14.331   1.710  1.00  0.00     0.060 A 
HETATM    5  C   UNL     1      40.280 -14.709   2.366  1.00  0.00     0.052 A 
HETATM    6  N   UNL     1      39.416 -13.829   2.966  1.00  0.00    -0.228 NA
HETATM    7  C   UNL     1      39.701 -12.572   2.890  1.00  0.00     0.169 A 
HETATM    8  N   UNL     1      40.771 -12.074   2.217  1.00  0.00    -0.302 N 
HETATM    9  C   UNL     1      41.658 -12.887   1.583  1.00  0.00     0.257 A 
HETATM   10  O   UNL     1      42.629 -12.488   0.956  1.00  0.00    -0.267 OA
HETATM   11  C   UNL     1      39.935 -16.172   2.524  1.00  0.00     0.088 C 
HETATM   12  C   UNL     1      40.781 -17.102   1.648  1.00  0.00     0.241 C 
HETATM   13  H   UNL     1      40.921 -11.075   2.183  1.00  0.00     0.171 HD
ENDROOT
BRANCH   7  14
HETATM   14  S   UNL     1      38.753 -11.344   3.668  1.00  0.00    -0.083 SA
BRANCH  14  15
HETATM   15  C   UNL     1      39.747 -11.130   5.179  1.00  0.00     0.185 C 
BRANCH  15  16
HETATM   16  C   UNL     1      40.258 -12.429   5.784  1.00  0.00     0.231 C 
HETATM   17  N   UNL     1      41.497 -12.846   5.339  1.00  0.00    -0.326 N 
HETATM   18  H   UNL     1      41.897 -12.305   4.579  1.00  0.00     0.169 HD
HETATM   19  O   UNL     1      39.584 -12.986   6.649  1.00  0.00    -0.272 OA
BRANCH  17  20
HETATM   20  C   UNL     1      42.232 -13.970   5.770  1.00  0.00     0.037 A 
HETATM   21  C   UNL     1      41.746 -15.280   5.742  1.00  0.00     0.075 A 
HETATM   22  C   UNL     1      42.543 -16.329   6.196  1.00  0.00     0.157 A 
HETATM   23  F   UNL     1      42.061 -17.579   6.168  1.00  0.00    -0.203 F 
HETATM   24  C   UNL     1      43.822 -16.089   6.677  1.00  0.00     0.155 A 
HETATM   25  F   UNL     1      44.584 -17.100   7.113  1.00  0.00    -0.203 F 
HETATM   26  C   UNL     1      44.323 -14.793   6.712  1.00  0.00     0.048 A 
HETATM   27  C   UNL     1      43.527 -13.735   6.261  1.00  0.00     0.032 A 
ENDBRANCH  17  20
ENDBRANCH  15  16
ENDBRANCH  14  15
ENDBRANCH   7  14
BRANCH   1  28
HETATM   28  C   UNL     1      43.166 -17.681   1.074  1.00  0.00     0.273 C 
BRANCH  28  29
HETATM   29  C   UNL     1      43.665 -18.702   2.062  1.00  0.00    -0.030 A 
HETATM   30  C   UNL     1      43.998 -18.319   3.384  1.00  0.00     0.012 A 
HETATM   31  C   UNL     1      44.414 -19.268   4.324  1.00  0.00     0.040 A 
HETATM   32  C   UNL     1      44.485 -20.585   3.925  1.00  0.00     0.105 A 
HETATM   33  C   UNL     1      44.175 -20.965   2.644  1.00  0.00     0.105 A 
HETATM   34  O   UNL     1      44.850 -21.636   4.703  1.00  0.00    -0.323 OA
HETATM   35  C   UNL     1      43.772 -20.055   1.688  1.00  0.00     0.048 A 
HETATM   36  O   UNL     1      44.300 -22.304   2.454  1.00  0.00    -0.323 OA
HETATM   37  C   UNL     1      44.738 -22.728   3.766  1.00  0.00     0.352 A 
ENDBRANCH  28  29
ENDBRANCH   1  28
TORSDOF 6
ENDMDL
MODEL 3
REMARK VINA RESULT:      -9.6      1.569      2.220
REMARK  6 active torsions:
REMARK  status: ('A' for Active; 'I' for Inactive)
REMARK    1  A    between atoms: C_2  and  C_3 
REMARK    2  A    between atoms: C_3  and  N_4 
REMARK    3  A    between atoms: C_10  and  S_11 
REMARK    4  A    between atoms: S_11  and  C_12 
REMARK    5  A    between atoms: C_12  and  C_13 
REMARK       I    between atoms: C_13  and  N_14 
REMARK    6  A    between atoms: N_14  and  C_15 
ROOT
HETATM    1  N   UNL     1      42.172 -16.345   2.388  1.00  0.00    -0.063 N 
HETATM    2  H   UNL     1      42.953 -16.259   3.049  1.00  0.00     0.280 HD
HETATM    3  C   UNL     1      42.139 -15.041   1.601  1.00  0.00     0.281 C 
HETATM    4  C   UNL     1      41.717 -13.894   2.450  1.00  0.00     0.060 A 
HETATM    5  C   UNL     1      41.142 -14.011   3.656  1.00  0.00     0.052 A 
HETATM    6  N   UNL     1      40.860 -12.944   4.470  1.00  0.00    -0.228 NA
HETATM    7  C   UNL     1      41.175 -11.769   4.038  1.00  0.00     0.169 A 
HETATM    8  N   UNL     1      41.721 -11.527   2.817  1.00  0.00    -0.302 N 
HETATM    9  C   UNL     1      42.009 -12.537   1.952  1.00  0.00     0.257 A 
HETATM   10  O   UNL     1      42.490 -12.372   0.840  1.00  0.00    -0.267 OA
HETATM   11  C   UNL     1      40.804 -15.370   4.224  1.00  0.00     0.088 C 
HETATM   12  C   UNL     1      40.911 -16.507   3.202  1.00  0.00     0.241 C 
HETATM   13  H   UNL     1      41.923 -10.578   2.537  1.00  0.00     0.171 HD
ENDROOT
BRANCH   7  14
HETATM   14  S   UNL     1      40.959 -10.330   4.983  1.00  0.00    -0.083 SA
BRANCH  14  15
HETATM   15  C   UNL     1      40.758 -11.093   6.624  1.00  0.00     0.185 C 
BRANCH  15  16
HETATM   16  C   UNL     1      41.449 -10.345   7.754  1.00  0.00     0.231 C 
HETATM   17  N   UNL     1      41.385 -10.949   8.995  1.00  0.00    -0.326 N 
HETATM   18  H   UNL     1      40.799 -11.775   9.053  1.00  0.00     0.169 HD
HETATM   19  O   UNL     1      42.052  -9.305   7.496  1.00  0.00    -0.272 OA
BRANCH  17  20
HETATM   20  C   UNL     1      41.983 -10.513  10.196  1.00  0.00     0.037 A 
HETATM   21  C   UNL     1      41.455  -9.509  11.012  1.00  0.00     0.075 A 
HETATM   22  C   UNL     1      42.120  -9.138  12.179  1.00  0.00     0.157 A 
HETATM   23  F   UNL     1      41.603  -8.170  12.948  1.00  0.00    -0.203 F 
HETATM   24  C   UNL     1      43.306  -9.758  12.545  1.00  0.00     0.155 A 
HETATM   25  F   UNL     1      43.942  -9.397  13.667  1.00  0.00    -0.203 F 
HETATM   26  C   UNL     1      43.846 -10.758  11.746  1.00  0.00     0.048 A 
HETATM   27  C   UNL     1      43.185 -11.133  10.572  1.00  0.00     0.032 A 
ENDBRANCH  17  20
ENDBRANCH  15  16
ENDBRANCH  14  15
ENDBRANCH   7  14
BRANCH   1  28
HETATM   28  C   UNL     1      42.484 -17.548   1.530  1.00  0.00     0.273 C 
BRANCH  28  29
HETATM   29  C   UNL     1      43.223 -18.618   2.289  1.00  0.00    -0.030 A 
HETATM   30  C   UNL     1      43.840 -18.323   3.528  1.00  0.00     0.012 A 
HETATM   31  C   UNL     1      44.485 -19.322   4.266  1.00  0.00     0.040 A 
HETATM   32  C   UNL     1      44.497 -20.599   3.751  1.00  0.00     0.105 A 
HETATM   33  C   UNL     1      43.911 -20.894   2.546  1.00  0.00     0.105 A 
HETATM   34  O   UNL     1      45.058 -21.689   4.334  1.00  0.00    -0.323 OA
HETATM   35  C   UNL     1      43.276 -19.933   1.787  1.00  0.00     0.048 A 
HETATM   36  O   UNL     1      44.024 -22.208   2.220  1.00  0.00    -0.323 OA
HETATM   37  C   UNL     1      44.762 -22.710   3.358  1.00  0.00     0.352 A 
ENDBRANCH  28  29
ENDBRANCH   1  28
TORSDOF 6
ENDMDL
MODEL 4
REMARK VINA RESULT:      -9.4      4.213      9.908
REMARK  6 active torsions:
REMARK  status: ('A' for Active; 'I' for Inactive)
REMARK    1  A    between atoms: C_2  and  C_3 
REMARK    2  A    between atoms: C_3  and  N_4 
REMARK    3  A    between atoms: C_10  and  S_11 
REMARK    4  A    between atoms: S_11  and  C_12 
REMARK    5  A    between atoms: C_12  and  C_13 
REMARK       I    between atoms: C_13  and  N_14 
REMARK    6  A    between atoms: N_14  and  C_15 
ROOT
HETATM    1  N   UNL     1      39.937 -11.320   6.242  1.00  0.00    -0.063 N 
HETATM    2  H   UNL     1      40.914 -11.154   5.971  1.00  0.00     0.280 HD
HETATM    3  C   UNL     1      39.824 -12.816   6.513  1.00  0.00     0.281 C 
HETATM    4  C   UNL     1      39.953 -13.615   5.264  1.00  0.00     0.060 A 
HETATM    5  C   UNL     1      39.870 -13.108   4.025  1.00  0.00     0.052 A 
HETATM    6  N   UNL     1      40.099 -13.841   2.888  1.00  0.00    -0.228 NA
HETATM    7  C   UNL     1      40.416 -15.084   3.037  1.00  0.00     0.169 A 
HETATM    8  N   UNL     1      40.488 -15.712   4.239  1.00  0.00    -0.302 N 
HETATM    9  C   UNL     1      40.254 -15.051   5.405  1.00  0.00     0.257 A 
HETATM   10  O   UNL     1      40.295 -15.573   6.510  1.00  0.00    -0.267 OA
HETATM   11  C   UNL     1      39.553 -11.647   3.804  1.00  0.00     0.088 C 
HETATM   12  C   UNL     1      39.073 -10.925   5.069  1.00  0.00     0.241 C 
HETATM   13  H   UNL     1      40.722 -16.694   4.279  1.00  0.00     0.171 HD
ENDROOT
BRANCH   7  14
HETATM   14  S   UNL     1      40.817 -16.118   1.703  1.00  0.00    -0.083 SA
BRANCH  14  15
HETATM   15  C   UNL     1      42.591 -15.727   1.561  1.00  0.00     0.185 C 
BRANCH  15  16
HETATM   16  C   UNL     1      43.518 -16.882   1.908  1.00  0.00     0.231 C 
HETATM   17  N   UNL     1      43.010 -17.807   2.799  1.00  0.00    -0.326 N 
HETATM   18  H   UNL     1      42.113 -17.573   3.214  1.00  0.00     0.169 HD
HETATM   19  O   UNL     1      44.612 -16.953   1.350  1.00  0.00    -0.272 OA
BRANCH  17  20
HETATM   20  C   UNL     1      43.621 -18.997   3.245  1.00  0.00     0.037 A 
HETATM   21  C   UNL     1      43.892 -20.093   2.421  1.00  0.00     0.075 A 
HETATM   22  C   UNL     1      44.493 -21.232   2.953  1.00  0.00     0.157 A 
HETATM   23  F   UNL     1      44.742 -22.277   2.151  1.00  0.00    -0.203 F 
HETATM   24  C   UNL     1      44.829 -21.294   4.298  1.00  0.00     0.155 A 
HETATM   25  F   UNL     1      45.405 -22.392   4.804  1.00  0.00    -0.203 F 
HETATM   26  C   UNL     1      44.567 -20.214   5.132  1.00  0.00     0.048 A 
HETATM   27  C   UNL     1      43.961 -19.068   4.606  1.00  0.00     0.032 A 
ENDBRANCH  17  20
ENDBRANCH  15  16
ENDBRANCH  14  15
ENDBRANCH   7  14
BRANCH   1  28
HETATM   28  C   UNL     1      39.695 -10.475   7.469  1.00  0.00     0.273 C 
BRANCH  28  29
HETATM   29  C   UNL     1      40.769 -10.652   8.509  1.00  0.00    -0.030 A 
HETATM   30  C   UNL     1      40.427 -10.845   9.869  1.00  0.00     0.012 A 
HETATM   31  C   UNL     1      41.415 -11.062  10.835  1.00  0.00     0.040 A 
HETATM   32  C   UNL     1      42.729 -11.085  10.422  1.00  0.00     0.105 A 
HETATM   33  C   UNL     1      43.072 -10.889   9.108  1.00  0.00     0.105 A 
HETATM   34  O   UNL     1      43.811 -11.297  11.214  1.00  0.00    -0.323 OA
HETATM   35  C   UNL     1      42.126 -10.661   8.131  1.00  0.00     0.048 A 
HETATM   36  O   UNL     1      44.414 -10.957   8.906  1.00  0.00    -0.323 OA
HETATM   37  C   UNL     1      44.882 -11.211  10.250  1.00  0.00     0.352 A 
ENDBRANCH  28  29
ENDBRANCH   1  28
TORSDOF 6
ENDMDL
MODEL 5
REMARK VINA RESULT:      -9.4      5.503      9.467
REMARK  6 active torsions:
REMARK  status: ('A' for Active; 'I' for Inactive)
REMARK    1  A    between atoms: C_2  and  C_3 
REMARK    2  A    between atoms: C_3  and  N_4 
REMARK    3  A    between atoms: C_10  and  S_11 
REMARK    4  A    between atoms: S_11  and  C_12 
REMARK    5  A    between atoms: C_12  and  C_13 
REMARK       I    between atoms: C_13  and  N_14 
REMARK    6  A    between atoms: N_14  and  C_15 
ROOT
HETATM    1  N   UNL     1      41.689 -16.154   1.095  1.00  0.00    -0.063 N 
HETATM    2  H   UNL     1      42.355 -16.935   1.088  1.00  0.00     0.280 HD
HETATM    3  C   UNL     1      42.375 -15.022   1.851  1.00  0.00     0.281 C 
HETATM    4  C   UNL     1      42.521 -15.333   3.299  1.00  0.00     0.060 A 
HETATM    5  C   UNL     1      41.875 -16.322   3.933  1.00  0.00     0.052 A 
HETATM    6  N   UNL     1      42.104 -16.663   5.242  1.00  0.00    -0.228 NA
HETATM    7  C   UNL     1      42.998 -15.986   5.883  1.00  0.00     0.169 A 
HETATM    8  N   UNL     1      43.683 -14.938   5.355  1.00  0.00    -0.302 N 
HETATM    9  C   UNL     1      43.491 -14.535   4.070  1.00  0.00     0.257 A 
HETATM   10  O   UNL     1      44.073 -13.592   3.552  1.00  0.00    -0.267 OA
HETATM   11  C   UNL     1      40.858 -17.174   3.208  1.00  0.00     0.088 C 
HETATM   12  C   UNL     1      40.459 -16.619   1.836  1.00  0.00     0.241 C 
HETATM   13  H   UNL     1      44.354 -14.440   5.923  1.00  0.00     0.171 HD
ENDROOT
BRANCH   7  14
HETATM   14  S   UNL     1      43.461 -16.349   7.515  1.00  0.00    -0.083 SA
BRANCH  14  15
HETATM   15  C   UNL     1      44.757 -17.583   7.178  1.00  0.00     0.185 C 
BRANCH  15  16
HETATM   16  C   UNL     1      44.297 -18.763   6.335  1.00  0.00     0.231 C 
HETATM   17  N   UNL     1      44.684 -18.734   5.009  1.00  0.00    -0.326 N 
HETATM   18  H   UNL     1      45.146 -17.884   4.703  1.00  0.00     0.169 HD
HETATM   19  O   UNL     1      43.673 -19.673   6.878  1.00  0.00    -0.272 OA
BRANCH  17  20
HETATM   20  C   UNL     1      44.453 -19.717   4.024  1.00  0.00     0.037 A 
HETATM   21  C   UNL     1      44.818 -21.059   4.159  1.00  0.00     0.075 A 
HETATM   22  C   UNL     1      44.555 -21.959   3.127  1.00  0.00     0.157 A 
HETATM   23  F   UNL     1      44.916 -23.242   3.269  1.00  0.00    -0.203 F 
HETATM   24  C   UNL     1      43.931 -21.538   1.962  1.00  0.00     0.155 A 
HETATM   25  F   UNL     1      43.682 -22.407   0.974  1.00  0.00    -0.203 F 
HETATM   26  C   UNL     1      43.561 -20.207   1.811  1.00  0.00     0.048 A 
HETATM   27  C   UNL     1      43.824 -19.298   2.840  1.00  0.00     0.032 A 
ENDBRANCH  17  20
ENDBRANCH  15  16
ENDBRANCH  14  15
ENDBRANCH   7  14
BRANCH   1  28
HETATM   28  C   UNL     1      41.420 -15.823  -0.353  1.00  0.00     0.273 C 
BRANCH  28  29
HETATM   29  C   UNL     1      40.987 -14.394  -0.545  1.00  0.00    -0.030 A 
HETATM   30  C   UNL     1      41.885 -13.436  -1.072  1.00  0.00     0.012 A 
HETATM   31  C   UNL     1      41.476 -12.118  -1.302  1.00  0.00     0.040 A 
HETATM   32  C   UNL     1      40.174 -11.784  -1.003  1.00  0.00     0.105 A 
HETATM   33  C   UNL     1      39.298 -12.702  -0.482  1.00  0.00     0.105 A 
HETATM   34  O   UNL     1      39.603 -10.564  -1.176  1.00  0.00    -0.323 OA
HETATM   35  C   UNL     1      39.670 -14.007  -0.232  1.00  0.00     0.048 A 
HETATM   36  O   UNL     1      38.063 -12.179  -0.265  1.00  0.00    -0.323 OA
HETATM   37  C   UNL     1      38.263 -10.814  -0.702  1.00  0.00     0.352 A 
ENDBRANCH  28  29
ENDBRANCH   1  28
TORSDOF 6
ENDMDL
MODEL 6
REMARK VINA RESULT:      -9.2      2.172      3.142
REMARK  6 active torsions:
REMARK  status: ('A' for Active; 'I' for Inactive)
REMARK    1  A    between atoms: C_2  and  C_3 
REMARK    2  A    between atoms: C_3  and  N_4 
REMARK    3  A    between atoms: C_10  and  S_11 
REMARK    4  A    between atoms: S_11  and  C_12 
REMARK    5  A    between atoms: C_12  and  C_13 
REMARK       I    between atoms: C_13  and  N_14 
REMARK    6  A    between atoms: N_14  and  C_15 
ROOT
HETATM    1  N   UNL     1      44.016 -16.357   5.963  1.00  0.00    -0.063 N 
HETATM    2  H   UNL     1      44.211 -16.059   4.999  1.00  0.00     0.280 HD
HETATM    3  C   UNL     1      42.502 -16.290   6.127  1.00  0.00     0.281 C 
HETATM    4  C   UNL     1      42.007 -14.886   6.118  1.00  0.00     0.060 A 
HETATM    5  C   UNL     1      42.786 -13.804   6.259  1.00  0.00     0.052 A 
HETATM    6  N   UNL     1      42.327 -12.517   6.138  1.00  0.00    -0.228 NA
HETATM    7  C   UNL     1      41.074 -12.357   5.870  1.00  0.00     0.169 A 
HETATM    8  N   UNL     1      40.185 -13.377   5.748  1.00  0.00    -0.302 N 
HETATM    9  C   UNL     1      40.568 -14.676   5.874  1.00  0.00     0.257 A 
HETATM   10  O   UNL     1      39.806 -15.628   5.785  1.00  0.00    -0.267 OA
HETATM   11  C   UNL     1      44.268 -13.945   6.521  1.00  0.00     0.088 C 
HETATM   12  C   UNL     1      44.695 -15.371   6.883  1.00  0.00     0.241 C 
HETATM   13  H   UNL     1      39.214 -13.175   5.558  1.00  0.00     0.171 HD
ENDROOT
BRANCH   7  14
HETATM   14  S   UNL     1      40.361 -10.797   5.605  1.00  0.00    -0.083 SA
BRANCH  14  15
HETATM   15  C   UNL     1      41.557  -9.776   6.524  1.00  0.00     0.185 C 
BRANCH  15  16
HETATM   16  C   UNL     1      41.328  -9.740   8.028  1.00  0.00     0.231 C 
HETATM   17  N   UNL     1      42.198 -10.503   8.781  1.00  0.00    -0.326 N 
HETATM   18  H   UNL     1      42.837 -11.092   8.255  1.00  0.00     0.169 HD
HETATM   19  O   UNL     1      40.443  -9.014   8.476  1.00  0.00    -0.272 OA
BRANCH  17  20
HETATM   20  C   UNL     1      42.256 -10.608  10.186  1.00  0.00     0.037 A 
HETATM   21  C   UNL     1      41.236 -11.151  10.971  1.00  0.00     0.075 A 
HETATM   22  C   UNL     1      41.377 -11.206  12.357  1.00  0.00     0.157 A 
HETATM   23  F   UNL     1      40.388 -11.726  13.097  1.00  0.00    -0.203 F 
HETATM   24  C   UNL     1      42.526 -10.728  12.971  1.00  0.00     0.155 A 
HETATM   25  F   UNL     1      42.657 -10.783  14.303  1.00  0.00    -0.203 F 
HETATM   26  C   UNL     1      43.551 -10.185  12.206  1.00  0.00     0.048 A 
HETATM   27  C   UNL     1      43.414 -10.123  10.816  1.00  0.00     0.032 A 
ENDBRANCH  17  20
ENDBRANCH  15  16
ENDBRANCH  14  15
ENDBRANCH   7  14
BRANCH   1  28
HETATM   28  C   UNL     1      44.565 -17.758   6.084  1.00  0.00     0.273 C 
BRANCH  28  29
HETATM   29  C   UNL     1      44.325 -18.578   4.844  1.00  0.00    -0.030 A 
HETATM   30  C   UNL     1      43.861 -17.964   3.656  1.00  0.00     0.012 A 
HETATM   31  C   UNL     1      43.685 -18.708   2.484  1.00  0.00     0.040 A 
HETATM   32  C   UNL     1      43.979 -20.053   2.523  1.00  0.00     0.105 A 
HETATM   33  C   UNL     1      44.419 -20.660   3.671  1.00  0.00     0.105 A 
HETATM   34  O   UNL     1      43.883 -20.920   1.482  1.00  0.00    -0.323 OA
HETATM   35  C   UNL     1      44.594 -19.960   4.847  1.00  0.00     0.048 A 
HETATM   36  O   UNL     1      44.661 -21.986   3.500  1.00  0.00    -0.323 OA
HETATM   37  C   UNL     1      44.312 -22.150   2.106  1.00  0.00     0.352 A 
ENDBRANCH  28  29
ENDBRANCH   1  28
TORSDOF 6
ENDMDL
MODEL 7
REMARK VINA RESULT:      -9.1      3.658      4.761
REMARK  6 active torsions:
REMARK  status: ('A' for Active; 'I' for Inactive)
REMARK    1  A    between atoms: C_2  and  C_3 
REMARK    2  A    between atoms: C_3  and  N_4 
REMARK    3  A    between atoms: C_10  and  S_11 
REMARK    4  A    between atoms: S_11  and  C_12 
REMARK    5  A    between atoms: C_12  and  C_13 
REMARK       I    between atoms: C_13  and  N_14 
REMARK    6  A    between atoms: N_14  and  C_15 
ROOT
HETATM    1  N   UNL     1      42.179 -16.586   1.249  1.00  0.00    -0.063 N 
HETATM    2  H   UNL     1      42.437 -16.005   2.055  1.00  0.00     0.280 HD
HETATM    3  C   UNL     1      41.972 -15.626   0.084  1.00  0.00     0.281 C 
HETATM    4  C   UNL     1      40.760 -14.783   0.273  1.00  0.00     0.060 A 
HETATM    5  C   UNL     1      39.797 -15.025   1.174  1.00  0.00     0.052 A 
HETATM    6  N   UNL     1      38.744 -14.178   1.407  1.00  0.00    -0.228 NA
HETATM    7  C   UNL     1      38.694 -13.090   0.714  1.00  0.00     0.169 A 
HETATM    8  N   UNL     1      39.588 -12.762  -0.254  1.00  0.00    -0.302 N 
HETATM    9  C   UNL     1      40.646 -13.565  -0.550  1.00  0.00     0.257 A 
HETATM   10  O   UNL     1      41.472 -13.320  -1.418  1.00  0.00    -0.267 OA
HETATM   11  C   UNL     1      39.843 -16.261   2.044  1.00  0.00     0.088 C 
HETATM   12  C   UNL     1      40.889 -17.289   1.596  1.00  0.00     0.241 C 
HETATM   13  H   UNL     1      39.474 -11.902  -0.771  1.00  0.00     0.171 HD
ENDROOT
BRANCH   7  14
HETATM   14  S   UNL     1      37.472 -11.880   0.951  1.00  0.00    -0.083 SA
BRANCH  14  15
HETATM   15  C   UNL     1      38.036 -11.213   2.548  1.00  0.00     0.185 C 
BRANCH  15  16
HETATM   16  C   UNL     1      39.511 -11.441   2.839  1.00  0.00     0.231 C 
HETATM   17  N   UNL     1      39.789 -12.388   3.805  1.00  0.00    -0.326 N 
HETATM   18  H   UNL     1      38.984 -12.763   4.298  1.00  0.00     0.169 HD
HETATM   19  O   UNL     1      40.348 -10.827   2.179  1.00  0.00    -0.272 OA
BRANCH  17  20
HETATM   20  C   UNL     1      41.056 -12.842   4.227  1.00  0.00     0.037 A 
HETATM   21  C   UNL     1      42.028 -13.357   3.366  1.00  0.00     0.075 A 
HETATM   22  C   UNL     1      43.251 -13.789   3.875  1.00  0.00     0.157 A 
HETATM   23  F   UNL     1      44.172 -14.285   3.037  1.00  0.00    -0.203 F 
HETATM   24  C   UNL     1      43.519 -13.712   5.235  1.00  0.00     0.155 A 
HETATM   25  F   UNL     1      44.696 -14.129   5.718  1.00  0.00    -0.203 F 
HETATM   26  C   UNL     1      42.565 -13.202   6.105  1.00  0.00     0.048 A 
HETATM   27  C   UNL     1      41.334 -12.769   5.602  1.00  0.00     0.032 A 
ENDBRANCH  17  20
ENDBRANCH  15  16
ENDBRANCH  14  15
ENDBRANCH   7  14
BRANCH   1  28
HETATM   28  C   UNL     1      43.334 -17.536   1.037  1.00  0.00     0.273 C 
BRANCH  28  29
HETATM   29  C   UNL     1      43.729 -18.251   2.302  1.00  0.00    -0.030 A 
HETATM   30  C   UNL     1      43.754 -17.561   3.537  1.00  0.00     0.012 A 
HETATM   31  C   UNL     1      44.071 -18.229   4.726  1.00  0.00     0.040 A 
HETATM   32  C   UNL     1      44.352 -19.575   4.656  1.00  0.00     0.105 A 
HETATM   33  C   UNL     1      44.341 -20.250   3.462  1.00  0.00     0.105 A 
HETATM   34  O   UNL     1      44.662 -20.381   5.704  1.00  0.00    -0.323 OA
HETATM   35  C   UNL     1      44.044 -19.623   2.270  1.00  0.00     0.048 A 
HETATM   36  O   UNL     1      44.636 -21.569   3.607  1.00  0.00    -0.323 OA
HETATM   37  C   UNL     1      44.847 -21.647   5.036  1.00  0.00     0.352 A 
ENDBRANCH  28  29
ENDBRANCH   1  28
TORSDOF 6
ENDMDL
MODEL 8
REMARK VINA RESULT:      -9.1      5.970      9.642
REMARK  6 active torsions:
REMARK  status: ('A' for Active; 'I' for Inactive)
REMARK    1  A    between atoms: C_2  and  C_3 
REMARK    2  A    between atoms: C_3  and  N_4 
REMARK    3  A    between atoms: C_10  and  S_11 
REMARK    4  A    between atoms: S_11  and  C_12 
REMARK    5  A    between atoms: C_12  and  C_13 
REMARK       I    between atoms: C_13  and  N_14 
REMARK    6  A    between atoms: N_14  and  C_15 
ROOT
HETATM    1  N   UNL     1      41.738 -14.674  -1.832  1.00  0.00    -0.063 N 
HETATM    2  H   UNL     1      42.740 -14.900  -1.830  1.00  0.00     0.280 HD
HETATM    3  C   UNL     1      41.584 -13.434  -0.959  1.00  0.00     0.281 C 
HETATM    4  C   UNL     1      41.844 -13.733   0.475  1.00  0.00     0.060 A 
HETATM    5  C   UNL     1      41.902 -14.967   0.997  1.00  0.00     0.052 A 
HETATM    6  N   UNL     1      42.250 -15.226   2.299  1.00  0.00    -0.228 NA
HETATM    7  C   UNL     1      42.539 -14.214   3.048  1.00  0.00     0.169 A 
HETATM    8  N   UNL     1      42.472 -12.921   2.639  1.00  0.00    -0.302 N 
HETATM    9  C   UNL     1      42.116 -12.591   1.368  1.00  0.00     0.257 A 
HETATM   10  O   UNL     1      42.031 -11.444   0.954  1.00  0.00    -0.267 OA
HETATM   11  C   UNL     1      41.623 -16.183   0.144  1.00  0.00     0.088 C 
HETATM   12  C   UNL     1      41.012 -15.849  -1.221  1.00  0.00     0.241 C 
HETATM   13  H   UNL     1      42.693 -12.178   3.287  1.00  0.00     0.171 HD
ENDROOT
BRANCH   7  14
HETATM   14  S   UNL     1      43.077 -14.383   4.689  1.00  0.00    -0.083 SA
BRANCH  14  15
HETATM   15  C   UNL     1      41.798 -15.531   5.293  1.00  0.00     0.185 C 
BRANCH  15  16
HETATM   16  C   UNL     1      41.951 -16.960   4.795  1.00  0.00     0.231 C 
HETATM   17  N   UNL     1      43.205 -17.296   4.324  1.00  0.00    -0.326 N 
HETATM   18  H   UNL     1      43.870 -16.531   4.258  1.00  0.00     0.169 HD
HETATM   19  O   UNL     1      40.994 -17.727   4.889  1.00  0.00    -0.272 OA
BRANCH  17  20
HETATM   20  C   UNL     1      43.643 -18.555   3.863  1.00  0.00     0.037 A 
HETATM   21  C   UNL     1      44.379 -19.456   4.636  1.00  0.00     0.075 A 
HETATM   22  C   UNL     1      44.776 -20.677   4.094  1.00  0.00     0.157 A 
HETATM   23  F   UNL     1      45.487 -21.529   4.846  1.00  0.00    -0.203 F 
HETATM   24  C   UNL     1      44.446 -21.012   2.788  1.00  0.00     0.155 A 
HETATM   25  F   UNL     1      44.831 -22.187   2.271  1.00  0.00    -0.203 F 
HETATM   26  C   UNL     1      43.715 -20.129   2.005  1.00  0.00     0.048 A 
HETATM   27  C   UNL     1      43.315 -18.900   2.542  1.00  0.00     0.032 A 
ENDBRANCH  17  20
ENDBRANCH  15  16
ENDBRANCH  14  15
ENDBRANCH   7  14
BRANCH   1  28
HETATM   28  C   UNL     1      41.369 -14.433  -3.276  1.00  0.00     0.273 C 
BRANCH  28  29
HETATM   29  C   UNL     1      39.950 -13.955  -3.433  1.00  0.00    -0.030 A 
HETATM   30  C   UNL     1      39.624 -12.594  -3.226  1.00  0.00     0.012 A 
HETATM   31  C   UNL     1      38.318 -12.130  -3.420  1.00  0.00     0.040 A 
HETATM   32  C   UNL     1      37.363 -13.037  -3.821  1.00  0.00     0.105 A 
HETATM   33  C   UNL     1      37.666 -14.361  -4.015  1.00  0.00     0.105 A 
HETATM   34  O   UNL     1      36.057 -12.763  -4.071  1.00  0.00    -0.323 OA
HETATM   35  C   UNL     1      38.939 -14.855  -3.823  1.00  0.00     0.048 A 
HETATM   36  O   UNL     1      36.591 -15.088  -4.417  1.00  0.00    -0.323 OA
HETATM   37  C   UNL     1      35.566 -14.068  -4.445  1.00  0.00     0.352 A 
ENDBRANCH  28  29
ENDBRANCH   1  28
TORSDOF 6
ENDMDL
MODEL 9
REMARK VINA RESULT:      -9.1      3.906     10.361
REMARK  6 active torsions:
REMARK  status: ('A' for Active; 'I' for Inactive)
REMARK    1  A    between atoms: C_2  and  C_3 
REMARK    2  A    between atoms: C_3  and  N_4 
REMARK    3  A    between atoms: C_10  and  S_11 
REMARK    4  A    between atoms: S_11  and  C_12 
REMARK    5  A    between atoms: C_12  and  C_13 
REMARK       I    between atoms: C_13  and  N_14 
REMARK    6  A    between atoms: N_14  and  C_15 
ROOT
HETATM    1  N   UNL     1      41.173 -10.592   6.451  1.00  0.00    -0.063 N 
HETATM    2  H   UNL     1      41.443 -10.181   5.549  1.00  0.00     0.280 HD
HETATM    3  C   UNL     1      42.040 -11.833   6.627  1.00  0.00     0.281 C 
HETATM    4  C   UNL     1      41.673 -12.905   5.662  1.00  0.00     0.060 A 
HETATM    5  C   UNL     1      40.544 -12.924   4.939  1.00  0.00     0.052 A 
HETATM    6  N   UNL     1      40.274 -13.862   3.975  1.00  0.00    -0.228 NA
HETATM    7  C   UNL     1      41.169 -14.768   3.763  1.00  0.00     0.169 A 
HETATM    8  N   UNL     1      42.329 -14.871   4.463  1.00  0.00    -0.302 N 
HETATM    9  C   UNL     1      42.652 -13.986   5.444  1.00  0.00     0.257 A 
HETATM   10  O   UNL     1      43.676 -14.042   6.109  1.00  0.00    -0.267 OA
HETATM   11  C   UNL     1      39.492 -11.853   5.117  1.00  0.00     0.088 C 
HETATM   12  C   UNL     1      39.715 -10.972   6.351  1.00  0.00     0.241 C 
HETATM   13  H   UNL     1      42.975 -15.620   4.255  1.00  0.00     0.171 HD
ENDROOT
BRANCH   7  14
HETATM   14  S   UNL     1      41.013 -15.972   2.523  1.00  0.00    -0.083 SA
BRANCH  14  15
HETATM   15  C   UNL     1      42.666 -15.827   1.773  1.00  0.00     0.185 C 
BRANCH  15  16
HETATM   16  C   UNL     1      43.504 -17.094   1.850  1.00  0.00     0.231 C 
HETATM   17  N   UNL     1      42.994 -18.097   2.651  1.00  0.00    -0.326 N 
HETATM   18  H   UNL     1      42.168 -17.855   3.189  1.00  0.00     0.169 HD
HETATM   19  O   UNL     1      44.528 -17.170   1.174  1.00  0.00    -0.272 OA
BRANCH  17  20
HETATM   20  C   UNL     1      43.525 -19.388   2.856  1.00  0.00     0.037 A 
HETATM   21  C   UNL     1      44.215 -19.774   4.008  1.00  0.00     0.075 A 
HETATM   22  C   UNL     1      44.711 -21.071   4.120  1.00  0.00     0.157 A 
HETATM   23  F   UNL     1      45.376 -21.425   5.229  1.00  0.00    -0.203 F 
HETATM   24  C   UNL     1      44.527 -21.991   3.097  1.00  0.00     0.155 A 
HETATM   25  F   UNL     1      45.007 -23.237   3.210  1.00  0.00    -0.203 F 
HETATM   26  C   UNL     1      43.843 -21.625   1.945  1.00  0.00     0.048 A 
HETATM   27  C   UNL     1      43.344 -20.324   1.825  1.00  0.00     0.032 A 
ENDBRANCH  17  20
ENDBRANCH  15  16
ENDBRANCH  14  15
ENDBRANCH   7  14
BRANCH   1  28
HETATM   28  C   UNL     1      41.440  -9.529   7.489  1.00  0.00     0.273 C 
BRANCH  28  29
HETATM   29  C   UNL     1      41.649 -10.109   8.863  1.00  0.00    -0.030 A 
HETATM   30  C   UNL     1      42.954 -10.387   9.334  1.00  0.00     0.012 A 
HETATM   31  C   UNL     1      43.162 -10.877  10.628  1.00  0.00     0.040 A 
HETATM   32  C   UNL     1      42.059 -11.076  11.428  1.00  0.00     0.105 A 
HETATM   33  C   UNL     1      40.789 -10.820  10.978  1.00  0.00     0.105 A 
HETATM   34  O   UNL     1      42.074 -11.528  12.709  1.00  0.00    -0.323 OA
HETATM   35  C   UNL     1      40.546 -10.347   9.706  1.00  0.00     0.048 A 
HETATM   36  O   UNL     1      39.843 -11.072  11.920  1.00  0.00    -0.323 OA
HETATM   37  C   UNL     1      40.664 -11.531  13.019  1.00  0.00     0.352 A 
ENDBRANCH  28  29
ENDBRANCH   1  28
TORSDOF 6
ENDMDL
MODEL 10
REMARK VINA RESULT:      -9.0      2.137      2.792
REMARK  6 active torsions:
REMARK  status: ('A' for Active; 'I' for Inactive)
REMARK    1  A    between atoms: C_2  and  C_3 
REMARK    2  A    between atoms: C_3  and  N_4 
REMARK    3  A    between atoms: C_10  and  S_11 
REMARK    4  A    between atoms: S_11  and  C_12 
REMARK    5  A    between atoms: C_12  and  C_13 
REMARK       I    between atoms: C_13  and  N_14 
REMARK    6  A    between atoms: N_14  and  C_15 
ROOT
HETATM    1  N   UNL     1      43.557 -17.873   6.479  1.00  0.00    -0.063 N 
HETATM    2  H   UNL     1      43.171 -17.850   7.431  1.00  0.00     0.280 HD
HETATM    3  C   UNL     1      43.975 -16.443   6.159  1.00  0.00     0.281 C 
HETATM    4  C   UNL     1      42.798 -15.544   6.007  1.00  0.00     0.060 A 
HETATM    5  C   UNL     1      41.533 -15.966   5.860  1.00  0.00     0.052 A 
HETATM    6  N   UNL     1      40.450 -15.124   5.831  1.00  0.00    -0.228 NA
HETATM    7  C   UNL     1      40.679 -13.860   5.958  1.00  0.00     0.169 A 
HETATM    8  N   UNL     1      41.919 -13.317   6.070  1.00  0.00    -0.302 N 
HETATM    9  C   UNL     1      43.038 -14.092   6.087  1.00  0.00     0.257 A 
HETATM   10  O   UNL     1      44.176 -13.653   6.175  1.00  0.00    -0.267 OA
HETATM   11  C   UNL     1      41.214 -17.440   5.760  1.00  0.00     0.088 C 
HETATM   12  C   UNL     1      42.450 -18.323   5.557  1.00  0.00     0.241 C 
HETATM   13  H   UNL     1      42.024 -12.316   6.146  1.00  0.00     0.171 HD
ENDROOT
BRANCH   7  14
HETATM   14  S   UNL     1      39.410 -12.677   6.025  1.00  0.00    -0.083 SA
BRANCH  14  15
HETATM   15  C   UNL     1      40.379 -11.252   6.614  1.00  0.00     0.185 C 
BRANCH  15  16
HETATM   16  C   UNL     1      40.405 -11.091   8.126  1.00  0.00     0.231 C 
HETATM   17  N   UNL     1      41.662 -11.033   8.697  1.00  0.00    -0.326 N 
HETATM   18  H   UNL     1      42.440 -11.207   8.068  1.00  0.00     0.169 HD
HETATM   19  O   UNL     1      39.340 -10.971   8.729  1.00  0.00    -0.272 OA
BRANCH  17  20
HETATM   20  C   UNL     1      41.981 -10.829  10.055  1.00  0.00     0.037 A 
HETATM   21  C   UNL     1      41.128 -11.147  11.115  1.00  0.00     0.075 A 
HETATM   22  C   UNL     1      41.526 -10.903  12.428  1.00  0.00     0.157 A 
HETATM   23  F   UNL     1      40.694 -11.208  13.433  1.00  0.00    -0.203 F 
HETATM   24  C   UNL     1      42.767 -10.345  12.699  1.00  0.00     0.155 A 
HETATM   25  F   UNL     1      43.145 -10.111  13.962  1.00  0.00    -0.203 F 
HETATM   26  C   UNL     1      43.629 -10.022  11.658  1.00  0.00     0.048 A 
HETATM   27  C   UNL     1      43.235 -10.262  10.338  1.00  0.00     0.032 A 
ENDBRANCH  17  20
ENDBRANCH  15  16
ENDBRANCH  14  15
ENDBRANCH   7  14
BRANCH   1  28
HETATM   28  C   UNL     1      44.720 -18.834   6.525  1.00  0.00     0.273 C 
BRANCH  28  29
HETATM   29  C   UNL     1      44.635 -19.890   5.455  1.00  0.00    -0.030 A 
HETATM   30  C   UNL     1      44.645 -21.263   5.798  1.00  0.00     0.012 A 
HETATM   31  C   UNL     1      44.514 -22.250   4.816  1.00  0.00     0.040 A 
HETATM   32  C   UNL     1      44.372 -21.845   3.507  1.00  0.00     0.105 A 
HETATM   33  C   UNL     1      44.372 -20.517   3.162  1.00  0.00     0.105 A 
HETATM   34  O   UNL     1      44.218 -22.659   2.432  1.00  0.00    -0.323 OA
HETATM   35  C   UNL     1      44.509 -19.518   4.103  1.00  0.00     0.048 A 
HETATM   36  O   UNL     1      44.212 -20.326   1.827  1.00  0.00    -0.323 OA
HETATM   37  C   UNL     1      44.122 -21.693   1.363  1.00  0.00     0.352 A 
ENDBRANCH  28  29
ENDBRANCH   1  28
TORSDOF 6
ENDMDL
