MODEL 1
REMARK VINA RESULT:      -9.0      0.000      0.000
REMARK  5 active torsions:
REMARK  status: ('A' for Active; 'I' for Inactive)
REMARK    1  A    between atoms: O_2  and  C_3 
REMARK    2  A    between atoms: C_4  and  O_5 
REMARK    3  A    between atoms: C_10  and  C_11 
REMARK    4  A    between atoms: C_13  and  O_14 
REMARK    5  A    between atoms: O_14  and  C_15 
ROOT
HETATM    1  C   UNL     1      43.438 -15.593   7.134  1.00  0.00     0.102 A 
HETATM    2  C   UNL     1      44.049 -14.341   6.919  1.00  0.00     0.103 A 
HETATM    3  C   UNL     1      43.618 -13.533   5.861  1.00  0.00     0.069 A 
HETATM    4  C   UNL     1      42.573 -13.956   5.039  1.00  0.00     0.044 A 
HETATM    5  C   UNL     1      41.956 -15.192   5.246  1.00  0.00    -0.020 A 
HETATM    6  C   UNL     1      40.873 -15.668   4.302  1.00  0.00     0.063 C 
HETATM    7  C   UNL     1      40.148 -14.493   3.638  1.00  0.00     0.117 C 
HETATM    8  C   UNL     1      41.076 -13.392   3.186  1.00  0.00     0.223 C 
HETATM    9  O   UNL     1      40.819 -12.671   2.224  1.00  0.00    -0.273 OA
HETATM   10  N   UNL     1      42.165 -13.145   3.976  1.00  0.00    -0.327 N 
HETATM   11  C   UNL     1      42.394 -16.008   6.299  1.00  0.00     0.049 A 
HETATM   12  H   UNL     1      42.704 -12.325   3.727  1.00  0.00     0.169 HD
ENDROOT
BRANCH   6  13
HETATM   13  C   UNL     1      41.367 -16.681   3.275  1.00  0.00    -0.046 A 
HETATM   14  C   UNL     1      42.608 -17.323   3.410  1.00  0.00     0.045 A 
HETATM   15  C   UNL     1      43.100 -18.151   2.395  1.00  0.00     0.076 A 
HETATM   16  C   UNL     1      42.312 -18.427   1.280  1.00  0.00     0.037 A 
HETATM   17  C   UNL     1      41.058 -17.832   1.151  1.00  0.00     0.003 A 
HETATM   18  C   UNL     1      40.595 -16.953   2.134  1.00  0.00     0.008 A 
BRANCH  15  19
HETATM   19  O   UNL     1      44.331 -18.766   2.448  1.00  0.00    -0.311 OA
BRANCH  19  20
HETATM   20  C   UNL     1      44.443 -19.966   3.116  1.00  0.00     0.076 A 
HETATM   21  C   UNL     1      44.343 -21.121   2.337  1.00  0.00     0.037 A 
HETATM   22  C   UNL     1      44.445 -22.379   2.933  1.00  0.00     0.003 A 
HETATM   23  C   UNL     1      44.653 -22.484   4.308  1.00  0.00     0.000 A 
HETATM   24  C   UNL     1      44.782 -21.333   5.085  1.00  0.00     0.003 A 
HETATM   25  C   UNL     1      44.700 -20.074   4.487  1.00  0.00     0.037 A 
ENDBRANCH  19  20
ENDBRANCH  15  19
ENDBRANCH   6  13
BRANCH   1  26
HETATM   26  O   UNL     1      43.912 -16.330   8.191  1.00  0.00    -0.353 OA
HETATM   27  C   UNL     1      43.539 -17.700   8.241  1.00  0.00     0.210 C 
ENDBRANCH   1  26
BRANCH   2  28
HETATM   28  O   UNL     1      45.058 -14.010   7.790  1.00  0.00    -0.353 OA
HETATM   29  C   UNL     1      44.953 -12.779   8.489  1.00  0.00     0.210 C 
ENDBRANCH   2  28
TORSDOF 5
ENDMDL
MODEL 2
REMARK VINA RESULT:      -8.5      1.819      4.695
REMARK  5 active torsions:
REMARK  status: ('A' for Active; 'I' for Inactive)
REMARK    1  A    between atoms: O_2  and  C_3 
REMARK    2  A    between atoms: C_4  and  O_5 
REMARK    3  A    between atoms: C_10  and  C_11 
REMARK    4  A    between atoms: C_13  and  O_14 
REMARK    5  A    between atoms: O_14  and  C_15 
ROOT
HETATM    1  C   UNL     1      41.371 -13.583   3.957  1.00  0.00     0.102 A 
HETATM    2  C   UNL     1      40.855 -12.618   4.845  1.00  0.00     0.103 A 
HETATM    3  C   UNL     1      41.528 -12.348   6.042  1.00  0.00     0.069 A 
HETATM    4  C   UNL     1      42.716 -13.017   6.342  1.00  0.00     0.044 A 
HETATM    5  C   UNL     1      43.240 -13.971   5.467  1.00  0.00    -0.020 A 
HETATM    6  C   UNL     1      44.489 -14.740   5.840  1.00  0.00     0.063 C 
HETATM    7  C   UNL     1      45.373 -13.944   6.805  1.00  0.00     0.117 C 
HETATM    8  C   UNL     1      44.596 -13.245   7.893  1.00  0.00     0.223 C 
HETATM    9  O   UNL     1      45.076 -13.023   9.004  1.00  0.00    -0.273 OA
HETATM   10  N   UNL     1      43.368 -12.750   7.550  1.00  0.00    -0.327 N 
HETATM   11  C   UNL     1      42.560 -14.250   4.272  1.00  0.00     0.049 A 
HETATM   12  H   UNL     1      42.918 -12.178   8.253  1.00  0.00     0.169 HD
ENDROOT
BRANCH   6  13
HETATM   13  C   UNL     1      44.204 -16.144   6.360  1.00  0.00    -0.046 A 
HETATM   14  C   UNL     1      44.797 -17.279   5.785  1.00  0.00     0.045 A 
HETATM   15  C   UNL     1      44.426 -18.565   6.191  1.00  0.00     0.076 A 
HETATM   16  C   UNL     1      43.532 -18.729   7.247  1.00  0.00     0.037 A 
HETATM   17  C   UNL     1      42.966 -17.612   7.859  1.00  0.00     0.003 A 
HETATM   18  C   UNL     1      43.287 -16.329   7.409  1.00  0.00     0.008 A 
BRANCH  15  19
HETATM   19  O   UNL     1      44.934 -19.715   5.630  1.00  0.00    -0.311 OA
BRANCH  19  20
HETATM   20  C   UNL     1      44.505 -20.084   4.373  1.00  0.00     0.076 A 
HETATM   21  C   UNL     1      44.770 -21.402   3.991  1.00  0.00     0.037 A 
HETATM   22  C   UNL     1      44.370 -21.860   2.735  1.00  0.00     0.003 A 
HETATM   23  C   UNL     1      43.700 -21.004   1.861  1.00  0.00     0.000 A 
HETATM   24  C   UNL     1      43.409 -19.697   2.251  1.00  0.00     0.003 A 
HETATM   25  C   UNL     1      43.791 -19.244   3.514  1.00  0.00     0.037 A 
ENDBRANCH  19  20
ENDBRANCH  15  19
ENDBRANCH   6  13
BRANCH   1  26
HETATM   26  O   UNL     1      40.658 -13.792   2.803  1.00  0.00    -0.353 OA
HETATM   27  C   UNL     1      40.017 -15.052   2.660  1.00  0.00     0.210 C 
ENDBRANCH   1  26
BRANCH   2  28
HETATM   28  O   UNL     1      39.690 -12.005   4.454  1.00  0.00    -0.353 OA
HETATM   29  C   UNL     1      39.585 -10.601   4.636  1.00  0.00     0.210 C 
ENDBRANCH   2  28
TORSDOF 5
ENDMDL
MODEL 3
REMARK VINA RESULT:      -8.4      2.234      7.821
REMARK  5 active torsions:
REMARK  status: ('A' for Active; 'I' for Inactive)
REMARK    1  A    between atoms: O_2  and  C_3 
REMARK    2  A    between atoms: C_4  and  O_5 
REMARK    3  A    between atoms: C_10  and  C_11 
REMARK    4  A    between atoms: C_13  and  O_14 
REMARK    5  A    between atoms: O_14  and  C_15 
ROOT
HETATM    1  C   UNL     1      42.791 -18.737   2.856  1.00  0.00     0.102 A 
HETATM    2  C   UNL     1      43.887 -19.599   3.060  1.00  0.00     0.103 A 
HETATM    3  C   UNL     1      44.460 -19.701   4.333  1.00  0.00     0.069 A 
HETATM    4  C   UNL     1      43.933 -18.969   5.397  1.00  0.00     0.044 A 
HETATM    5  C   UNL     1      42.843 -18.116   5.208  1.00  0.00    -0.020 A 
HETATM    6  C   UNL     1      42.329 -17.275   6.357  1.00  0.00     0.063 C 
HETATM    7  C   UNL     1      42.636 -17.922   7.711  1.00  0.00     0.117 C 
HETATM    8  C   UNL     1      44.025 -18.503   7.799  1.00  0.00     0.223 C 
HETATM    9  O   UNL     1      44.641 -18.573   8.861  1.00  0.00    -0.273 OA
HETATM   10  N   UNL     1      44.527 -19.068   6.659  1.00  0.00    -0.327 N 
HETATM   11  C   UNL     1      42.275 -18.005   3.931  1.00  0.00     0.049 A 
HETATM   12  H   UNL     1      45.405 -19.562   6.770  1.00  0.00     0.169 HD
ENDROOT
BRANCH   6  13
HETATM   13  C   UNL     1      42.798 -15.825   6.303  1.00  0.00    -0.046 A 
HETATM   14  C   UNL     1      43.992 -15.413   6.917  1.00  0.00     0.045 A 
HETATM   15  C   UNL     1      44.341 -14.059   6.967  1.00  0.00     0.076 A 
HETATM   16  C   UNL     1      43.551 -13.113   6.318  1.00  0.00     0.037 A 
HETATM   17  C   UNL     1      42.384 -13.511   5.667  1.00  0.00     0.003 A 
HETATM   18  C   UNL     1      42.002 -14.855   5.673  1.00  0.00     0.008 A 
BRANCH  15  19
HETATM   19  O   UNL     1      45.471 -13.590   7.598  1.00  0.00    -0.311 OA
BRANCH  19  20
HETATM   20  C   UNL     1      45.327 -12.694   8.636  1.00  0.00     0.076 A 
HETATM   21  C   UNL     1      44.417 -13.047   9.635  1.00  0.00     0.037 A 
HETATM   22  C   UNL     1      44.209 -12.198  10.724  1.00  0.00     0.003 A 
HETATM   23  C   UNL     1      44.913 -10.998  10.817  1.00  0.00     0.000 A 
HETATM   24  C   UNL     1      45.843 -10.656   9.835  1.00  0.00     0.003 A 
HETATM   25  C   UNL     1      46.067 -11.514   8.757  1.00  0.00     0.037 A 
ENDBRANCH  19  20
ENDBRANCH  15  19
ENDBRANCH   6  13
BRANCH   1  26
HETATM   26  O   UNL     1      42.281 -18.690   1.582  1.00  0.00    -0.353 OA
HETATM   27  C   UNL     1      41.650 -17.481   1.185  1.00  0.00     0.210 C 
ENDBRANCH   1  26
BRANCH   2  28
HETATM   28  O   UNL     1      44.324 -20.285   1.954  1.00  0.00    -0.353 OA
HETATM   29  C   UNL     1      44.118 -21.690   1.921  1.00  0.00     0.210 C 
ENDBRANCH   2  28
TORSDOF 5
ENDMDL
MODEL 4
REMARK VINA RESULT:      -8.3      2.601      5.529
REMARK  5 active torsions:
REMARK  status: ('A' for Active; 'I' for Inactive)
REMARK    1  A    between atoms: O_2  and  C_3 
REMARK    2  A    between atoms: C_4  and  O_5 
REMARK    3  A    between atoms: C_10  and  C_11 
REMARK    4  A    between atoms: C_13  and  O_14 
REMARK    5  A    between atoms: O_14  and  C_15 
ROOT
HETATM    1  C   UNL     1      40.642 -14.921  -0.629  1.00  0.00     0.102 A 
HETATM    2  C   UNL     1      39.600 -14.008  -0.371  1.00  0.00     0.103 A 
HETATM    3  C   UNL     1      39.603 -13.272   0.819  1.00  0.00     0.069 A 
HETATM    4  C   UNL     1      40.645 -13.428   1.734  1.00  0.00     0.044 A 
HETATM    5  C   UNL     1      41.686 -14.325   1.487  1.00  0.00    -0.020 A 
HETATM    6  C   UNL     1      42.770 -14.535   2.521  1.00  0.00     0.063 C 
HETATM    7  C   UNL     1      42.950 -13.300   3.408  1.00  0.00     0.117 C 
HETATM    8  C   UNL     1      41.646 -12.672   3.836  1.00  0.00     0.223 C 
HETATM    9  O   UNL     1      41.528 -12.063   4.898  1.00  0.00    -0.273 OA
HETATM   10  N   UNL     1      40.625 -12.699   2.927  1.00  0.00    -0.327 N 
HETATM   11  C   UNL     1      41.679 -15.071   0.299  1.00  0.00     0.049 A 
HETATM   12  H   UNL     1      39.802 -12.166   3.183  1.00  0.00     0.169 HD
ENDROOT
BRANCH   6  13
HETATM   13  C   UNL     1      42.581 -15.802   3.349  1.00  0.00    -0.046 A 
HETATM   14  C   UNL     1      43.659 -16.642   3.669  1.00  0.00     0.045 A 
HETATM   15  C   UNL     1      43.448 -17.863   4.318  1.00  0.00     0.076 A 
HETATM   16  C   UNL     1      42.167 -18.212   4.743  1.00  0.00     0.037 A 
HETATM   17  C   UNL     1      41.091 -17.369   4.471  1.00  0.00     0.003 A 
HETATM   18  C   UNL     1      41.294 -16.180   3.765  1.00  0.00     0.008 A 
BRANCH  15  19
HETATM   19  O   UNL     1      44.458 -18.751   4.613  1.00  0.00    -0.311 OA
BRANCH  19  20
HETATM   20  C   UNL     1      44.445 -19.992   4.014  1.00  0.00     0.076 A 
HETATM   21  C   UNL     1      44.090 -20.023   2.663  1.00  0.00     0.037 A 
HETATM   22  C   UNL     1      44.051 -21.238   1.977  1.00  0.00     0.003 A 
HETATM   23  C   UNL     1      44.371 -22.424   2.639  1.00  0.00     0.000 A 
HETATM   24  C   UNL     1      44.754 -22.392   3.980  1.00  0.00     0.003 A 
HETATM   25  C   UNL     1      44.813 -21.175   4.661  1.00  0.00     0.037 A 
ENDBRANCH  19  20
ENDBRANCH  15  19
ENDBRANCH   6  13
BRANCH   1  26
HETATM   26  O   UNL     1      40.574 -15.605  -1.818  1.00  0.00    -0.353 OA
HETATM   27  C   UNL     1      41.368 -15.117  -2.890  1.00  0.00     0.210 C 
ENDBRANCH   1  26
BRANCH   2  28
HETATM   28  O   UNL     1      38.630 -13.917  -1.339  1.00  0.00    -0.353 OA
HETATM   29  C   UNL     1      38.529 -12.701  -2.065  1.00  0.00     0.210 C 
ENDBRANCH   2  28
TORSDOF 5
ENDMDL
MODEL 5
REMARK VINA RESULT:      -8.2      2.393      4.114
REMARK  5 active torsions:
REMARK  status: ('A' for Active; 'I' for Inactive)
REMARK    1  A    between atoms: O_2  and  C_3 
REMARK    2  A    between atoms: C_4  and  O_5 
REMARK    3  A    between atoms: C_10  and  C_11 
REMARK    4  A    between atoms: C_13  and  O_14 
REMARK    5  A    between atoms: O_14  and  C_15 
ROOT
HETATM    1  C   UNL     1      39.742 -12.974   4.912  1.00  0.00     0.102 A 
HETATM    2  C   UNL     1      40.400 -12.192   3.943  1.00  0.00     0.103 A 
HETATM    3  C   UNL     1      41.169 -12.817   2.954  1.00  0.00     0.069 A 
HETATM    4  C   UNL     1      41.262 -14.209   2.917  1.00  0.00     0.044 A 
HETATM    5  C   UNL     1      40.609 -14.994   3.870  1.00  0.00    -0.020 A 
HETATM    6  C   UNL     1      40.780 -16.498   3.860  1.00  0.00     0.063 C 
HETATM    7  C   UNL     1      41.109 -17.019   2.458  1.00  0.00     0.117 C 
HETATM    8  C   UNL     1      42.114 -16.167   1.721  1.00  0.00     0.223 C 
HETATM    9  O   UNL     1      42.882 -16.635   0.882  1.00  0.00    -0.273 OA
HETATM   10  N   UNL     1      42.048 -14.818   1.934  1.00  0.00    -0.327 N 
HETATM   11  C   UNL     1      39.848 -14.369   4.868  1.00  0.00     0.049 A 
HETATM   12  H   UNL     1      42.643 -14.254   1.339  1.00  0.00     0.169 HD
ENDROOT
BRANCH   6  13
HETATM   13  C   UNL     1      41.776 -17.002   4.899  1.00  0.00    -0.046 A 
HETATM   14  C   UNL     1      42.955 -17.667   4.528  1.00  0.00     0.045 A 
HETATM   15  C   UNL     1      43.791 -18.234   5.495  1.00  0.00     0.076 A 
HETATM   16  C   UNL     1      43.510 -18.056   6.848  1.00  0.00     0.037 A 
HETATM   17  C   UNL     1      42.365 -17.362   7.234  1.00  0.00     0.003 A 
HETATM   18  C   UNL     1      41.496 -16.852   6.267  1.00  0.00     0.008 A 
BRANCH  15  19
HETATM   19  O   UNL     1      44.934 -18.941   5.191  1.00  0.00    -0.311 OA
BRANCH  19  20
HETATM   20  C   UNL     1      44.815 -20.123   4.493  1.00  0.00     0.076 A 
HETATM   21  C   UNL     1      44.772 -21.291   5.258  1.00  0.00     0.037 A 
HETATM   22  C   UNL     1      44.652 -22.534   4.632  1.00  0.00     0.003 A 
HETATM   23  C   UNL     1      44.571 -22.609   3.241  1.00  0.00     0.000 A 
HETATM   24  C   UNL     1      44.585 -21.443   2.478  1.00  0.00     0.003 A 
HETATM   25  C   UNL     1      44.684 -20.199   3.103  1.00  0.00     0.037 A 
ENDBRANCH  19  20
ENDBRANCH  15  19
ENDBRANCH   6  13
BRANCH   1  26
HETATM   26  O   UNL     1      39.006 -12.292   5.850  1.00  0.00    -0.353 OA
HETATM   27  C   UNL     1      39.389 -12.448   7.209  1.00  0.00     0.210 C 
ENDBRANCH   1  26
BRANCH   2  28
HETATM   28  O   UNL     1      40.235 -10.833   4.057  1.00  0.00    -0.353 OA
HETATM   29  C   UNL     1      40.200 -10.067   2.861  1.00  0.00     0.210 C 
ENDBRANCH   2  28
TORSDOF 5
ENDMDL
MODEL 6
REMARK VINA RESULT:      -8.2      3.146      6.278
REMARK  5 active torsions:
REMARK  status: ('A' for Active; 'I' for Inactive)
REMARK    1  A    between atoms: O_2  and  C_3 
REMARK    2  A    between atoms: C_4  and  O_5 
REMARK    3  A    between atoms: C_10  and  C_11 
REMARK    4  A    between atoms: C_13  and  O_14 
REMARK    5  A    between atoms: O_14  and  C_15 
ROOT
HETATM    1  C   UNL     1      43.694 -16.163   6.285  1.00  0.00     0.102 A 
HETATM    2  C   UNL     1      43.549 -17.475   6.778  1.00  0.00     0.103 A 
HETATM    3  C   UNL     1      43.434 -18.543   5.882  1.00  0.00     0.069 A 
HETATM    4  C   UNL     1      43.484 -18.310   4.507  1.00  0.00     0.044 A 
HETATM    5  C   UNL     1      43.633 -17.015   4.006  1.00  0.00    -0.020 A 
HETATM    6  C   UNL     1      43.613 -16.770   2.513  1.00  0.00     0.063 C 
HETATM    7  C   UNL     1      44.074 -18.005   1.733  1.00  0.00     0.117 C 
HETATM    8  C   UNL     1      43.510 -19.299   2.267  1.00  0.00     0.223 C 
HETATM    9  O   UNL     1      43.306 -20.273   1.546  1.00  0.00    -0.273 OA
HETATM   10  N   UNL     1      43.350 -19.385   3.623  1.00  0.00    -0.327 N 
HETATM   11  C   UNL     1      43.737 -15.942   4.904  1.00  0.00     0.049 A 
HETATM   12  H   UNL     1      43.090 -20.300   3.972  1.00  0.00     0.169 HD
ENDROOT
BRANCH   6  13
HETATM   13  C   UNL     1      42.275 -16.246   2.002  1.00  0.00    -0.046 A 
HETATM   14  C   UNL     1      42.179 -15.496   0.820  1.00  0.00     0.045 A 
HETATM   15  C   UNL     1      40.965 -14.917   0.436  1.00  0.00     0.076 A 
HETATM   16  C   UNL     1      39.811 -15.165   1.176  1.00  0.00     0.037 A 
HETATM   17  C   UNL     1      39.880 -15.944   2.330  1.00  0.00     0.003 A 
HETATM   18  C   UNL     1      41.106 -16.468   2.749  1.00  0.00     0.008 A 
BRANCH  15  19
HETATM   19  O   UNL     1      40.821 -14.129  -0.685  1.00  0.00    -0.311 OA
BRANCH  19  20
HETATM   20  C   UNL     1      40.118 -14.630  -1.760  1.00  0.00     0.076 A 
HETATM   21  C   UNL     1      38.893 -14.019  -2.037  1.00  0.00     0.037 A 
HETATM   22  C   UNL     1      38.116 -14.463  -3.108  1.00  0.00     0.003 A 
HETATM   23  C   UNL     1      38.565 -15.515  -3.907  1.00  0.00     0.000 A 
HETATM   24  C   UNL     1      39.800 -16.109  -3.649  1.00  0.00     0.003 A 
HETATM   25  C   UNL     1      40.587 -15.652  -2.591  1.00  0.00     0.037 A 
ENDBRANCH  19  20
ENDBRANCH  15  19
ENDBRANCH   6  13
BRANCH   1  26
HETATM   26  O   UNL     1      43.802 -15.167   7.223  1.00  0.00    -0.353 OA
HETATM   27  C   UNL     1      44.667 -14.083   6.916  1.00  0.00     0.210 C 
ENDBRANCH   1  26
BRANCH   2  28
HETATM   28  O   UNL     1      43.524 -17.602   8.145  1.00  0.00    -0.353 OA
HETATM   29  C   UNL     1      44.280 -18.654   8.728  1.00  0.00     0.210 C 
ENDBRANCH   2  28
TORSDOF 5
ENDMDL
MODEL 7
REMARK VINA RESULT:      -8.0      2.264      5.508
REMARK  5 active torsions:
REMARK  status: ('A' for Active; 'I' for Inactive)
REMARK    1  A    between atoms: O_2  and  C_3 
REMARK    2  A    between atoms: C_4  and  O_5 
REMARK    3  A    between atoms: C_10  and  C_11 
REMARK    4  A    between atoms: C_13  and  O_14 
REMARK    5  A    between atoms: O_14  and  C_15 
ROOT
HETATM    1  C   UNL     1      41.304 -13.923   1.076  1.00  0.00     0.102 A 
HETATM    2  C   UNL     1      39.903 -13.984   1.214  1.00  0.00     0.103 A 
HETATM    3  C   UNL     1      39.316 -13.693   2.451  1.00  0.00     0.069 A 
HETATM    4  C   UNL     1      40.115 -13.322   3.533  1.00  0.00     0.044 A 
HETATM    5  C   UNL     1      41.504 -13.253   3.407  1.00  0.00    -0.020 A 
HETATM    6  C   UNL     1      42.361 -12.921   4.609  1.00  0.00     0.063 C 
HETATM    7  C   UNL     1      41.592 -12.085   5.636  1.00  0.00     0.117 C 
HETATM    8  C   UNL     1      40.177 -12.559   5.859  1.00  0.00     0.223 C 
HETATM    9  O   UNL     1      39.597 -12.413   6.933  1.00  0.00    -0.273 OA
HETATM   10  N   UNL     1      39.516 -13.052   4.767  1.00  0.00    -0.327 N 
HETATM   11  C   UNL     1      42.094 -13.556   2.171  1.00  0.00     0.049 A 
HETATM   12  H   UNL     1      38.532 -13.247   4.907  1.00  0.00     0.169 HD
ENDROOT
BRANCH   6  13
HETATM   13  C   UNL     1      43.010 -14.144   5.248  1.00  0.00    -0.046 A 
HETATM   14  C   UNL     1      42.560 -15.445   4.974  1.00  0.00     0.045 A 
HETATM   15  C   UNL     1      43.081 -16.544   5.665  1.00  0.00     0.076 A 
HETATM   16  C   UNL     1      44.129 -16.364   6.566  1.00  0.00     0.037 A 
HETATM   17  C   UNL     1      44.617 -15.083   6.819  1.00  0.00     0.003 A 
HETATM   18  C   UNL     1      44.051 -13.980   6.176  1.00  0.00     0.008 A 
BRANCH  15  19
HETATM   19  O   UNL     1      42.645 -17.836   5.477  1.00  0.00    -0.311 OA
BRANCH  19  20
HETATM   20  C   UNL     1      43.241 -18.600   4.497  1.00  0.00     0.076 A 
HETATM   21  C   UNL     1      44.170 -19.549   4.931  1.00  0.00     0.037 A 
HETATM   22  C   UNL     1      44.822 -20.365   4.005  1.00  0.00     0.003 A 
HETATM   23  C   UNL     1      44.542 -20.237   2.644  1.00  0.00     0.000 A 
HETATM   24  C   UNL     1      43.595 -19.311   2.210  1.00  0.00     0.003 A 
HETATM   25  C   UNL     1      42.928 -18.508   3.137  1.00  0.00     0.037 A 
ENDBRANCH  19  20
ENDBRANCH  15  19
ENDBRANCH   6  13
BRANCH   1  26
HETATM   26  O   UNL     1      41.808 -14.220  -0.167  1.00  0.00    -0.353 OA
HETATM   27  C   UNL     1      42.146 -13.124  -1.004  1.00  0.00     0.210 C 
ENDBRANCH   1  26
BRANCH   2  28
HETATM   28  O   UNL     1      39.205 -14.344   0.088  1.00  0.00    -0.353 OA
HETATM   29  C   UNL     1      38.074 -13.564  -0.270  1.00  0.00     0.210 C 
ENDBRANCH   2  28
TORSDOF 5
ENDMDL
MODEL 8
REMARK VINA RESULT:      -7.6      2.000      4.913
REMARK  5 active torsions:
REMARK  status: ('A' for Active; 'I' for Inactive)
REMARK    1  A    between atoms: O_2  and  C_3 
REMARK    2  A    between atoms: C_4  and  O_5 
REMARK    3  A    between atoms: C_10  and  C_11 
REMARK    4  A    between atoms: C_13  and  O_14 
REMARK    5  A    between atoms: O_14  and  C_15 
ROOT
HETATM    1  C   UNL     1      40.648 -12.454   0.572  1.00  0.00     0.102 A 
HETATM    2  C   UNL     1      39.867 -11.905   1.608  1.00  0.00     0.103 A 
HETATM    3  C   UNL     1      40.186 -12.191   2.941  1.00  0.00     0.069 A 
HETATM    4  C   UNL     1      41.287 -12.997   3.238  1.00  0.00     0.044 A 
HETATM    5  C   UNL     1      42.071 -13.541   2.219  1.00  0.00    -0.020 A 
HETATM    6  C   UNL     1      43.216 -14.471   2.556  1.00  0.00     0.063 C 
HETATM    7  C   UNL     1      43.772 -14.196   3.957  1.00  0.00     0.117 C 
HETATM    8  C   UNL     1      42.701 -13.955   4.992  1.00  0.00     0.223 C 
HETATM    9  O   UNL     1      42.859 -14.237   6.178  1.00  0.00    -0.273 OA
HETATM   10  N   UNL     1      41.583 -13.288   4.574  1.00  0.00    -0.327 N 
HETATM   11  C   UNL     1      41.745 -13.264   0.883  1.00  0.00     0.049 A 
HETATM   12  H   UNL     1      40.934 -13.026   5.306  1.00  0.00     0.169 HD
ENDROOT
BRANCH   6  13
HETATM   13  C   UNL     1      42.878 -15.945   2.361  1.00  0.00    -0.046 A 
HETATM   14  C   UNL     1      43.875 -16.932   2.323  1.00  0.00     0.045 A 
HETATM   15  C   UNL     1      43.558 -18.259   2.015  1.00  0.00     0.076 A 
HETATM   16  C   UNL     1      42.227 -18.633   1.842  1.00  0.00     0.037 A 
HETATM   17  C   UNL     1      41.219 -17.673   1.919  1.00  0.00     0.003 A 
HETATM   18  C   UNL     1      41.543 -16.336   2.161  1.00  0.00     0.008 A 
BRANCH  15  19
HETATM   19  O   UNL     1      44.497 -19.261   1.914  1.00  0.00    -0.311 OA
BRANCH  19  20
HETATM   20  C   UNL     1      44.558 -20.215   2.906  1.00  0.00     0.076 A 
HETATM   21  C   UNL     1      44.508 -21.547   2.487  1.00  0.00     0.037 A 
HETATM   22  C   UNL     1      44.564 -22.578   3.426  1.00  0.00     0.003 A 
HETATM   23  C   UNL     1      44.674 -22.280   4.785  1.00  0.00     0.000 A 
HETATM   24  C   UNL     1      44.752 -20.952   5.203  1.00  0.00     0.003 A 
HETATM   25  C   UNL     1      44.717 -19.920   4.263  1.00  0.00     0.037 A 
ENDBRANCH  19  20
ENDBRANCH  15  19
ENDBRANCH   6  13
BRANCH   1  26
HETATM   26  O   UNL     1      40.276 -12.128  -0.710  1.00  0.00    -0.353 OA
HETATM   27  C   UNL     1      40.058 -13.204  -1.611  1.00  0.00     0.210 C 
ENDBRANCH   1  26
BRANCH   2  28
HETATM   28  O   UNL     1      38.816 -11.115   1.213  1.00  0.00    -0.353 OA
HETATM   29  C   UNL     1      38.743  -9.798   1.737  1.00  0.00     0.210 C 
ENDBRANCH   2  28
TORSDOF 5
ENDMDL
MODEL 9
REMARK VINA RESULT:      -7.5      3.569      6.684
REMARK  5 active torsions:
REMARK  status: ('A' for Active; 'I' for Inactive)
REMARK    1  A    between atoms: O_2  and  C_3 
REMARK    2  A    between atoms: C_4  and  O_5 
REMARK    3  A    between atoms: C_10  and  C_11 
REMARK    4  A    between atoms: C_13  and  O_14 
REMARK    5  A    between atoms: O_14  and  C_15 
ROOT
HETATM    1  C   UNL     1      39.604 -14.553  -2.657  1.00  0.00     0.102 A 
HETATM    2  C   UNL     1      38.469 -13.861  -2.188  1.00  0.00     0.103 A 
HETATM    3  C   UNL     1      38.464 -13.341  -0.889  1.00  0.00     0.069 A 
HETATM    4  C   UNL     1      39.587 -13.488  -0.073  1.00  0.00     0.044 A 
HETATM    5  C   UNL     1      40.719 -14.167  -0.529  1.00  0.00    -0.020 A 
HETATM    6  C   UNL     1      41.899 -14.381   0.393  1.00  0.00     0.063 C 
HETATM    7  C   UNL     1      41.976 -13.297   1.471  1.00  0.00     0.117 C 
HETATM    8  C   UNL     1      40.636 -12.950   2.072  1.00  0.00     0.223 C 
HETATM    9  O   UNL     1      40.520 -12.550   3.229  1.00  0.00    -0.273 OA
HETATM   10  N   UNL     1      39.560 -12.979   1.229  1.00  0.00    -0.327 N 
HETATM   11  C   UNL     1      40.721 -14.698  -1.827  1.00  0.00     0.049 A 
HETATM   12  H   UNL     1      38.695 -12.624   1.618  1.00  0.00     0.169 HD
ENDROOT
BRANCH   6  13
HETATM   13  C   UNL     1      41.952 -15.782   0.995  1.00  0.00    -0.046 A 
HETATM   14  C   UNL     1      43.140 -16.314   1.520  1.00  0.00     0.045 A 
HETATM   15  C   UNL     1      43.199 -17.644   1.950  1.00  0.00     0.076 A 
HETATM   16  C   UNL     1      42.046 -18.426   1.953  1.00  0.00     0.037 A 
HETATM   17  C   UNL     1      40.848 -17.899   1.473  1.00  0.00     0.003 A 
HETATM   18  C   UNL     1      40.805 -16.592   0.984  1.00  0.00     0.008 A 
BRANCH  15  19
HETATM   19  O   UNL     1      44.347 -18.237   2.428  1.00  0.00    -0.311 OA
BRANCH  19  20
HETATM   20  C   UNL     1      44.352 -19.599   2.634  1.00  0.00     0.076 A 
HETATM   21  C   UNL     1      44.694 -20.029   3.918  1.00  0.00     0.037 A 
HETATM   22  C   UNL     1      44.724 -21.393   4.215  1.00  0.00     0.003 A 
HETATM   23  C   UNL     1      44.408 -22.329   3.229  1.00  0.00     0.000 A 
HETATM   24  C   UNL     1      44.038 -21.901   1.955  1.00  0.00     0.003 A 
HETATM   25  C   UNL     1      43.988 -20.537   1.663  1.00  0.00     0.037 A 
ENDBRANCH  19  20
ENDBRANCH  15  19
ENDBRANCH   6  13
BRANCH   1  26
HETATM   26  O   UNL     1      39.537 -15.033  -3.942  1.00  0.00    -0.353 OA
HETATM   27  C   UNL     1      39.101 -16.375  -4.107  1.00  0.00     0.210 C 
ENDBRANCH   1  26
BRANCH   2  28
HETATM   28  O   UNL     1      37.423 -13.758  -3.071  1.00  0.00    -0.353 OA
HETATM   29  C   UNL     1      37.068 -12.461  -3.530  1.00  0.00     0.210 C 
ENDBRANCH   2  28
TORSDOF 5
ENDMDL
MODEL 10
REMARK VINA RESULT:      -7.4      4.035      6.379
REMARK  5 active torsions:
REMARK  status: ('A' for Active; 'I' for Inactive)
REMARK    1  A    between atoms: O_2  and  C_3 
REMARK    2  A    between atoms: C_4  and  O_5 
REMARK    3  A    between atoms: C_10  and  C_11 
REMARK    4  A    between atoms: C_13  and  O_14 
REMARK    5  A    between atoms: O_14  and  C_15 
ROOT
HETATM    1  C   UNL     1      41.809 -10.240   0.158  1.00  0.00     0.102 A 
HETATM    2  C   UNL     1      42.848 -10.230  -0.794  1.00  0.00     0.103 A 
HETATM    3  C   UNL     1      42.990 -11.308  -1.675  1.00  0.00     0.069 A 
HETATM    4  C   UNL     1      42.093 -12.376  -1.623  1.00  0.00     0.044 A 
HETATM    5  C   UNL     1      41.056 -12.394  -0.686  1.00  0.00    -0.020 A 
HETATM    6  C   UNL     1      40.137 -13.593  -0.595  1.00  0.00     0.063 C 
HETATM    7  C   UNL     1      40.044 -14.336  -1.931  1.00  0.00     0.117 C 
HETATM    8  C   UNL     1      41.375 -14.490  -2.626  1.00  0.00     0.223 C 
HETATM    9  O   UNL     1      41.622 -15.441  -3.366  1.00  0.00    -0.273 OA
HETATM   10  N   UNL     1      42.258 -13.454  -2.497  1.00  0.00    -0.327 N 
HETATM   11  C   UNL     1      40.920 -11.319   0.204  1.00  0.00     0.049 A 
HETATM   12  H   UNL     1      43.091 -13.520  -3.070  1.00  0.00     0.169 HD
ENDROOT
BRANCH   6  13
HETATM   13  C   UNL     1      40.481 -14.535   0.554  1.00  0.00    -0.046 A 
HETATM   14  C   UNL     1      41.811 -14.835   0.888  1.00  0.00     0.045 A 
HETATM   15  C   UNL     1      42.106 -15.798   1.858  1.00  0.00     0.076 A 
HETATM   16  C   UNL     1      41.074 -16.399   2.577  1.00  0.00     0.037 A 
HETATM   17  C   UNL     1      39.748 -16.081   2.287  1.00  0.00     0.003 A 
HETATM   18  C   UNL     1      39.453 -15.167   1.273  1.00  0.00     0.008 A 
BRANCH  15  19
HETATM   19  O   UNL     1      43.388 -16.171   2.193  1.00  0.00    -0.311 OA
BRANCH  19  20
HETATM   20  C   UNL     1      43.620 -17.476   2.574  1.00  0.00     0.076 A 
HETATM   21  C   UNL     1      43.623 -18.428   1.552  1.00  0.00     0.037 A 
HETATM   22  C   UNL     1      43.850 -19.773   1.849  1.00  0.00     0.003 A 
HETATM   23  C   UNL     1      44.079 -20.167   3.167  1.00  0.00     0.000 A 
HETATM   24  C   UNL     1      44.105 -19.215   4.186  1.00  0.00     0.003 A 
HETATM   25  C   UNL     1      43.898 -17.867   3.887  1.00  0.00     0.037 A 
ENDBRANCH  19  20
ENDBRANCH  15  19
ENDBRANCH   6  13
BRANCH   1  26
HETATM   26  O   UNL     1      41.731  -9.148   0.988  1.00  0.00    -0.353 OA
HETATM   27  C   UNL     1      40.615  -8.286   0.815  1.00  0.00     0.210 C 
ENDBRANCH   1  26
BRANCH   2  28
HETATM   28  O   UNL     1      43.668  -9.129  -0.774  1.00  0.00    -0.353 OA
HETATM   29  C   UNL     1      43.501  -8.159  -1.797  1.00  0.00     0.210 C 
ENDBRANCH   2  28
TORSDOF 5
ENDMDL
