MODEL 1
REMARK VINA RESULT:      -8.4      0.000      0.000
REMARK  7 active torsions:
REMARK  status: ('A' for Active; 'I' for Inactive)
REMARK    1  A    between atoms: C_2  and  C_3 
REMARK    2  A    between atoms: C_6  and  O_7 
REMARK    3  A    between atoms: O_7  and  C_8 
REMARK    4  A    between atoms: C_8  and  C_9 
REMARK    5  A    between atoms: C_9  and  C_10 
REMARK       I    between atoms: C_10  and  N_11 
REMARK    6  A    between atoms: N_11  and  C_12 
REMARK    7  A    between atoms: C_19  and  C_20 
REMARK       I    between atoms: C_20  and  N_21 
ROOT
HETATM    1  C   UNL     1      40.553 -14.856   3.965  1.00  0.00     0.224 C 
HETATM    2  N   UNL     1      40.113 -15.533   2.843  1.00  0.00    -0.327 N 
HETATM    3  O   UNL     1      40.594 -13.639   4.109  1.00  0.00    -0.273 OA
HETATM    4  H   UNL     1      40.234 -16.543   2.856  1.00  0.00     0.169 HD
ENDROOT
BRANCH   2   5
HETATM    5  C   UNL     1      39.601 -14.986   1.649  1.00  0.00     0.035 A 
HETATM    6  C   UNL     1      40.322 -14.930   0.448  1.00  0.00     0.046 A 
HETATM    7  C   UNL     1      39.729 -14.341  -0.690  1.00  0.00     0.030 A 
HETATM    8  C   UNL     1      38.433 -13.852  -0.596  1.00  0.00     0.063 A 
HETATM    9  C   UNL     1      40.129 -14.068  -2.034  1.00  0.00     0.156 A 
HETATM   10  N   UNL     1      38.136 -13.368  -1.838  1.00  0.00    -0.277 N 
HETATM   11  C   UNL     1      37.686 -13.895   0.583  1.00  0.00     0.034 A 
HETATM   12  H   UNL     1      37.266 -12.943  -2.140  1.00  0.00     0.189 HD
HETATM   13  N   UNL     1      39.133 -13.473  -2.731  1.00  0.00    -0.168 NA
HETATM   14  C   UNL     1      38.303 -14.460   1.705  1.00  0.00     0.032 A 
BRANCH   9  15
HETATM   15  C   UNL     1      41.430 -14.345  -2.659  1.00  0.00     0.270 C 
HETATM   16  N   UNL     1      42.450 -13.557  -2.198  1.00  0.00    -0.365 N 
HETATM   17  H   UNL     1      42.248 -12.879  -1.473  1.00  0.00     0.159 HD
HETATM   18  H   UNL     1      43.385 -13.698  -2.546  1.00  0.00     0.159 HD
HETATM   19  O   UNL     1      41.630 -15.205  -3.509  1.00  0.00    -0.266 OA
ENDBRANCH   9  15
ENDBRANCH   2   5
BRANCH   1  20
HETATM   20  C   UNL     1      40.977 -15.770   5.101  1.00  0.00     0.130 C 
BRANCH  20  21
HETATM   21  C   UNL     1      42.489 -15.905   5.213  1.00  0.00     0.185 C 
BRANCH  21  22
HETATM   22  O   UNL     1      43.003 -16.108   3.886  1.00  0.00    -0.351 OA
BRANCH  22  23
HETATM   23  C   UNL     1      43.394 -17.392   3.627  1.00  0.00     0.068 A 
HETATM   24  C   UNL     1      43.279 -17.812   2.304  1.00  0.00     0.037 A 
HETATM   25  C   UNL     1      43.678 -19.099   1.939  1.00  0.00     0.010 A 
HETATM   26  C   UNL     1      44.227 -19.974   2.887  1.00  0.00    -0.055 A 
HETATM   27  C   UNL     1      44.355 -19.528   4.212  1.00  0.00     0.010 A 
HETATM   28  C   UNL     1      43.946 -18.242   4.581  1.00  0.00     0.037 A 
BRANCH  26  29
HETATM   29  C   UNL     1      44.669 -21.379   2.518  1.00  0.00     0.010 C 
HETATM   30  C   UNL     1      43.888 -21.939   1.325  1.00  0.00     0.015 C 
HETATM   31  C   UNL     1      44.566 -22.318   3.722  1.00  0.00     0.015 C 
ENDBRANCH  26  29
ENDBRANCH  22  23
ENDBRANCH  21  22
ENDBRANCH  20  21
ENDBRANCH   1  20
TORSDOF 7
ENDMDL
MODEL 2
REMARK VINA RESULT:      -8.2      6.170      9.766
REMARK  7 active torsions:
REMARK  status: ('A' for Active; 'I' for Inactive)
REMARK    1  A    between atoms: C_2  and  C_3 
REMARK    2  A    between atoms: C_6  and  O_7 
REMARK    3  A    between atoms: O_7  and  C_8 
REMARK    4  A    between atoms: C_8  and  C_9 
REMARK    5  A    between atoms: C_9  and  C_10 
REMARK       I    between atoms: C_10  and  N_11 
REMARK    6  A    between atoms: N_11  and  C_12 
REMARK    7  A    between atoms: C_19  and  C_20 
REMARK       I    between atoms: C_20  and  N_21 
ROOT
HETATM    1  C   UNL     1      44.697 -14.051   7.048  1.00  0.00     0.224 C 
HETATM    2  N   UNL     1      43.941 -15.205   7.116  1.00  0.00    -0.327 N 
HETATM    3  O   UNL     1      45.557 -13.794   6.212  1.00  0.00    -0.273 OA
HETATM    4  H   UNL     1      43.336 -15.296   7.929  1.00  0.00     0.169 HD
ENDROOT
BRANCH   2   5
HETATM    5  C   UNL     1      43.972 -16.311   6.242  1.00  0.00     0.035 A 
HETATM    6  C   UNL     1      43.266 -16.364   5.032  1.00  0.00     0.046 A 
HETATM    7  C   UNL     1      43.342 -17.527   4.234  1.00  0.00     0.030 A 
HETATM    8  C   UNL     1      44.138 -18.583   4.660  1.00  0.00     0.063 A 
HETATM    9  C   UNL     1      42.769 -17.971   3.004  1.00  0.00     0.156 A 
HETATM   10  N   UNL     1      44.024 -19.538   3.690  1.00  0.00    -0.277 N 
HETATM   11  C   UNL     1      44.856 -18.561   5.857  1.00  0.00     0.034 A 
HETATM   12  H   UNL     1      44.478 -20.444   3.665  1.00  0.00     0.189 HD
HETATM   13  N   UNL     1      43.204 -19.211   2.679  1.00  0.00    -0.168 NA
HETATM   14  C   UNL     1      44.744 -17.409   6.643  1.00  0.00     0.032 A 
BRANCH   9  15
HETATM   15  C   UNL     1      41.814 -17.254   2.147  1.00  0.00     0.270 C 
HETATM   16  N   UNL     1      42.267 -17.023   0.876  1.00  0.00    -0.365 N 
HETATM   17  H   UNL     1      43.185 -17.367   0.620  1.00  0.00     0.159 HD
HETATM   18  H   UNL     1      41.666 -16.567   0.209  1.00  0.00     0.159 HD
HETATM   19  O   UNL     1      40.696 -16.891   2.495  1.00  0.00    -0.266 OA
ENDBRANCH   9  15
ENDBRANCH   2   5
BRANCH   1  20
HETATM   20  C   UNL     1      44.352 -13.032   8.120  1.00  0.00     0.130 C 
BRANCH  20  21
HETATM   21  C   UNL     1      45.584 -12.359   8.709  1.00  0.00     0.185 C 
BRANCH  21  22
HETATM   22  O   UNL     1      45.653 -12.727  10.096  1.00  0.00    -0.351 OA
BRANCH  22  23
HETATM   23  C   UNL     1      44.819 -12.010  10.909  1.00  0.00     0.068 A 
HETATM   24  C   UNL     1      44.804 -10.632  10.709  1.00  0.00     0.037 A 
HETATM   25  C   UNL     1      43.965  -9.820  11.475  1.00  0.00     0.010 A 
HETATM   26  C   UNL     1      43.107 -10.380  12.432  1.00  0.00    -0.055 A 
HETATM   27  C   UNL     1      43.120 -11.773  12.607  1.00  0.00     0.010 A 
HETATM   28  C   UNL     1      43.968 -12.586  11.847  1.00  0.00     0.037 A 
BRANCH  26  29
HETATM   29  C   UNL     1      42.184  -9.522  13.279  1.00  0.00     0.010 C 
HETATM   30  C   UNL     1      42.437  -8.025  13.078  1.00  0.00     0.015 C 
HETATM   31  C   UNL     1      42.294  -9.897  14.758  1.00  0.00     0.015 C 
ENDBRANCH  26  29
ENDBRANCH  22  23
ENDBRANCH  21  22
ENDBRANCH  20  21
ENDBRANCH   1  20
TORSDOF 7
ENDMDL
MODEL 3
REMARK VINA RESULT:      -8.1      6.997     10.008
REMARK  7 active torsions:
REMARK  status: ('A' for Active; 'I' for Inactive)
REMARK    1  A    between atoms: C_2  and  C_3 
REMARK    2  A    between atoms: C_6  and  O_7 
REMARK    3  A    between atoms: O_7  and  C_8 
REMARK    4  A    between atoms: C_8  and  C_9 
REMARK    5  A    between atoms: C_9  and  C_10 
REMARK       I    between atoms: C_10  and  N_11 
REMARK    6  A    between atoms: N_11  and  C_12 
REMARK    7  A    between atoms: C_19  and  C_20 
REMARK       I    between atoms: C_20  and  N_21 
ROOT
HETATM    1  C   UNL     1      44.926 -11.728   9.106  1.00  0.00     0.224 C 
HETATM    2  N   UNL     1      43.773 -12.044   9.799  1.00  0.00    -0.327 N 
HETATM    3  O   UNL     1      45.537 -10.666   9.157  1.00  0.00    -0.273 OA
HETATM    4  H   UNL     1      43.345 -12.937   9.569  1.00  0.00     0.169 HD
ENDROOT
BRANCH   2   5
HETATM    5  C   UNL     1      43.072 -11.240  10.721  1.00  0.00     0.035 A 
HETATM    6  C   UNL     1      41.749 -10.816  10.532  1.00  0.00     0.046 A 
HETATM    7  C   UNL     1      41.138  -9.992  11.503  1.00  0.00     0.030 A 
HETATM    8  C   UNL     1      41.861  -9.642  12.637  1.00  0.00     0.063 A 
HETATM    9  C   UNL     1      39.874  -9.346  11.657  1.00  0.00     0.156 A 
HETATM   10  N   UNL     1      41.015  -8.871  13.382  1.00  0.00    -0.277 N 
HETATM   11  C   UNL     1      43.178 -10.050  12.857  1.00  0.00     0.034 A 
HETATM   12  H   UNL     1      41.205  -8.447  14.283  1.00  0.00     0.189 HD
HETATM   13  N   UNL     1      39.812  -8.663  12.824  1.00  0.00    -0.168 NA
HETATM   14  C   UNL     1      43.770 -10.844  11.869  1.00  0.00     0.032 A 
BRANCH   9  15
HETATM   15  C   UNL     1      38.741  -9.352  10.721  1.00  0.00     0.270 C 
HETATM   16  N   UNL     1      37.523  -9.520  11.320  1.00  0.00    -0.365 N 
HETATM   17  H   UNL     1      37.487  -9.606  12.329  1.00  0.00     0.159 HD
HETATM   18  H   UNL     1      36.686  -9.504  10.759  1.00  0.00     0.159 HD
HETATM   19  O   UNL     1      38.836  -9.208   9.507  1.00  0.00    -0.266 OA
ENDBRANCH   9  15
ENDBRANCH   2   5
BRANCH   1  20
HETATM   20  C   UNL     1      45.451 -12.864   8.245  1.00  0.00     0.130 C 
BRANCH  20  21
HETATM   21  C   UNL     1      44.354 -13.539   7.433  1.00  0.00     0.185 C 
BRANCH  21  22
HETATM   22  O   UNL     1      44.371 -14.937   7.765  1.00  0.00    -0.351 OA
BRANCH  22  23
HETATM   23  C   UNL     1      44.124 -15.768   6.708  1.00  0.00     0.068 A 
HETATM   24  C   UNL     1      43.524 -15.183   5.596  1.00  0.00     0.037 A 
HETATM   25  C   UNL     1      43.255 -15.948   4.459  1.00  0.00     0.010 A 
HETATM   26  C   UNL     1      43.612 -17.302   4.407  1.00  0.00    -0.055 A 
HETATM   27  C   UNL     1      44.236 -17.872   5.528  1.00  0.00     0.010 A 
HETATM   28  C   UNL     1      44.495 -17.109   6.672  1.00  0.00     0.037 A 
BRANCH  26  29
HETATM   29  C   UNL     1      43.332 -18.157   3.184  1.00  0.00     0.010 C 
HETATM   30  C   UNL     1      43.984 -19.540   3.281  1.00  0.00     0.015 C 
HETATM   31  C   UNL     1      43.768 -17.440   1.904  1.00  0.00     0.015 C 
ENDBRANCH  26  29
ENDBRANCH  22  23
ENDBRANCH  21  22
ENDBRANCH  20  21
ENDBRANCH   1  20
TORSDOF 7
ENDMDL
MODEL 4
REMARK VINA RESULT:      -8.0      1.618      1.723
REMARK  7 active torsions:
REMARK  status: ('A' for Active; 'I' for Inactive)
REMARK    1  A    between atoms: C_2  and  C_3 
REMARK    2  A    between atoms: C_6  and  O_7 
REMARK    3  A    between atoms: O_7  and  C_8 
REMARK    4  A    between atoms: C_8  and  C_9 
REMARK    5  A    between atoms: C_9  and  C_10 
REMARK       I    between atoms: C_10  and  N_11 
REMARK    6  A    between atoms: N_11  and  C_12 
REMARK    7  A    between atoms: C_19  and  C_20 
REMARK       I    between atoms: C_20  and  N_21 
ROOT
HETATM    1  C   UNL     1      41.844 -13.251   2.445  1.00  0.00     0.224 C 
HETATM    2  N   UNL     1      40.560 -13.680   2.165  1.00  0.00    -0.327 N 
HETATM    3  O   UNL     1      42.600 -12.669   1.675  1.00  0.00    -0.273 OA
HETATM    4  H   UNL     1      40.105 -14.230   2.890  1.00  0.00     0.169 HD
ENDROOT
BRANCH   2   5
HETATM    5  C   UNL     1      39.841 -13.525   0.963  1.00  0.00     0.035 A 
HETATM    6  C   UNL     1      40.066 -14.301  -0.183  1.00  0.00     0.046 A 
HETATM    7  C   UNL     1      39.308 -14.055  -1.349  1.00  0.00     0.030 A 
HETATM    8  C   UNL     1      38.338 -13.061  -1.321  1.00  0.00     0.063 A 
HETATM    9  C   UNL     1      39.262 -14.579  -2.676  1.00  0.00     0.156 A 
HETATM   10  N   UNL     1      37.773 -13.071  -2.565  1.00  0.00    -0.277 N 
HETATM   11  C   UNL     1      38.086 -12.273  -0.197  1.00  0.00     0.034 A 
HETATM   12  H   UNL     1      37.020 -12.482  -2.901  1.00  0.00     0.189 HD
HETATM   13  N   UNL     1      38.306 -13.966  -3.412  1.00  0.00    -0.168 NA
HETATM   14  C   UNL     1      38.867 -12.518   0.938  1.00  0.00     0.032 A 
BRANCH   9  15
HETATM   15  C   UNL     1      40.109 -15.629  -3.258  1.00  0.00     0.270 C 
HETATM   16  N   UNL     1      39.450 -16.801  -3.513  1.00  0.00    -0.365 N 
HETATM   17  H   UNL     1      38.459 -16.854  -3.309  1.00  0.00     0.159 HD
HETATM   18  H   UNL     1      39.944 -17.567  -3.943  1.00  0.00     0.159 HD
HETATM   19  O   UNL     1      41.300 -15.503  -3.521  1.00  0.00    -0.266 OA
ENDBRANCH   9  15
ENDBRANCH   2   5
BRANCH   1  20
HETATM   20  C   UNL     1      42.281 -13.526   3.874  1.00  0.00     0.130 C 
BRANCH  20  21
HETATM   21  C   UNL     1      43.018 -14.851   4.016  1.00  0.00     0.185 C 
BRANCH  21  22
HETATM   22  O   UNL     1      42.607 -15.692   2.926  1.00  0.00    -0.351 OA
BRANCH  22  23
HETATM   23  C   UNL     1      43.094 -16.968   2.988  1.00  0.00     0.068 A 
HETATM   24  C   UNL     1      43.242 -17.627   1.769  1.00  0.00     0.037 A 
HETATM   25  C   UNL     1      43.755 -18.925   1.730  1.00  0.00     0.010 A 
HETATM   26  C   UNL     1      44.156 -19.571   2.908  1.00  0.00    -0.055 A 
HETATM   27  C   UNL     1      44.020 -18.886   4.126  1.00  0.00     0.010 A 
HETATM   28  C   UNL     1      43.496 -17.589   4.167  1.00  0.00     0.037 A 
BRANCH  26  29
HETATM   29  C   UNL     1      44.717 -20.982   2.895  1.00  0.00     0.010 C 
HETATM   30  C   UNL     1      43.976 -21.892   1.912  1.00  0.00     0.015 C 
HETATM   31  C   UNL     1      44.713 -21.584   4.302  1.00  0.00     0.015 C 
ENDBRANCH  26  29
ENDBRANCH  22  23
ENDBRANCH  21  22
ENDBRANCH  20  21
ENDBRANCH   1  20
TORSDOF 7
ENDMDL
MODEL 5
REMARK VINA RESULT:      -7.9      2.525      3.857
REMARK  7 active torsions:
REMARK  status: ('A' for Active; 'I' for Inactive)
REMARK    1  A    between atoms: C_2  and  C_3 
REMARK    2  A    between atoms: C_6  and  O_7 
REMARK    3  A    between atoms: O_7  and  C_8 
REMARK    4  A    between atoms: C_8  and  C_9 
REMARK    5  A    between atoms: C_9  and  C_10 
REMARK       I    between atoms: C_10  and  N_11 
REMARK    6  A    between atoms: N_11  and  C_12 
REMARK    7  A    between atoms: C_19  and  C_20 
REMARK       I    between atoms: C_20  and  N_21 
ROOT
HETATM    1  C   UNL     1      43.638 -14.319   6.068  1.00  0.00     0.224 C 
HETATM    2  N   UNL     1      42.260 -14.343   6.169  1.00  0.00    -0.327 N 
HETATM    3  O   UNL     1      44.299 -13.629   5.299  1.00  0.00    -0.273 OA
HETATM    4  H   UNL     1      41.870 -15.043   6.796  1.00  0.00     0.169 HD
ENDROOT
BRANCH   2   5
HETATM    5  C   UNL     1      41.327 -13.576   5.441  1.00  0.00     0.035 A 
HETATM    6  C   UNL     1      40.728 -14.007   4.250  1.00  0.00     0.046 A 
HETATM    7  C   UNL     1      39.821 -13.156   3.581  1.00  0.00     0.030 A 
HETATM    8  C   UNL     1      39.528 -11.917   4.137  1.00  0.00     0.063 A 
HETATM    9  C   UNL     1      39.059 -13.208   2.374  1.00  0.00     0.156 A 
HETATM   10  N   UNL     1      38.626 -11.342   3.288  1.00  0.00    -0.277 N 
HETATM   11  C   UNL     1      40.104 -11.458   5.323  1.00  0.00     0.034 A 
HETATM   12  H   UNL     1      38.183 -10.435   3.384  1.00  0.00     0.189 HD
HETATM   13  N   UNL     1      38.323 -12.084   2.210  1.00  0.00    -0.168 NA
HETATM   14  C   UNL     1      41.019 -12.309   5.954  1.00  0.00     0.032 A 
BRANCH   9  15
HETATM   15  C   UNL     1      39.028 -14.286   1.376  1.00  0.00     0.270 C 
HETATM   16  N   UNL     1      37.768 -14.678   1.016  1.00  0.00    -0.365 N 
HETATM   17  H   UNL     1      36.975 -14.202   1.431  1.00  0.00     0.159 HD
HETATM   18  H   UNL     1      37.650 -15.389   0.312  1.00  0.00     0.159 HD
HETATM   19  O   UNL     1      40.020 -14.805   0.875  1.00  0.00    -0.266 OA
ENDBRANCH   9  15
ENDBRANCH   2   5
BRANCH   1  20
HETATM   20  C   UNL     1      44.338 -15.233   7.059  1.00  0.00     0.130 C 
BRANCH  20  21
HETATM   21  C   UNL     1      44.327 -16.691   6.622  1.00  0.00     0.185 C 
BRANCH  21  22
HETATM   22  O   UNL     1      43.589 -16.766   5.392  1.00  0.00    -0.351 OA
BRANCH  22  23
HETATM   23  C   UNL     1      43.838 -17.891   4.656  1.00  0.00     0.068 A 
HETATM   24  C   UNL     1      44.599 -18.876   5.281  1.00  0.00     0.037 A 
HETATM   25  C   UNL     1      44.884 -20.071   4.616  1.00  0.00     0.010 A 
HETATM   26  C   UNL     1      44.385 -20.309   3.328  1.00  0.00    -0.055 A 
HETATM   27  C   UNL     1      43.602 -19.315   2.720  1.00  0.00     0.010 A 
HETATM   28  C   UNL     1      43.325 -18.113   3.381  1.00  0.00     0.037 A 
BRANCH  26  29
HETATM   29  C   UNL     1      44.679 -21.598   2.582  1.00  0.00     0.010 C 
HETATM   30  C   UNL     1      43.715 -21.826   1.414  1.00  0.00     0.015 C 
HETATM   31  C   UNL     1      44.670 -22.796   3.535  1.00  0.00     0.015 C 
ENDBRANCH  26  29
ENDBRANCH  22  23
ENDBRANCH  21  22
ENDBRANCH  20  21
ENDBRANCH   1  20
TORSDOF 7
ENDMDL
MODEL 6
REMARK VINA RESULT:      -7.9      2.066      2.860
REMARK  7 active torsions:
REMARK  status: ('A' for Active; 'I' for Inactive)
REMARK    1  A    between atoms: C_2  and  C_3 
REMARK    2  A    between atoms: C_6  and  O_7 
REMARK    3  A    between atoms: O_7  and  C_8 
REMARK    4  A    between atoms: C_8  and  C_9 
REMARK    5  A    between atoms: C_9  and  C_10 
REMARK       I    between atoms: C_10  and  N_11 
REMARK    6  A    between atoms: N_11  and  C_12 
REMARK    7  A    between atoms: C_19  and  C_20 
REMARK       I    between atoms: C_20  and  N_21 
ROOT
HETATM    1  C   UNL     1      40.185 -14.461   2.603  1.00  0.00     0.224 C 
HETATM    2  N   UNL     1      41.354 -14.431   1.867  1.00  0.00    -0.327 N 
HETATM    3  O   UNL     1      39.054 -14.247   2.179  1.00  0.00    -0.273 OA
HETATM    4  H   UNL     1      42.217 -14.541   2.396  1.00  0.00     0.169 HD
ENDROOT
BRANCH   2   5
HETATM    5  C   UNL     1      41.501 -14.179   0.488  1.00  0.00     0.035 A 
HETATM    6  C   UNL     1      42.061 -13.003  -0.030  1.00  0.00     0.046 A 
HETATM    7  C   UNL     1      42.145 -12.832  -1.430  1.00  0.00     0.030 A 
HETATM    8  C   UNL     1      41.689 -13.849  -2.259  1.00  0.00     0.063 A 
HETATM    9  C   UNL     1      42.596 -11.808  -2.317  1.00  0.00     0.156 A 
HETATM   10  N   UNL     1      41.913 -13.408  -3.532  1.00  0.00    -0.277 N 
HETATM   11  C   UNL     1      41.129 -15.033  -1.775  1.00  0.00     0.034 A 
HETATM   12  H   UNL     1      41.711 -13.898  -4.396  1.00  0.00     0.189 HD
HETATM   13  N   UNL     1      42.452 -12.181  -3.610  1.00  0.00    -0.168 NA
HETATM   14  C   UNL     1      41.033 -15.169  -0.386  1.00  0.00     0.032 A 
BRANCH   9  15
HETATM   15  C   UNL     1      43.141 -10.489  -1.965  1.00  0.00     0.270 C 
HETATM   16  N   UNL     1      42.617  -9.456  -2.691  1.00  0.00    -0.365 N 
HETATM   17  H   UNL     1      41.902  -9.662  -3.381  1.00  0.00     0.159 HD
HETATM   18  H   UNL     1      42.908  -8.511  -2.496  1.00  0.00     0.159 HD
HETATM   19  O   UNL     1      43.981 -10.289  -1.094  1.00  0.00    -0.266 OA
ENDBRANCH   9  15
ENDBRANCH   2   5
BRANCH   1  20
HETATM   20  C   UNL     1      40.390 -14.836   4.060  1.00  0.00     0.130 C 
BRANCH  20  21
HETATM   21  C   UNL     1      41.002 -16.221   4.229  1.00  0.00     0.185 C 
BRANCH  21  22
HETATM   22  O   UNL     1      42.384 -16.130   3.844  1.00  0.00    -0.351 OA
BRANCH  22  23
HETATM   23  C   UNL     1      42.942 -17.322   3.474  1.00  0.00     0.068 A 
HETATM   24  C   UNL     1      43.410 -18.127   4.510  1.00  0.00     0.037 A 
HETATM   25  C   UNL     1      43.974 -19.374   4.231  1.00  0.00     0.010 A 
HETATM   26  C   UNL     1      44.049 -19.846   2.914  1.00  0.00    -0.055 A 
HETATM   27  C   UNL     1      43.554 -19.032   1.883  1.00  0.00     0.010 A 
HETATM   28  C   UNL     1      42.999 -17.778   2.160  1.00  0.00     0.037 A 
BRANCH  26  29
HETATM   29  C   UNL     1      44.658 -21.197   2.582  1.00  0.00     0.010 C 
HETATM   30  C   UNL     1      43.937 -21.888   1.420  1.00  0.00     0.015 C 
HETATM   31  C   UNL     1      44.689 -22.100   3.816  1.00  0.00     0.015 C 
ENDBRANCH  26  29
ENDBRANCH  22  23
ENDBRANCH  21  22
ENDBRANCH  20  21
ENDBRANCH   1  20
TORSDOF 7
ENDMDL
MODEL 7
REMARK VINA RESULT:      -7.8      2.059      2.622
REMARK  7 active torsions:
REMARK  status: ('A' for Active; 'I' for Inactive)
REMARK    1  A    between atoms: C_2  and  C_3 
REMARK    2  A    between atoms: C_6  and  O_7 
REMARK    3  A    between atoms: O_7  and  C_8 
REMARK    4  A    between atoms: C_8  and  C_9 
REMARK    5  A    between atoms: C_9  and  C_10 
REMARK       I    between atoms: C_10  and  N_11 
REMARK    6  A    between atoms: N_11  and  C_12 
REMARK    7  A    between atoms: C_19  and  C_20 
REMARK       I    between atoms: C_20  and  N_21 
ROOT
HETATM    1  C   UNL     1      43.437 -14.255   5.381  1.00  0.00     0.224 C 
HETATM    2  N   UNL     1      42.110 -14.585   5.183  1.00  0.00    -0.327 N 
HETATM    3  O   UNL     1      44.162 -13.655   4.595  1.00  0.00    -0.273 OA
HETATM    4  H   UNL     1      41.683 -15.167   5.900  1.00  0.00     0.169 HD
ENDROOT
BRANCH   2   5
HETATM    5  C   UNL     1      41.304 -14.289   4.065  1.00  0.00     0.035 A 
HETATM    6  C   UNL     1      41.435 -14.925   2.822  1.00  0.00     0.046 A 
HETATM    7  C   UNL     1      40.594 -14.542   1.754  1.00  0.00     0.030 A 
HETATM    8  C   UNL     1      39.639 -13.557   1.971  1.00  0.00     0.063 A 
HETATM    9  C   UNL     1      40.443 -14.906   0.382  1.00  0.00     0.156 A 
HETATM   10  N   UNL     1      38.983 -13.420   0.781  1.00  0.00    -0.277 N 
HETATM   11  C   UNL     1      39.480 -12.906   3.196  1.00  0.00     0.034 A 
HETATM   12  H   UNL     1      38.213 -12.794   0.574  1.00  0.00     0.189 HD
HETATM   13  N   UNL     1      39.441 -14.209  -0.203  1.00  0.00    -0.168 NA
HETATM   14  C   UNL     1      40.341 -13.284   4.232  1.00  0.00     0.032 A 
BRANCH   9  15
HETATM   15  C   UNL     1      41.234 -15.882  -0.382  1.00  0.00     0.270 C 
HETATM   16  N   UNL     1      41.060 -15.804  -1.737  1.00  0.00    -0.365 N 
HETATM   17  H   UNL     1      40.438 -15.093  -2.105  1.00  0.00     0.159 HD
HETATM   18  H   UNL     1      41.587 -16.412  -2.343  1.00  0.00     0.159 HD
HETATM   19  O   UNL     1      42.003 -16.700   0.111  1.00  0.00    -0.266 OA
ENDBRANCH   9  15
ENDBRANCH   2   5
BRANCH   1  20
HETATM   20  C   UNL     1      43.973 -14.674   6.739  1.00  0.00     0.130 C 
BRANCH  20  21
HETATM   21  C   UNL     1      44.547 -16.084   6.733  1.00  0.00     0.185 C 
BRANCH  21  22
HETATM   22  O   UNL     1      43.451 -16.995   6.546  1.00  0.00    -0.351 OA
BRANCH  22  23
HETATM   23  C   UNL     1      43.732 -18.049   5.723  1.00  0.00     0.068 A 
HETATM   24  C   UNL     1      43.337 -17.911   4.394  1.00  0.00     0.037 A 
HETATM   25  C   UNL     1      43.603 -18.926   3.473  1.00  0.00     0.010 A 
HETATM   26  C   UNL     1      44.296 -20.081   3.862  1.00  0.00    -0.055 A 
HETATM   27  C   UNL     1      44.705 -20.196   5.200  1.00  0.00     0.010 A 
HETATM   28  C   UNL     1      44.429 -19.184   6.126  1.00  0.00     0.037 A 
BRANCH  26  29
HETATM   29  C   UNL     1      44.598 -21.200   2.882  1.00  0.00     0.010 C 
HETATM   30  C   UNL     1      43.631 -21.209   1.694  1.00  0.00     0.015 C 
HETATM   31  C   UNL     1      44.605 -22.558   3.588  1.00  0.00     0.015 C 
ENDBRANCH  26  29
ENDBRANCH  22  23
ENDBRANCH  21  22
ENDBRANCH  20  21
ENDBRANCH   1  20
TORSDOF 7
ENDMDL
MODEL 8
REMARK VINA RESULT:      -7.7      3.156      7.802
REMARK  7 active torsions:
REMARK  status: ('A' for Active; 'I' for Inactive)
REMARK    1  A    between atoms: C_2  and  C_3 
REMARK    2  A    between atoms: C_6  and  O_7 
REMARK    3  A    between atoms: O_7  and  C_8 
REMARK    4  A    between atoms: C_8  and  C_9 
REMARK    5  A    between atoms: C_9  and  C_10 
REMARK       I    between atoms: C_10  and  N_11 
REMARK    6  A    between atoms: N_11  and  C_12 
REMARK    7  A    between atoms: C_19  and  C_20 
REMARK       I    between atoms: C_20  and  N_21 
ROOT
HETATM    1  C   UNL     1      41.554 -17.002   0.864  1.00  0.00     0.224 C 
HETATM    2  N   UNL     1      42.771 -16.997   1.521  1.00  0.00    -0.327 N 
HETATM    3  O   UNL     1      40.635 -17.793   1.045  1.00  0.00    -0.273 OA
HETATM    4  H   UNL     1      43.458 -16.326   1.182  1.00  0.00     0.169 HD
ENDROOT
BRANCH   2   5
HETATM    5  C   UNL     1      43.206 -17.867   2.541  1.00  0.00     0.035 A 
HETATM    6  C   UNL     1      42.925 -17.670   3.900  1.00  0.00     0.046 A 
HETATM    7  C   UNL     1      43.425 -18.587   4.852  1.00  0.00     0.030 A 
HETATM    8  C   UNL     1      44.165 -19.676   4.411  1.00  0.00     0.063 A 
HETATM    9  C   UNL     1      43.393 -18.714   6.274  1.00  0.00     0.156 A 
HETATM   10  N   UNL     1      44.489 -20.376   5.539  1.00  0.00    -0.277 N 
HETATM   11  C   UNL     1      44.460 -19.903   3.065  1.00  0.00     0.034 A 
HETATM   12  H   UNL     1      45.019 -21.238   5.595  1.00  0.00     0.189 HD
HETATM   13  N   UNL     1      44.049 -19.826   6.682  1.00  0.00    -0.168 NA
HETATM   14  C   UNL     1      43.975 -18.968   2.143  1.00  0.00     0.032 A 
BRANCH   9  15
HETATM   15  C   UNL     1      42.771 -17.802   7.245  1.00  0.00     0.270 C 
HETATM   16  N   UNL     1      43.463 -17.680   8.419  1.00  0.00    -0.365 N 
HETATM   17  H   UNL     1      44.332 -18.192   8.524  1.00  0.00     0.159 HD
HETATM   18  H   UNL     1      43.129 -17.051   9.131  1.00  0.00     0.159 HD
HETATM   19  O   UNL     1      41.734 -17.177   7.053  1.00  0.00    -0.266 OA
ENDBRANCH   9  15
ENDBRANCH   2   5
BRANCH   1  20
HETATM   20  C   UNL     1      41.397 -15.870  -0.136  1.00  0.00     0.130 C 
BRANCH  20  21
HETATM   21  C   UNL     1      41.788 -14.517   0.442  1.00  0.00     0.185 C 
BRANCH  21  22
HETATM   22  O   UNL     1      40.934 -14.268   1.571  1.00  0.00    -0.351 OA
BRANCH  22  23
HETATM   23  C   UNL     1      41.594 -14.182   2.765  1.00  0.00     0.068 A 
HETATM   24  C   UNL     1      40.855 -14.512   3.898  1.00  0.00     0.037 A 
HETATM   25  C   UNL     1      41.451 -14.477   5.160  1.00  0.00     0.010 A 
HETATM   26  C   UNL     1      42.805 -14.141   5.302  1.00  0.00    -0.055 A 
HETATM   27  C   UNL     1      43.542 -13.831   4.148  1.00  0.00     0.010 A 
HETATM   28  C   UNL     1      42.942 -13.856   2.884  1.00  0.00     0.037 A 
BRANCH  26  29
HETATM   29  C   UNL     1      43.479 -14.095   6.662  1.00  0.00     0.010 C 
HETATM   30  C   UNL     1      43.640 -12.663   7.182  1.00  0.00     0.015 C 
HETATM   31  C   UNL     1      44.829 -14.815   6.628  1.00  0.00     0.015 C 
ENDBRANCH  26  29
ENDBRANCH  22  23
ENDBRANCH  21  22
ENDBRANCH  20  21
ENDBRANCH   1  20
TORSDOF 7
ENDMDL
MODEL 9
REMARK VINA RESULT:      -7.7      1.778      2.737
REMARK  7 active torsions:
REMARK  status: ('A' for Active; 'I' for Inactive)
REMARK    1  A    between atoms: C_2  and  C_3 
REMARK    2  A    between atoms: C_6  and  O_7 
REMARK    3  A    between atoms: O_7  and  C_8 
REMARK    4  A    between atoms: C_8  and  C_9 
REMARK    5  A    between atoms: C_9  and  C_10 
REMARK       I    between atoms: C_10  and  N_11 
REMARK    6  A    between atoms: N_11  and  C_12 
REMARK    7  A    between atoms: C_19  and  C_20 
REMARK       I    between atoms: C_20  and  N_21 
ROOT
HETATM    1  C   UNL     1      41.105 -15.187   4.860  1.00  0.00     0.224 C 
HETATM    2  N   UNL     1      40.585 -15.960   3.839  1.00  0.00    -0.327 N 
HETATM    3  O   UNL     1      41.578 -14.061   4.749  1.00  0.00    -0.273 OA
HETATM    4  H   UNL     1      40.319 -16.910   4.089  1.00  0.00     0.169 HD
ENDROOT
BRANCH   2   5
HETATM    5  C   UNL     1      40.463 -15.622   2.475  1.00  0.00     0.035 A 
HETATM    6  C   UNL     1      39.648 -14.585   2.003  1.00  0.00     0.046 A 
HETATM    7  C   UNL     1      39.575 -14.337   0.614  1.00  0.00     0.030 A 
HETATM    8  C   UNL     1      40.334 -15.117  -0.248  1.00  0.00     0.063 A 
HETATM    9  C   UNL     1      38.863 -13.436  -0.235  1.00  0.00     0.156 A 
HETATM   10  N   UNL     1      40.070 -14.638  -1.500  1.00  0.00    -0.277 N 
HETATM   11  C   UNL     1      41.158 -16.156   0.189  1.00  0.00     0.034 A 
HETATM   12  H   UNL     1      40.459 -14.964  -2.377  1.00  0.00     0.189 HD
HETATM   13  N   UNL     1      39.184 -13.630  -1.535  1.00  0.00    -0.168 NA
HETATM   14  C   UNL     1      41.195 -16.399   1.567  1.00  0.00     0.032 A 
BRANCH   9  15
HETATM   15  C   UNL     1      37.883 -12.414   0.160  1.00  0.00     0.270 C 
HETATM   16  N   UNL     1      36.750 -12.919   0.736  1.00  0.00    -0.365 N 
HETATM   17  H   UNL     1      36.678 -13.922   0.864  1.00  0.00     0.159 HD
HETATM   18  H   UNL     1      36.036 -12.290   1.068  1.00  0.00     0.159 HD
HETATM   19  O   UNL     1      38.034 -11.206   0.016  1.00  0.00    -0.266 OA
ENDBRANCH   9  15
ENDBRANCH   2   5
BRANCH   1  20
HETATM   20  C   UNL     1      41.015 -15.842   6.227  1.00  0.00     0.130 C 
BRANCH  20  21
HETATM   21  C   UNL     1      41.930 -17.052   6.358  1.00  0.00     0.185 C 
BRANCH  21  22
HETATM   22  O   UNL     1      43.079 -16.816   5.527  1.00  0.00    -0.351 OA
BRANCH  22  23
HETATM   23  C   UNL     1      43.504 -17.913   4.832  1.00  0.00     0.068 A 
HETATM   24  C   UNL     1      43.911 -19.003   5.597  1.00  0.00     0.037 A 
HETATM   25  C   UNL     1      44.338 -20.178   4.975  1.00  0.00     0.010 A 
HETATM   26  C   UNL     1      44.334 -20.289   3.577  1.00  0.00    -0.055 A 
HETATM   27  C   UNL     1      43.901 -19.189   2.820  1.00  0.00     0.010 A 
HETATM   28  C   UNL     1      43.483 -18.008   3.444  1.00  0.00     0.037 A 
BRANCH  26  29
HETATM   29  C   UNL     1      44.794 -21.554   2.874  1.00  0.00     0.010 C 
HETATM   30  C   UNL     1      44.014 -21.816   1.582  1.00  0.00     0.015 C 
HETATM   31  C   UNL     1      44.712 -22.761   3.811  1.00  0.00     0.015 C 
ENDBRANCH  26  29
ENDBRANCH  22  23
ENDBRANCH  21  22
ENDBRANCH  20  21
ENDBRANCH   1  20
TORSDOF 7
ENDMDL
MODEL 10
REMARK VINA RESULT:      -7.6      3.528      7.819
REMARK  7 active torsions:
REMARK  status: ('A' for Active; 'I' for Inactive)
REMARK    1  A    between atoms: C_2  and  C_3 
REMARK    2  A    between atoms: C_6  and  O_7 
REMARK    3  A    between atoms: O_7  and  C_8 
REMARK    4  A    between atoms: C_8  and  C_9 
REMARK    5  A    between atoms: C_9  and  C_10 
REMARK       I    between atoms: C_10  and  N_11 
REMARK    6  A    between atoms: N_11  and  C_12 
REMARK    7  A    between atoms: C_19  and  C_20 
REMARK       I    between atoms: C_20  and  N_21 
ROOT
HETATM    1  C   UNL     1      41.552 -17.050   0.511  1.00  0.00     0.224 C 
HETATM    2  N   UNL     1      42.814 -16.976   1.071  1.00  0.00    -0.327 N 
HETATM    3  O   UNL     1      40.616 -17.731   0.917  1.00  0.00    -0.273 OA
HETATM    4  H   UNL     1      43.501 -16.433   0.553  1.00  0.00     0.169 HD
ENDROOT
BRANCH   2   5
HETATM    5  C   UNL     1      43.287 -17.635   2.224  1.00  0.00     0.035 A 
HETATM    6  C   UNL     1      43.659 -18.986   2.248  1.00  0.00     0.046 A 
HETATM    7  C   UNL     1      44.101 -19.563   3.459  1.00  0.00     0.030 A 
HETATM    8  C   UNL     1      44.178 -18.765   4.594  1.00  0.00     0.063 A 
HETATM    9  C   UNL     1      44.518 -20.859   3.891  1.00  0.00     0.156 A 
HETATM   10  N   UNL     1      44.645 -19.585   5.582  1.00  0.00    -0.277 N 
HETATM   11  C   UNL     1      43.818 -17.417   4.604  1.00  0.00     0.034 A 
HETATM   12  H   UNL     1      44.834 -19.337   6.547  1.00  0.00     0.189 HD
HETATM   13  N   UNL     1      44.855 -20.855   5.201  1.00  0.00    -0.168 NA
HETATM   14  C   UNL     1      43.360 -16.874   3.398  1.00  0.00     0.032 A 
BRANCH   9  15
HETATM   15  C   UNL     1      44.586 -22.092   3.094  1.00  0.00     0.270 C 
HETATM   16  N   UNL     1      44.810 -23.222   3.833  1.00  0.00    -0.365 N 
HETATM   17  H   UNL     1      44.889 -23.135   4.840  1.00  0.00     0.159 HD
HETATM   18  H   UNL     1      44.839 -24.119   3.375  1.00  0.00     0.159 HD
HETATM   19  O   UNL     1      44.447 -22.149   1.878  1.00  0.00    -0.266 OA
ENDBRANCH   9  15
ENDBRANCH   2   5
BRANCH   1  20
HETATM   20  C   UNL     1      41.367 -16.147  -0.696  1.00  0.00     0.130 C 
BRANCH  20  21
HETATM   21  C   UNL     1      41.551 -14.673  -0.361  1.00  0.00     0.185 C 
BRANCH  21  22
HETATM   22  O   UNL     1      40.500 -14.304   0.546  1.00  0.00    -0.351 OA
BRANCH  22  23
HETATM   23  C   UNL     1      40.924 -14.041   1.819  1.00  0.00     0.068 A 
HETATM   24  C   UNL     1      40.101 -14.500   2.845  1.00  0.00     0.037 A 
HETATM   25  C   UNL     1      40.464 -14.301   4.178  1.00  0.00     0.010 A 
HETATM   26  C   UNL     1      41.671 -13.666   4.504  1.00  0.00    -0.055 A 
HETATM   27  C   UNL     1      42.498 -13.227   3.458  1.00  0.00     0.010 A 
HETATM   28  C   UNL     1      42.130 -13.417   2.121  1.00  0.00     0.037 A 
BRANCH  26  29
HETATM   29  C   UNL     1      42.090 -13.435   5.945  1.00  0.00     0.010 C 
HETATM   30  C   UNL     1      41.839 -11.994   6.399  1.00  0.00     0.015 C 
HETATM   31  C   UNL     1      43.555 -13.823   6.156  1.00  0.00     0.015 C 
ENDBRANCH  26  29
ENDBRANCH  22  23
ENDBRANCH  21  22
ENDBRANCH  20  21
ENDBRANCH   1  20
TORSDOF 7
ENDMDL
