MODEL 1
REMARK VINA RESULT:      -9.3      0.000      0.000
REMARK  10 active torsions:
REMARK  status: ('A' for Active; 'I' for Inactive)
REMARK    1  A    between atoms: C_2  and  N_3 
REMARK    2  A    between atoms: N_3  and  C_4 
REMARK    3  A    between atoms: N_3  and  C_37 
REMARK    4  A    between atoms: C_7  and  C_8 
REMARK    5  A    between atoms: N_9  and  C_11 
REMARK    6  A    between atoms: C_11  and  C_12 
REMARK       I    between atoms: C_12  and  N_13 
REMARK    7  A    between atoms: N_13  and  C_14 
REMARK    8  A    between atoms: C_20  and  C_21 
REMARK    9  A    between atoms: C_21  and  O_22 
REMARK   10  A    between atoms: C_28  and  O_29 
ROOT
HETATM    1  C   UNL     1      42.431 -14.234   3.670  1.00  0.00     0.228 C 
HETATM    2  N   UNL     1      41.853 -13.746   5.019  1.00  0.00    -0.054 N 
HETATM    3  H   UNL     1      42.534 -14.087   5.714  1.00  0.00     0.281 HD
HETATM    4  C   UNL     1      40.486 -14.309   5.342  1.00  0.00     0.239 C 
HETATM    5  C   UNL     1      39.486 -14.003   4.240  1.00  0.00     0.066 C 
HETATM    6  C   UNL     1      39.976 -14.503   2.874  1.00  0.00     0.065 C 
HETATM    7  C   UNL     1      41.369 -13.910   2.564  1.00  0.00     0.055 C 
HETATM    8  C   UNL     1      38.940 -14.126   1.797  1.00  0.00     0.038 C 
HETATM    9  C   UNL     1      39.417 -14.403   0.372  1.00  0.00     0.003 C 
HETATM   10  C   UNL     1      40.772 -13.762   0.103  1.00  0.00     0.001 C 
HETATM   11  C   UNL     1      41.809 -14.228   1.123  1.00  0.00     0.010 C 
ENDROOT
BRANCH   2  12
HETATM   12  C   UNL     1      41.877 -12.222   5.216  1.00  0.00     0.338 C 
BRANCH  12  13
HETATM   13  C   UNL     1      41.377 -11.750   6.580  1.00  0.00     0.248 C 
HETATM   14  N   UNL     1      42.421 -11.476   7.440  1.00  0.00    -0.319 N 
HETATM   15  H   UNL     1      43.379 -11.671   7.139  1.00  0.00     0.169 HD
HETATM   16  O   UNL     1      40.168 -11.672   6.777  1.00  0.00    -0.271 OA
BRANCH  14  17
HETATM   17  C   UNL     1      42.363 -10.982   8.736  1.00  0.00     0.094 A 
HETATM   18  S   UNL     1      40.947 -10.317   9.366  1.00  0.00    -0.076 SA
HETATM   19  C   UNL     1      41.695  -9.939  10.853  1.00  0.00    -0.012 A 
HETATM   20  C   UNL     1      40.890  -9.256  11.913  1.00  0.00     0.057 C 
HETATM   21  C   UNL     1      43.020 -10.351  10.895  1.00  0.00    -0.030 A 
HETATM   22  C   UNL     1      43.911 -10.191  12.092  1.00  0.00     0.050 C 
HETATM   23  C   UNL     1      43.427 -10.946   9.631  1.00  0.00     0.080 A 
BRANCH  23  24
HETATM   24  C   UNL     1      44.747 -11.473   9.249  1.00  0.00     0.296 C 
HETATM   25  O   UNL     1      45.728 -10.738   9.151  1.00  0.00    -0.259 OA
BRANCH  24  26
HETATM   26  O   UNL     1      44.768 -12.815   9.037  1.00  0.00    -0.322 OA
HETATM   27  C   UNL     1      45.382 -13.255   7.823  1.00  0.00     0.213 C 
ENDBRANCH  24  26
ENDBRANCH  23  24
ENDBRANCH  14  17
ENDBRANCH  12  13
ENDBRANCH   2  12
BRANCH   1  28
HETATM   28  C   UNL     1      43.001 -15.658   3.686  1.00  0.00    -0.027 C 
HETATM   29  C   UNL     1      42.953 -16.530   4.777  1.00  0.00     0.011 C 
HETATM   30  C   UNL     1      43.295 -17.889   4.652  1.00  0.00     0.030 C 
HETATM   31  C   UNL     1      43.713 -18.452   3.442  1.00  0.00     0.030 C 
HETATM   32  C   UNL     1      43.949 -17.529   2.418  1.00  0.00     0.030 C 
HETATM   33  C   UNL     1      43.622 -16.168   2.539  1.00  0.00     0.011 C 
BRANCH  31  34
HETATM   34  N   UNL     1      43.902 -19.823   3.265  1.00  0.00    -0.382 N 
BRANCH  34  35
HETATM   35  C   UNL     1      45.051 -20.484   3.915  1.00  0.00     0.118 C 
HETATM   36  C   UNL     1      44.640 -21.164   5.215  1.00  0.00     0.026 C 
ENDBRANCH  34  35
BRANCH  34  37
HETATM   37  C   UNL     1      43.388 -20.519   2.071  1.00  0.00     0.118 C 
HETATM   38  C   UNL     1      44.246 -21.731   1.744  1.00  0.00     0.026 C 
ENDBRANCH  34  37
ENDBRANCH  31  34
ENDBRANCH   1  28
BRANCH   6  39
HETATM   39  O   UNL     1      40.049 -15.922   2.975  1.00  0.00    -0.389 OA
HETATM   40  H   UNL     1      39.424 -16.249   3.648  1.00  0.00     0.210 HD
ENDBRANCH   6  39
TORSDOF 10
ENDMDL
MODEL 2
REMARK VINA RESULT:      -8.8      4.052      8.132
REMARK  10 active torsions:
REMARK  status: ('A' for Active; 'I' for Inactive)
REMARK    1  A    between atoms: C_2  and  N_3 
REMARK    2  A    between atoms: N_3  and  C_4 
REMARK    3  A    between atoms: N_3  and  C_37 
REMARK    4  A    between atoms: C_7  and  C_8 
REMARK    5  A    between atoms: N_9  and  C_11 
REMARK    6  A    between atoms: C_11  and  C_12 
REMARK       I    between atoms: C_12  and  N_13 
REMARK    7  A    between atoms: N_13  and  C_14 
REMARK    8  A    between atoms: C_20  and  C_21 
REMARK    9  A    between atoms: C_21  and  O_22 
REMARK   10  A    between atoms: C_28  and  O_29 
ROOT
HETATM    1  C   UNL     1      40.890 -15.603   2.631  1.00  0.00     0.228 C 
HETATM    2  N   UNL     1      41.122 -14.999   1.226  1.00  0.00    -0.054 N 
HETATM    3  H   UNL     1      41.364 -15.818   0.646  1.00  0.00     0.281 HD
HETATM    4  C   UNL     1      42.253 -13.996   1.168  1.00  0.00     0.239 C 
HETATM    5  C   UNL     1      42.041 -12.864   2.159  1.00  0.00     0.066 C 
HETATM    6  C   UNL     1      41.847 -13.389   3.588  1.00  0.00     0.065 C 
HETATM    7  C   UNL     1      40.684 -14.406   3.623  1.00  0.00     0.055 C 
HETATM    8  C   UNL     1      41.596 -12.198   4.534  1.00  0.00     0.038 C 
HETATM    9  C   UNL     1      41.197 -12.621   5.947  1.00  0.00     0.003 C 
HETATM   10  C   UNL     1      40.021 -13.588   5.929  1.00  0.00     0.001 C 
HETATM   11  C   UNL     1      40.331 -14.809   5.067  1.00  0.00     0.010 C 
ENDROOT
BRANCH   2  12
HETATM   12  C   UNL     1      39.861 -14.443   0.546  1.00  0.00     0.338 C 
BRANCH  12  13
HETATM   13  C   UNL     1      40.049 -14.049  -0.917  1.00  0.00     0.248 C 
HETATM   14  N   UNL     1      40.035 -12.679  -1.082  1.00  0.00    -0.319 N 
HETATM   15  H   UNL     1      39.838 -12.081  -0.276  1.00  0.00     0.169 HD
HETATM   16  O   UNL     1      40.178 -14.932  -1.760  1.00  0.00    -0.271 OA
BRANCH  14  17
HETATM   17  C   UNL     1      40.225 -11.950  -2.249  1.00  0.00     0.094 A 
HETATM   18  S   UNL     1      38.924 -11.359  -3.145  1.00  0.00    -0.076 SA
HETATM   19  C   UNL     1      39.948 -10.695  -4.338  1.00  0.00    -0.012 A 
HETATM   20  C   UNL     1      39.334  -9.996  -5.509  1.00  0.00     0.057 C 
HETATM   21  C   UNL     1      41.292 -10.884  -4.042  1.00  0.00    -0.030 A 
HETATM   22  C   UNL     1      42.418 -10.367  -4.889  1.00  0.00     0.050 C 
HETATM   23  C   UNL     1      41.459 -11.651  -2.817  1.00  0.00     0.080 A 
BRANCH  23  24
HETATM   24  C   UNL     1      42.708 -12.096  -2.178  1.00  0.00     0.296 C 
HETATM   25  O   UNL     1      43.362 -13.035  -2.631  1.00  0.00    -0.259 OA
BRANCH  24  26
HETATM   26  O   UNL     1      43.056 -11.377  -1.080  1.00  0.00    -0.322 OA
HETATM   27  C   UNL     1      43.656 -10.102  -1.321  1.00  0.00     0.213 C 
ENDBRANCH  24  26
ENDBRANCH  23  24
ENDBRANCH  14  17
ENDBRANCH  12  13
ENDBRANCH   2  12
BRANCH   1  28
HETATM   28  C   UNL     1      41.896 -16.683   3.048  1.00  0.00    -0.027 C 
HETATM   29  C   UNL     1      41.857 -17.394   4.250  1.00  0.00     0.011 C 
HETATM   30  C   UNL     1      42.675 -18.517   4.470  1.00  0.00     0.030 C 
HETATM   31  C   UNL     1      43.584 -18.986   3.516  1.00  0.00     0.030 C 
HETATM   32  C   UNL     1      43.754 -18.147   2.409  1.00  0.00     0.030 C 
HETATM   33  C   UNL     1      42.949 -17.017   2.188  1.00  0.00     0.011 C 
BRANCH  31  34
HETATM   34  N   UNL     1      44.285 -20.184   3.655  1.00  0.00    -0.382 N 
BRANCH  34  35
HETATM   35  C   UNL     1      44.999 -20.462   4.917  1.00  0.00     0.118 C 
HETATM   36  C   UNL     1      44.632 -21.833   5.474  1.00  0.00     0.026 C 
ENDBRANCH  34  35
BRANCH  34  37
HETATM   37  C   UNL     1      44.811 -20.904   2.481  1.00  0.00     0.118 C 
HETATM   38  C   UNL     1      43.722 -21.745   1.832  1.00  0.00     0.026 C 
ENDBRANCH  34  37
ENDBRANCH  31  34
ENDBRANCH   1  28
BRANCH   6  39
HETATM   39  O   UNL     1      43.073 -14.019   3.946  1.00  0.00    -0.389 OA
HETATM   40  H   UNL     1      43.823 -13.585   3.500  1.00  0.00     0.210 HD
ENDBRANCH   6  39
TORSDOF 10
ENDMDL
MODEL 3
REMARK VINA RESULT:      -8.3      3.635      8.175
REMARK  10 active torsions:
REMARK  status: ('A' for Active; 'I' for Inactive)
REMARK    1  A    between atoms: C_2  and  N_3 
REMARK    2  A    between atoms: N_3  and  C_4 
REMARK    3  A    between atoms: N_3  and  C_37 
REMARK    4  A    between atoms: C_7  and  C_8 
REMARK    5  A    between atoms: N_9  and  C_11 
REMARK    6  A    between atoms: C_11  and  C_12 
REMARK       I    between atoms: C_12  and  N_13 
REMARK    7  A    between atoms: N_13  and  C_14 
REMARK    8  A    between atoms: C_20  and  C_21 
REMARK    9  A    between atoms: C_21  and  O_22 
REMARK   10  A    between atoms: C_28  and  O_29 
ROOT
HETATM    1  C   UNL     1      42.434 -13.630   4.098  1.00  0.00     0.228 C 
HETATM    2  N   UNL     1      42.395 -15.077   4.644  1.00  0.00    -0.054 N 
HETATM    3  H   UNL     1      42.844 -15.630   3.898  1.00  0.00     0.281 HD
HETATM    4  C   UNL     1      40.998 -15.605   4.885  1.00  0.00     0.239 C 
HETATM    5  C   UNL     1      40.221 -14.704   5.830  1.00  0.00     0.066 C 
HETATM    6  C   UNL     1      40.179 -13.255   5.326  1.00  0.00     0.065 C 
HETATM    7  C   UNL     1      41.616 -12.736   5.093  1.00  0.00     0.055 C 
HETATM    8  C   UNL     1      39.415 -12.387   6.345  1.00  0.00     0.038 C 
HETATM    9  C   UNL     1      39.481 -10.892   6.040  1.00  0.00     0.003 C 
HETATM   10  C   UNL     1      40.918 -10.422   5.862  1.00  0.00     0.001 C 
HETATM   11  C   UNL     1      41.626 -11.229   4.775  1.00  0.00     0.010 C 
ENDROOT
BRANCH   2  12
HETATM   12  C   UNL     1      43.295 -15.330   5.863  1.00  0.00     0.338 C 
BRANCH  12  13
HETATM   13  C   UNL     1      44.010 -16.679   5.856  1.00  0.00     0.248 C 
HETATM   14  N   UNL     1      43.460 -17.544   4.932  1.00  0.00    -0.319 N 
HETATM   15  H   UNL     1      42.625 -17.256   4.415  1.00  0.00     0.169 HD
HETATM   16  O   UNL     1      44.944 -16.862   6.631  1.00  0.00    -0.271 OA
BRANCH  14  17
HETATM   17  C   UNL     1      43.869 -18.829   4.604  1.00  0.00     0.094 A 
HETATM   18  S   UNL     1      44.331 -19.939   5.787  1.00  0.00    -0.076 SA
HETATM   19  C   UNL     1      44.706 -21.135   4.629  1.00  0.00    -0.012 A 
HETATM   20  C   UNL     1      45.231 -22.455   5.097  1.00  0.00     0.057 C 
HETATM   21  C   UNL     1      44.445 -20.711   3.332  1.00  0.00    -0.030 A 
HETATM   22  C   UNL     1      44.636 -21.568   2.115  1.00  0.00     0.050 C 
HETATM   23  C   UNL     1      43.973 -19.334   3.313  1.00  0.00     0.080 A 
BRANCH  23  24
HETATM   24  C   UNL     1      43.622 -18.503   2.151  1.00  0.00     0.296 C 
HETATM   25  O   UNL     1      44.346 -17.579   1.779  1.00  0.00    -0.259 OA
BRANCH  24  26
HETATM   26  O   UNL     1      42.460 -18.859   1.544  1.00  0.00    -0.322 OA
HETATM   27  C   UNL     1      41.387 -17.917   1.628  1.00  0.00     0.213 C 
ENDBRANCH  24  26
ENDBRANCH  23  24
ENDBRANCH  14  17
ENDBRANCH  12  13
ENDBRANCH   2  12
BRANCH   1  28
HETATM   28  C   UNL     1      42.102 -13.489   2.607  1.00  0.00    -0.027 C 
HETATM   29  C   UNL     1      42.110 -14.535   1.681  1.00  0.00     0.011 C 
HETATM   30  C   UNL     1      41.584 -14.378   0.386  1.00  0.00     0.030 C 
HETATM   31  C   UNL     1      41.034 -13.173  -0.064  1.00  0.00     0.030 C 
HETATM   32  C   UNL     1      41.219 -12.088   0.801  1.00  0.00     0.030 C 
HETATM   33  C   UNL     1      41.755 -12.235   2.091  1.00  0.00     0.011 C 
BRANCH  31  34
HETATM   34  N   UNL     1      40.369 -13.047  -1.283  1.00  0.00    -0.382 N 
BRANCH  34  35
HETATM   35  C   UNL     1      39.200 -13.906  -1.561  1.00  0.00     0.118 C 
HETATM   36  C   UNL     1      38.072 -13.651  -0.569  1.00  0.00     0.026 C 
ENDBRANCH  34  35
BRANCH  34  37
HETATM   37  C   UNL     1      41.059 -12.541  -2.483  1.00  0.00     0.118 C 
HETATM   38  C   UNL     1      41.232 -13.648  -3.511  1.00  0.00     0.026 C 
ENDBRANCH  34  37
ENDBRANCH  31  34
ENDBRANCH   1  28
BRANCH   6  39
HETATM   39  O   UNL     1      39.453 -13.284   4.101  1.00  0.00    -0.389 OA
HETATM   40  H   UNL     1      39.074 -14.169   3.949  1.00  0.00     0.210 HD
ENDBRANCH   6  39
TORSDOF 10
ENDMDL
MODEL 4
REMARK VINA RESULT:      -8.3      1.498      2.218
REMARK  10 active torsions:
REMARK  status: ('A' for Active; 'I' for Inactive)
REMARK    1  A    between atoms: C_2  and  N_3 
REMARK    2  A    between atoms: N_3  and  C_4 
REMARK    3  A    between atoms: N_3  and  C_37 
REMARK    4  A    between atoms: C_7  and  C_8 
REMARK    5  A    between atoms: N_9  and  C_11 
REMARK    6  A    between atoms: C_11  and  C_12 
REMARK       I    between atoms: C_12  and  N_13 
REMARK    7  A    between atoms: N_13  and  C_14 
REMARK    8  A    between atoms: C_20  and  C_21 
REMARK    9  A    between atoms: C_21  and  O_22 
REMARK   10  A    between atoms: C_28  and  O_29 
ROOT
HETATM    1  C   UNL     1      42.582 -14.408   3.760  1.00  0.00     0.228 C 
HETATM    2  N   UNL     1      42.036 -13.917   5.121  1.00  0.00    -0.054 N 
HETATM    3  H   UNL     1      42.733 -14.261   5.800  1.00  0.00     0.281 HD
HETATM    4  C   UNL     1      40.676 -14.476   5.475  1.00  0.00     0.239 C 
HETATM    5  C   UNL     1      39.651 -14.167   4.397  1.00  0.00     0.066 C 
HETATM    6  C   UNL     1      40.108 -14.668   3.020  1.00  0.00     0.065 C 
HETATM    7  C   UNL     1      41.495 -14.080   2.678  1.00  0.00     0.055 C 
HETATM    8  C   UNL     1      39.048 -14.288   1.967  1.00  0.00     0.038 C 
HETATM    9  C   UNL     1      39.492 -14.566   0.532  1.00  0.00     0.003 C 
HETATM   10  C   UNL     1      40.842 -13.929   0.232  1.00  0.00     0.001 C 
HETATM   11  C   UNL     1      41.900 -14.400   1.227  1.00  0.00     0.010 C 
ENDROOT
BRANCH   2  12
HETATM   12  C   UNL     1      42.071 -12.394   5.318  1.00  0.00     0.338 C 
BRANCH  12  13
HETATM   13  C   UNL     1      41.611 -11.921   6.695  1.00  0.00     0.248 C 
HETATM   14  N   UNL     1      42.662 -11.432   7.445  1.00  0.00    -0.319 N 
HETATM   15  H   UNL     1      43.612 -11.492   7.070  1.00  0.00     0.169 HD
HETATM   16  O   UNL     1      40.424 -12.022   6.994  1.00  0.00    -0.271 OA
BRANCH  14  17
HETATM   17  C   UNL     1      42.627 -10.871   8.714  1.00  0.00     0.094 A 
HETATM   18  S   UNL     1      43.391 -11.605  10.026  1.00  0.00    -0.076 SA
HETATM   19  C   UNL     1      42.855 -10.401  11.110  1.00  0.00    -0.012 A 
HETATM   20  C   UNL     1      43.224 -10.515  12.556  1.00  0.00     0.057 C 
HETATM   21  C   UNL     1      42.122  -9.409  10.474  1.00  0.00    -0.030 A 
HETATM   22  C   UNL     1      41.563  -8.202  11.169  1.00  0.00     0.050 C 
HETATM   23  C   UNL     1      41.962  -9.699   9.056  1.00  0.00     0.080 A 
BRANCH  23  24
HETATM   24  C   UNL     1      41.229  -8.927   8.040  1.00  0.00     0.296 C 
HETATM   25  O   UNL     1      41.811  -8.388   7.100  1.00  0.00    -0.259 OA
BRANCH  24  26
HETATM   26  O   UNL     1      39.886  -8.885   8.238  1.00  0.00    -0.322 OA
HETATM   27  C   UNL     1      39.081  -8.661   7.077  1.00  0.00     0.213 C 
ENDBRANCH  24  26
ENDBRANCH  23  24
ENDBRANCH  14  17
ENDBRANCH  12  13
ENDBRANCH   2  12
BRANCH   1  28
HETATM   28  C   UNL     1      43.147 -15.834   3.762  1.00  0.00    -0.027 C 
HETATM   29  C   UNL     1      43.179 -16.682   4.872  1.00  0.00     0.011 C 
HETATM   30  C   UNL     1      43.507 -18.045   4.750  1.00  0.00     0.030 C 
HETATM   31  C   UNL     1      43.830 -18.636   3.524  1.00  0.00     0.030 C 
HETATM   32  C   UNL     1      43.990 -17.735   2.465  1.00  0.00     0.030 C 
HETATM   33  C   UNL     1      43.677 -16.370   2.582  1.00  0.00     0.011 C 
BRANCH  31  34
HETATM   34  N   UNL     1      44.001 -20.010   3.362  1.00  0.00    -0.382 N 
BRANCH  34  35
HETATM   35  C   UNL     1      45.125 -20.684   4.042  1.00  0.00     0.118 C 
HETATM   36  C   UNL     1      44.653 -21.453   5.270  1.00  0.00     0.026 C 
ENDBRANCH  34  35
BRANCH  34  37
HETATM   37  C   UNL     1      43.501 -20.708   2.163  1.00  0.00     0.118 C 
HETATM   38  C   UNL     1      44.477 -21.789   1.724  1.00  0.00     0.026 C 
ENDBRANCH  34  37
ENDBRANCH  31  34
ENDBRANCH   1  28
BRANCH   6  39
HETATM   39  O   UNL     1      40.178 -16.087   3.120  1.00  0.00    -0.389 OA
HETATM   40  H   UNL     1      40.467 -16.353   4.012  1.00  0.00     0.210 HD
ENDBRANCH   6  39
TORSDOF 10
ENDMDL
MODEL 5
REMARK VINA RESULT:      -8.3      2.778      4.952
REMARK  10 active torsions:
REMARK  status: ('A' for Active; 'I' for Inactive)
REMARK    1  A    between atoms: C_2  and  N_3 
REMARK    2  A    between atoms: N_3  and  C_4 
REMARK    3  A    between atoms: N_3  and  C_37 
REMARK    4  A    between atoms: C_7  and  C_8 
REMARK    5  A    between atoms: N_9  and  C_11 
REMARK    6  A    between atoms: C_11  and  C_12 
REMARK       I    between atoms: C_12  and  N_13 
REMARK    7  A    between atoms: N_13  and  C_14 
REMARK    8  A    between atoms: C_20  and  C_21 
REMARK    9  A    between atoms: C_21  and  O_22 
REMARK   10  A    between atoms: C_28  and  O_29 
ROOT
HETATM    1  C   UNL     1      39.931 -14.030   4.730  1.00  0.00     0.228 C 
HETATM    2  N   UNL     1      40.010 -12.673   5.468  1.00  0.00    -0.054 N 
HETATM    3  H   UNL     1      39.358 -12.071   4.941  1.00  0.00     0.281 HD
HETATM    4  C   UNL     1      41.387 -12.046   5.457  1.00  0.00     0.239 C 
HETATM    5  C   UNL     1      42.428 -12.984   6.044  1.00  0.00     0.066 C 
HETATM    6  C   UNL     1      42.437 -14.342   5.327  1.00  0.00     0.065 C 
HETATM    7  C   UNL     1      41.023 -14.964   5.357  1.00  0.00     0.055 C 
HETATM    8  C   UNL     1      43.481 -15.258   5.995  1.00  0.00     0.038 C 
HETATM    9  C   UNL     1      43.438 -16.699   5.487  1.00  0.00     0.003 C 
HETATM   10  C   UNL     1      42.034 -17.280   5.578  1.00  0.00     0.001 C 
HETATM   11  C   UNL     1      41.032 -16.408   4.823  1.00  0.00     0.010 C 
ENDROOT
BRANCH   2  12
HETATM   12  C   UNL     1      39.421 -12.676   6.888  1.00  0.00     0.338 C 
BRANCH  12  13
HETATM   13  C   UNL     1      39.505 -11.334   7.613  1.00  0.00     0.248 C 
HETATM   14  N   UNL     1      40.010 -11.475   8.890  1.00  0.00    -0.319 N 
HETATM   15  H   UNL     1      40.203 -12.413   9.249  1.00  0.00     0.169 HD
HETATM   16  O   UNL     1      39.130 -10.320   7.033  1.00  0.00    -0.271 OA
BRANCH  14  17
HETATM   17  C   UNL     1      40.278 -10.484   9.824  1.00  0.00     0.094 A 
HETATM   18  S   UNL     1      39.043  -9.592  10.546  1.00  0.00    -0.076 SA
HETATM   19  C   UNL     1      40.145  -8.641  11.437  1.00  0.00    -0.012 A 
HETATM   20  C   UNL     1      39.614  -7.564  12.328  1.00  0.00     0.057 C 
HETATM   21  C   UNL     1      41.463  -9.022  11.221  1.00  0.00    -0.030 A 
HETATM   22  C   UNL     1      42.641  -8.393  11.905  1.00  0.00     0.050 C 
HETATM   23  C   UNL     1      41.547 -10.098  10.244  1.00  0.00     0.080 A 
BRANCH  23  24
HETATM   24  C   UNL     1      42.748 -10.760   9.711  1.00  0.00     0.296 C 
HETATM   25  O   UNL     1      43.127 -10.570   8.556  1.00  0.00    -0.259 OA
BRANCH  24  26
HETATM   26  O   UNL     1      43.379 -11.566  10.603  1.00  0.00    -0.322 OA
HETATM   27  C   UNL     1      44.768 -11.306  10.821  1.00  0.00     0.213 C 
ENDBRANCH  24  26
ENDBRANCH  23  24
ENDBRANCH  14  17
ENDBRANCH  12  13
ENDBRANCH   2  12
BRANCH   1  28
HETATM   28  C   UNL     1      39.897 -13.936   3.200  1.00  0.00    -0.027 C 
HETATM   29  C   UNL     1      40.012 -12.753   2.466  1.00  0.00     0.011 C 
HETATM   30  C   UNL     1      40.194 -12.764   1.071  1.00  0.00     0.030 C 
HETATM   31  C   UNL     1      40.260 -13.948   0.329  1.00  0.00     0.030 C 
HETATM   32  C   UNL     1      39.941 -15.106   1.047  1.00  0.00     0.030 C 
HETATM   33  C   UNL     1      39.746 -15.101   2.438  1.00  0.00     0.011 C 
BRANCH  31  34
HETATM   34  N   UNL     1      40.596 -13.982  -1.024  1.00  0.00    -0.382 N 
BRANCH  34  35
HETATM   35  C   UNL     1      41.098 -15.240  -1.613  1.00  0.00     0.118 C 
HETATM   36  C   UNL     1      40.414 -15.545  -2.941  1.00  0.00     0.026 C 
ENDBRANCH  34  35
BRANCH  34  37
HETATM   37  C   UNL     1      41.006 -12.761  -1.743  1.00  0.00     0.118 C 
HETATM   38  C   UNL     1      42.520 -12.695  -1.870  1.00  0.00     0.026 C 
ENDBRANCH  34  37
ENDBRANCH  31  34
ENDBRANCH   1  28
BRANCH   6  39
HETATM   39  O   UNL     1      42.839 -14.077   3.987  1.00  0.00    -0.389 OA
HETATM   40  H   UNL     1      43.789 -14.263   3.872  1.00  0.00     0.210 HD
ENDBRANCH   6  39
TORSDOF 10
ENDMDL
MODEL 6
REMARK VINA RESULT:      -8.3      4.068      8.752
REMARK  10 active torsions:
REMARK  status: ('A' for Active; 'I' for Inactive)
REMARK    1  A    between atoms: C_2  and  N_3 
REMARK    2  A    between atoms: N_3  and  C_4 
REMARK    3  A    between atoms: N_3  and  C_37 
REMARK    4  A    between atoms: C_7  and  C_8 
REMARK    5  A    between atoms: N_9  and  C_11 
REMARK    6  A    between atoms: C_11  and  C_12 
REMARK       I    between atoms: C_12  and  N_13 
REMARK    7  A    between atoms: N_13  and  C_14 
REMARK    8  A    between atoms: C_20  and  C_21 
REMARK    9  A    between atoms: C_21  and  O_22 
REMARK   10  A    between atoms: C_28  and  O_29 
ROOT
HETATM    1  C   UNL     1      40.897 -15.560   2.555  1.00  0.00     0.228 C 
HETATM    2  N   UNL     1      41.178 -14.957   1.158  1.00  0.00    -0.054 N 
HETATM    3  H   UNL     1      41.438 -15.776   0.587  1.00  0.00     0.281 HD
HETATM    4  C   UNL     1      42.311 -13.955   1.138  1.00  0.00     0.239 C 
HETATM    5  C   UNL     1      42.067 -12.822   2.121  1.00  0.00     0.066 C 
HETATM    6  C   UNL     1      41.824 -13.347   3.543  1.00  0.00     0.065 C 
HETATM    7  C   UNL     1      40.660 -14.362   3.539  1.00  0.00     0.055 C 
HETATM    8  C   UNL     1      41.542 -12.155   4.479  1.00  0.00     0.038 C 
HETATM    9  C   UNL     1      41.095 -12.576   5.879  1.00  0.00     0.003 C 
HETATM   10  C   UNL     1      39.919 -13.542   5.821  1.00  0.00     0.001 C 
HETATM   11  C   UNL     1      40.257 -14.764   4.970  1.00  0.00     0.010 C 
ENDROOT
BRANCH   2  12
HETATM   12  C   UNL     1      39.942 -14.400   0.436  1.00  0.00     0.338 C 
BRANCH  12  13
HETATM   13  C   UNL     1      40.169 -14.045  -1.032  1.00  0.00     0.248 C 
HETATM   14  N   UNL     1      40.148 -12.680  -1.236  1.00  0.00    -0.319 N 
HETATM   15  H   UNL     1      39.921 -12.062  -0.454  1.00  0.00     0.169 HD
HETATM   16  O   UNL     1      40.330 -14.950  -1.845  1.00  0.00    -0.271 OA
BRANCH  14  17
HETATM   17  C   UNL     1      40.366 -11.983  -2.417  1.00  0.00     0.094 A 
HETATM   18  S   UNL     1      41.922 -11.595  -2.941  1.00  0.00    -0.076 SA
HETATM   19  C   UNL     1      41.336 -10.767  -4.313  1.00  0.00    -0.012 A 
HETATM   20  C   UNL     1      42.317 -10.125  -5.242  1.00  0.00     0.057 C 
HETATM   21  C   UNL     1      39.951 -10.812  -4.404  1.00  0.00    -0.030 A 
HETATM   22  C   UNL     1      39.164 -10.209  -5.530  1.00  0.00     0.050 C 
HETATM   23  C   UNL     1      39.371 -11.510  -3.266  1.00  0.00     0.080 A 
BRANCH  23  24
HETATM   24  C   UNL     1      37.951 -11.746  -2.963  1.00  0.00     0.296 C 
HETATM   25  O   UNL     1      37.410 -11.236  -1.982  1.00  0.00    -0.259 OA
BRANCH  24  26
HETATM   26  O   UNL     1      37.318 -12.548  -3.857  1.00  0.00    -0.322 OA
HETATM   27  C   UNL     1      37.419 -13.956  -3.629  1.00  0.00     0.213 C 
ENDBRANCH  24  26
ENDBRANCH  23  24
ENDBRANCH  14  17
ENDBRANCH  12  13
ENDBRANCH   2  12
BRANCH   1  28
HETATM   28  C   UNL     1      41.887 -16.641   3.006  1.00  0.00    -0.027 C 
HETATM   29  C   UNL     1      41.797 -17.363   4.199  1.00  0.00     0.011 C 
HETATM   30  C   UNL     1      42.609 -18.485   4.446  1.00  0.00     0.030 C 
HETATM   31  C   UNL     1      43.560 -18.944   3.528  1.00  0.00     0.030 C 
HETATM   32  C   UNL     1      43.776 -18.095   2.437  1.00  0.00     0.030 C 
HETATM   33  C   UNL     1      42.978 -16.965   2.191  1.00  0.00     0.011 C 
BRANCH  31  34
HETATM   34  N   UNL     1      44.257 -20.141   3.687  1.00  0.00    -0.382 N 
BRANCH  34  35
HETATM   35  C   UNL     1      44.926 -20.423   4.973  1.00  0.00     0.118 C 
HETATM   36  C   UNL     1      44.626 -21.836   5.459  1.00  0.00     0.026 C 
ENDBRANCH  34  35
BRANCH  34  37
HETATM   37  C   UNL     1      44.826 -20.856   2.530  1.00  0.00     0.118 C 
HETATM   38  C   UNL     1      43.760 -21.686   1.833  1.00  0.00     0.026 C 
ENDBRANCH  34  37
ENDBRANCH  31  34
ENDBRANCH   1  28
BRANCH   6  39
HETATM   39  O   UNL     1      43.037 -13.978   3.943  1.00  0.00    -0.389 OA
HETATM   40  H   UNL     1      42.877 -14.913   4.165  1.00  0.00     0.210 HD
ENDBRANCH   6  39
TORSDOF 10
ENDMDL
MODEL 7
REMARK VINA RESULT:      -8.1      4.943      9.279
REMARK  10 active torsions:
REMARK  status: ('A' for Active; 'I' for Inactive)
REMARK    1  A    between atoms: C_2  and  N_3 
REMARK    2  A    between atoms: N_3  and  C_4 
REMARK    3  A    between atoms: N_3  and  C_37 
REMARK    4  A    between atoms: C_7  and  C_8 
REMARK    5  A    between atoms: N_9  and  C_11 
REMARK    6  A    between atoms: C_11  and  C_12 
REMARK       I    between atoms: C_12  and  N_13 
REMARK    7  A    between atoms: N_13  and  C_14 
REMARK    8  A    between atoms: C_20  and  C_21 
REMARK    9  A    between atoms: C_21  and  O_22 
REMARK   10  A    between atoms: C_28  and  O_29 
ROOT
HETATM    1  C   UNL     1      39.686 -14.107  -1.146  1.00  0.00     0.228 C 
HETATM    2  N   UNL     1      40.214 -14.823   0.119  1.00  0.00    -0.054 N 
HETATM    3  H   UNL     1      39.359 -15.188   0.567  1.00  0.00     0.281 HD
HETATM    4  C   UNL     1      40.934 -13.910   1.087  1.00  0.00     0.239 C 
HETATM    5  C   UNL     1      42.090 -13.189   0.414  1.00  0.00     0.066 C 
HETATM    6  C   UNL     1      41.629 -12.416  -0.830  1.00  0.00     0.065 C 
HETATM    7  C   UNL     1      40.903 -13.370  -1.805  1.00  0.00     0.055 C 
HETATM    8  C   UNL     1      42.850 -11.744  -1.488  1.00  0.00     0.038 C 
HETATM    9  C   UNL     1      42.537 -11.109  -2.842  1.00  0.00     0.003 C 
HETATM   10  C   UNL     1      41.863 -12.101  -3.780  1.00  0.00     0.001 C 
HETATM   11  C   UNL     1      40.598 -12.679  -3.147  1.00  0.00     0.010 C 
ENDROOT
BRANCH   2  12
HETATM   12  C   UNL     1      41.039 -16.090  -0.155  1.00  0.00     0.338 C 
BRANCH  12  13
HETATM   13  C   UNL     1      41.277 -16.970   1.070  1.00  0.00     0.248 C 
HETATM   14  N   UNL     1      42.620 -17.225   1.263  1.00  0.00    -0.319 N 
HETATM   15  H   UNL     1      43.296 -16.888   0.573  1.00  0.00     0.169 HD
HETATM   16  O   UNL     1      40.312 -17.355   1.724  1.00  0.00    -0.271 OA
BRANCH  14  17
HETATM   17  C   UNL     1      43.223 -17.937   2.291  1.00  0.00     0.094 A 
HETATM   18  S   UNL     1      43.725 -19.533   2.085  1.00  0.00    -0.076 SA
HETATM   19  C   UNL     1      44.256 -19.656   3.703  1.00  0.00    -0.012 A 
HETATM   20  C   UNL     1      44.833 -20.952   4.177  1.00  0.00     0.057 C 
HETATM   21  C   UNL     1      44.091 -18.468   4.402  1.00  0.00    -0.030 A 
HETATM   22  C   UNL     1      44.511 -18.269   5.829  1.00  0.00     0.050 C 
HETATM   23  C   UNL     1      43.454 -17.454   3.575  1.00  0.00     0.080 A 
BRANCH  23  24
HETATM   24  C   UNL     1      43.070 -16.081   3.941  1.00  0.00     0.296 C 
HETATM   25  O   UNL     1      42.261 -15.859   4.841  1.00  0.00    -0.259 OA
BRANCH  24  26
HETATM   26  O   UNL     1      43.693 -15.118   3.213  1.00  0.00    -0.322 OA
HETATM   27  C   UNL     1      43.622 -13.787   3.730  1.00  0.00     0.213 C 
ENDBRANCH  24  26
ENDBRANCH  23  24
ENDBRANCH  14  17
ENDBRANCH  12  13
ENDBRANCH   2  12
BRANCH   1  28
HETATM   28  C   UNL     1      38.408 -13.285  -0.941  1.00  0.00    -0.027 C 
HETATM   29  C   UNL     1      37.720 -13.160   0.269  1.00  0.00     0.011 C 
HETATM   30  C   UNL     1      36.687 -12.218   0.437  1.00  0.00     0.030 C 
HETATM   31  C   UNL     1      36.275 -11.361  -0.588  1.00  0.00     0.030 C 
HETATM   32  C   UNL     1      36.831 -11.639  -1.841  1.00  0.00     0.030 C 
HETATM   33  C   UNL     1      37.854 -12.585  -2.020  1.00  0.00     0.011 C 
BRANCH  31  34
HETATM   34  N   UNL     1      35.367 -10.320  -0.392  1.00  0.00    -0.382 N 
BRANCH  34  35
HETATM   35  C   UNL     1      33.919 -10.606  -0.440  1.00  0.00     0.118 C 
HETATM   36  C   UNL     1      33.239 -10.261   0.879  1.00  0.00     0.026 C 
ENDBRANCH  34  35
BRANCH  34  37
HETATM   37  C   UNL     1      35.728  -8.923  -0.691  1.00  0.00     0.118 C 
HETATM   38  C   UNL     1      36.675  -8.373   0.364  1.00  0.00     0.026 C 
ENDBRANCH  34  37
ENDBRANCH  31  34
ENDBRANCH   1  28
BRANCH   6  39
HETATM   39  O   UNL     1      40.739 -11.408  -0.361  1.00  0.00    -0.389 OA
HETATM   40  H   UNL     1      41.175 -10.853   0.311  1.00  0.00     0.210 HD
ENDBRANCH   6  39
TORSDOF 10
ENDMDL
MODEL 8
REMARK VINA RESULT:      -8.1      3.574      8.570
REMARK  10 active torsions:
REMARK  status: ('A' for Active; 'I' for Inactive)
REMARK    1  A    between atoms: C_2  and  N_3 
REMARK    2  A    between atoms: N_3  and  C_4 
REMARK    3  A    between atoms: N_3  and  C_37 
REMARK    4  A    between atoms: C_7  and  C_8 
REMARK    5  A    between atoms: N_9  and  C_11 
REMARK    6  A    between atoms: C_11  and  C_12 
REMARK       I    between atoms: C_12  and  N_13 
REMARK    7  A    between atoms: N_13  and  C_14 
REMARK    8  A    between atoms: C_20  and  C_21 
REMARK    9  A    between atoms: C_21  and  O_22 
REMARK   10  A    between atoms: C_28  and  O_29 
ROOT
HETATM    1  C   UNL     1      41.088 -12.796   3.724  1.00  0.00     0.228 C 
HETATM    2  N   UNL     1      41.032 -14.176   4.418  1.00  0.00    -0.054 N 
HETATM    3  H   UNL     1      40.961 -14.841   3.633  1.00  0.00     0.281 HD
HETATM    4  C   UNL     1      39.841 -14.356   5.333  1.00  0.00     0.239 C 
HETATM    5  C   UNL     1      39.789 -13.271   6.396  1.00  0.00     0.066 C 
HETATM    6  C   UNL     1      39.796 -11.868   5.774  1.00  0.00     0.065 C 
HETATM    7  C   UNL     1      41.024 -11.706   4.850  1.00  0.00     0.055 C 
HETATM    8  C   UNL     1      39.785 -10.816   6.901  1.00  0.00     0.038 C 
HETATM    9  C   UNL     1      39.987  -9.387   6.399  1.00  0.00     0.003 C 
HETATM   10  C   UNL     1      41.232  -9.272   5.530  1.00  0.00     0.001 C 
HETATM   11  C   UNL     1      41.175 -10.254   4.361  1.00  0.00     0.010 C 
ENDROOT
BRANCH   2  12
HETATM   12  C   UNL     1      42.331 -14.598   5.122  1.00  0.00     0.338 C 
BRANCH  12  13
HETATM   13  C   UNL     1      42.507 -16.106   5.283  1.00  0.00     0.248 C 
HETATM   14  N   UNL     1      43.207 -16.654   4.226  1.00  0.00    -0.319 N 
HETATM   15  H   UNL     1      43.468 -16.057   3.438  1.00  0.00     0.169 HD
HETATM   16  O   UNL     1      42.031 -16.659   6.269  1.00  0.00    -0.271 OA
BRANCH  14  17
HETATM   17  C   UNL     1      43.602 -17.972   4.047  1.00  0.00     0.094 A 
HETATM   18  S   UNL     1      44.287 -18.869   5.300  1.00  0.00    -0.076 SA
HETATM   19  C   UNL     1      44.511 -20.236   4.303  1.00  0.00    -0.012 A 
HETATM   20  C   UNL     1      45.150 -21.457   4.884  1.00  0.00     0.057 C 
HETATM   21  C   UNL     1      44.029 -20.033   3.016  1.00  0.00    -0.030 A 
HETATM   22  C   UNL     1      44.051 -21.076   1.938  1.00  0.00     0.050 C 
HETATM   23  C   UNL     1      43.514 -18.682   2.854  1.00  0.00     0.080 A 
BRANCH  23  24
HETATM   24  C   UNL     1      42.950 -18.055   1.647  1.00  0.00     0.296 C 
HETATM   25  O   UNL     1      43.657 -17.777   0.678  1.00  0.00    -0.259 OA
BRANCH  24  26
HETATM   26  O   UNL     1      41.612 -17.835   1.710  1.00  0.00    -0.322 OA
HETATM   27  C   UNL     1      41.149 -16.589   1.183  1.00  0.00     0.213 C 
ENDBRANCH  24  26
ENDBRANCH  23  24
ENDBRANCH  14  17
ENDBRANCH  12  13
ENDBRANCH   2  12
BRANCH   1  28
HETATM   28  C   UNL     1      40.128 -12.625   2.540  1.00  0.00    -0.027 C 
HETATM   29  C   UNL     1      40.144 -11.554   1.643  1.00  0.00     0.011 C 
HETATM   30  C   UNL     1      39.384 -11.572   0.458  1.00  0.00     0.030 C 
HETATM   31  C   UNL     1      38.560 -12.646   0.108  1.00  0.00     0.030 C 
HETATM   32  C   UNL     1      38.401 -13.611   1.109  1.00  0.00     0.030 C 
HETATM   33  C   UNL     1      39.147 -13.594   2.299  1.00  0.00     0.011 C 
BRANCH  31  34
HETATM   34  N   UNL     1      37.927 -12.748  -1.131  1.00  0.00    -0.382 N 
BRANCH  34  35
HETATM   35  C   UNL     1      38.149 -13.951  -1.959  1.00  0.00     0.118 C 
HETATM   36  C   UNL     1      39.590 -14.031  -2.449  1.00  0.00     0.026 C 
ENDBRANCH  34  35
BRANCH  34  37
HETATM   37  C   UNL     1      37.523 -11.549  -1.886  1.00  0.00     0.118 C 
HETATM   38  C   UNL     1      36.116 -11.120  -1.503  1.00  0.00     0.026 C 
ENDBRANCH  34  37
ENDBRANCH  31  34
ENDBRANCH   1  28
BRANCH   6  39
HETATM   39  O   UNL     1      38.590 -11.761   5.025  1.00  0.00    -0.389 OA
HETATM   40  H   UNL     1      38.304 -10.831   4.967  1.00  0.00     0.210 HD
ENDBRANCH   6  39
TORSDOF 10
ENDMDL
MODEL 9
REMARK VINA RESULT:      -7.9      4.070      8.257
REMARK  10 active torsions:
REMARK  status: ('A' for Active; 'I' for Inactive)
REMARK    1  A    between atoms: C_2  and  N_3 
REMARK    2  A    between atoms: N_3  and  C_4 
REMARK    3  A    between atoms: N_3  and  C_37 
REMARK    4  A    between atoms: C_7  and  C_8 
REMARK    5  A    between atoms: N_9  and  C_11 
REMARK    6  A    between atoms: C_11  and  C_12 
REMARK       I    between atoms: C_12  and  N_13 
REMARK    7  A    between atoms: N_13  and  C_14 
REMARK    8  A    between atoms: C_20  and  C_21 
REMARK    9  A    between atoms: C_21  and  O_22 
REMARK   10  A    between atoms: C_28  and  O_29 
ROOT
HETATM    1  C   UNL     1      40.885 -12.702   2.638  1.00  0.00     0.228 C 
HETATM    2  N   UNL     1      40.872 -14.022   3.445  1.00  0.00    -0.054 N 
HETATM    3  H   UNL     1      40.855 -14.752   2.716  1.00  0.00     0.281 HD
HETATM    4  C   UNL     1      39.664 -14.182   4.341  1.00  0.00     0.239 C 
HETATM    5  C   UNL     1      39.531 -13.017   5.307  1.00  0.00     0.066 C 
HETATM    6  C   UNL     1      39.492 -11.671   4.570  1.00  0.00     0.065 C 
HETATM    7  C   UNL     1      40.737 -11.527   3.667  1.00  0.00     0.055 C 
HETATM    8  C   UNL     1      39.399 -10.532   5.604  1.00  0.00     0.038 C 
HETATM    9  C   UNL     1      39.550  -9.141   4.990  1.00  0.00     0.003 C 
HETATM   10  C   UNL     1      40.813  -9.038   4.146  1.00  0.00     0.001 C 
HETATM   11  C   UNL     1      40.835 -10.115   3.063  1.00  0.00     0.010 C 
ENDROOT
BRANCH   2  12
HETATM   12  C   UNL     1      42.168 -14.320   4.215  1.00  0.00     0.338 C 
BRANCH  12  13
HETATM   13  C   UNL     1      43.010 -15.450   3.627  1.00  0.00     0.248 C 
HETATM   14  N   UNL     1      42.692 -16.670   4.190  1.00  0.00    -0.319 N 
HETATM   15  H   UNL     1      42.017 -16.704   4.957  1.00  0.00     0.169 HD
HETATM   16  O   UNL     1      43.847 -15.185   2.770  1.00  0.00    -0.271 OA
BRANCH  14  17
HETATM   17  C   UNL     1      43.204 -17.922   3.879  1.00  0.00     0.094 A 
HETATM   18  S   UNL     1      42.953 -18.629   2.368  1.00  0.00    -0.076 SA
HETATM   19  C   UNL     1      43.790 -20.049   2.808  1.00  0.00    -0.012 A 
HETATM   20  C   UNL     1      43.903 -21.160   1.812  1.00  0.00     0.057 C 
HETATM   21  C   UNL     1      44.303 -19.980   4.097  1.00  0.00    -0.030 A 
HETATM   22  C   UNL     1      45.121 -21.064   4.734  1.00  0.00     0.050 C 
HETATM   23  C   UNL     1      43.933 -18.730   4.744  1.00  0.00     0.080 A 
BRANCH  23  24
HETATM   24  C   UNL     1      44.240 -18.280   6.111  1.00  0.00     0.296 C 
HETATM   25  O   UNL     1      45.387 -17.988   6.449  1.00  0.00    -0.259 OA
BRANCH  24  26
HETATM   26  O   UNL     1      43.158 -18.213   6.929  1.00  0.00    -0.322 OA
HETATM   27  C   UNL     1      43.225 -17.259   7.992  1.00  0.00     0.213 C 
ENDBRANCH  24  26
ENDBRANCH  23  24
ENDBRANCH  14  17
ENDBRANCH  12  13
ENDBRANCH   2  12
BRANCH   1  28
HETATM   28  C   UNL     1      39.954 -12.676   1.420  1.00  0.00    -0.027 C 
HETATM   29  C   UNL     1      39.883 -11.638   0.487  1.00  0.00     0.011 C 
HETATM   30  C   UNL     1      39.172 -11.778  -0.719  1.00  0.00     0.030 C 
HETATM   31  C   UNL     1      38.484 -12.947  -1.057  1.00  0.00     0.030 C 
HETATM   32  C   UNL     1      38.396 -13.892  -0.029  1.00  0.00     0.030 C 
HETATM   33  C   UNL     1      39.094 -13.755   1.183  1.00  0.00     0.011 C 
BRANCH  31  34
HETATM   34  N   UNL     1      37.909 -13.158  -2.310  1.00  0.00    -0.382 N 
BRANCH  34  35
HETATM   35  C   UNL     1      36.914 -12.194  -2.821  1.00  0.00     0.118 C 
HETATM   36  C   UNL     1      37.490 -11.342  -3.946  1.00  0.00     0.026 C 
ENDBRANCH  34  35
BRANCH  34  37
HETATM   37  C   UNL     1      37.806 -14.511  -2.888  1.00  0.00     0.118 C 
HETATM   38  C   UNL     1      39.099 -14.896  -3.590  1.00  0.00     0.026 C 
ENDBRANCH  34  37
ENDBRANCH  31  34
ENDBRANCH   1  28
BRANCH   6  39
HETATM   39  O   UNL     1      38.304 -11.686   3.784  1.00  0.00    -0.389 OA
HETATM   40  H   UNL     1      37.516 -11.665   4.356  1.00  0.00     0.210 HD
ENDBRANCH   6  39
TORSDOF 10
ENDMDL
MODEL 10
REMARK VINA RESULT:      -7.8      3.281      8.943
REMARK  10 active torsions:
REMARK  status: ('A' for Active; 'I' for Inactive)
REMARK    1  A    between atoms: C_2  and  N_3 
REMARK    2  A    between atoms: N_3  and  C_4 
REMARK    3  A    between atoms: N_3  and  C_37 
REMARK    4  A    between atoms: C_7  and  C_8 
REMARK    5  A    between atoms: N_9  and  C_11 
REMARK    6  A    between atoms: C_11  and  C_12 
REMARK       I    between atoms: C_12  and  N_13 
REMARK    7  A    between atoms: N_13  and  C_14 
REMARK    8  A    between atoms: C_20  and  C_21 
REMARK    9  A    between atoms: C_21  and  O_22 
REMARK   10  A    between atoms: C_28  and  O_29 
ROOT
HETATM    1  C   UNL     1      43.710 -15.414   4.768  1.00  0.00     0.228 C 
HETATM    2  N   UNL     1      42.564 -15.433   3.729  1.00  0.00    -0.054 N 
HETATM    3  H   UNL     1      42.492 -14.449   3.428  1.00  0.00     0.281 HD
HETATM    4  C   UNL     1      41.233 -15.882   4.291  1.00  0.00     0.239 C 
HETATM    5  C   UNL     1      41.336 -17.255   4.932  1.00  0.00     0.066 C 
HETATM    6  C   UNL     1      42.428 -17.298   6.009  1.00  0.00     0.065 C 
HETATM    7  C   UNL     1      43.778 -16.842   5.411  1.00  0.00     0.055 C 
HETATM    8  C   UNL     1      42.510 -18.724   6.589  1.00  0.00     0.038 C 
HETATM    9  C   UNL     1      43.695 -18.928   7.532  1.00  0.00     0.003 C 
HETATM   10  C   UNL     1      45.005 -18.506   6.880  1.00  0.00     0.001 C 
HETATM   11  C   UNL     1      44.935 -17.056   6.404  1.00  0.00     0.010 C 
ENDROOT
BRANCH   2  12
HETATM   12  C   UNL     1      42.888 -16.180   2.426  1.00  0.00     0.338 C 
BRANCH  12  13
HETATM   13  C   UNL     1      41.880 -15.959   1.300  1.00  0.00     0.248 C 
HETATM   14  N   UNL     1      41.731 -14.620   1.004  1.00  0.00    -0.319 N 
HETATM   15  H   UNL     1      42.218 -13.925   1.575  1.00  0.00     0.169 HD
HETATM   16  O   UNL     1      41.324 -16.932   0.800  1.00  0.00    -0.271 OA
BRANCH  14  17
HETATM   17  C   UNL     1      40.950 -14.038   0.015  1.00  0.00     0.094 A 
HETATM   18  S   UNL     1      41.586 -13.641  -1.496  1.00  0.00    -0.076 SA
HETATM   19  C   UNL     1      40.106 -12.982  -2.032  1.00  0.00    -0.012 A 
HETATM   20  C   UNL     1      40.031 -12.398  -3.407  1.00  0.00     0.057 C 
HETATM   21  C   UNL     1      39.103 -13.096  -1.078  1.00  0.00    -0.030 A 
HETATM   22  C   UNL     1      37.688 -12.645  -1.290  1.00  0.00     0.050 C 
HETATM   23  C   UNL     1      39.608 -13.698   0.147  1.00  0.00     0.080 A 
BRANCH  23  24
HETATM   24  C   UNL     1      38.887 -13.961   1.403  1.00  0.00     0.296 C 
HETATM   25  O   UNL     1      38.575 -15.104   1.737  1.00  0.00    -0.259 OA
BRANCH  24  26
HETATM   26  O   UNL     1      38.623 -12.848   2.135  1.00  0.00    -0.322 OA
HETATM   27  C   UNL     1      39.582 -12.508   3.140  1.00  0.00     0.213 C 
ENDBRANCH  24  26
ENDBRANCH  23  24
ENDBRANCH  14  17
ENDBRANCH  12  13
ENDBRANCH   2  12
BRANCH   1  28
HETATM   28  C   UNL     1      43.693 -14.221   5.732  1.00  0.00    -0.027 C 
HETATM   29  C   UNL     1      42.702 -13.237   5.773  1.00  0.00     0.011 C 
HETATM   30  C   UNL     1      42.634 -12.301   6.821  1.00  0.00     0.030 C 
HETATM   31  C   UNL     1      43.551 -12.284   7.877  1.00  0.00     0.030 C 
HETATM   32  C   UNL     1      44.646 -13.140   7.713  1.00  0.00     0.030 C 
HETATM   33  C   UNL     1      44.727 -14.068   6.662  1.00  0.00     0.011 C 
BRANCH  31  34
HETATM   34  N   UNL     1      43.405 -11.470   9.000  1.00  0.00    -0.382 N 
BRANCH  34  35
HETATM   35  C   UNL     1      44.061 -11.859  10.265  1.00  0.00     0.118 C 
HETATM   36  C   UNL     1      45.329 -11.049  10.507  1.00  0.00     0.026 C 
ENDBRANCH  34  35
BRANCH  34  37
HETATM   37  C   UNL     1      42.234 -10.589   9.161  1.00  0.00     0.118 C 
HETATM   38  C   UNL     1      41.633 -10.742  10.550  1.00  0.00     0.026 C 
ENDBRANCH  34  37
ENDBRANCH  31  34
ENDBRANCH   1  28
BRANCH   6  39
HETATM   39  O   UNL     1      42.007 -16.402   7.033  1.00  0.00    -0.389 OA
HETATM   40  H   UNL     1      42.757 -15.861   7.343  1.00  0.00     0.210 HD
ENDBRANCH   6  39
TORSDOF 10
ENDMDL
