MODEL 1
REMARK VINA RESULT:      -9.2      0.000      0.000
REMARK  5 active torsions:
REMARK  status: ('A' for Active; 'I' for Inactive)
REMARK    1  A    between atoms: C_2  and  C_3 
REMARK    2  A    between atoms: C_8  and  C_9 
REMARK       I    between atoms: C_9  and  N_10 
REMARK    3  A    between atoms: N_10  and  C_11 
REMARK    4  A    between atoms: C_11  and  C_12 
REMARK    5  A    between atoms: C_19  and  C_20 
ROOT
HETATM    1  C   UNL     1      42.849 -17.036   2.717  1.00  0.00     0.118 C 
HETATM    2  N   UNL     1      43.460 -15.893   3.393  1.00  0.00    -0.366 N 
HETATM    3  C   UNL     1      42.733 -14.874   3.892  1.00  0.00     0.123 A 
HETATM    4  N   UNL     1      41.411 -14.732   3.586  1.00  0.00    -0.240 N 
HETATM    5  N   UNL     1      40.787 -13.765   4.279  1.00  0.00    -0.165 NA
HETATM    6  C   UNL     1      41.788 -13.192   4.986  1.00  0.00     0.148 A 
HETATM    7  C   UNL     1      43.031 -13.845   4.743  1.00  0.00     0.088 A 
HETATM    8  C   UNL     1      40.698 -15.648   2.718  1.00  0.00     0.221 C 
HETATM    9  C   UNL     1      41.312 -17.049   2.875  1.00  0.00     0.066 C 
HETATM   10  H   UNL     1      44.456 -15.977   3.597  1.00  0.00     0.161 HD
ENDROOT
BRANCH   6  11
HETATM   11  C   UNL     1      41.557 -12.081   5.922  1.00  0.00     0.272 C 
HETATM   12  N   UNL     1      42.299 -12.175   7.077  1.00  0.00    -0.353 N 
HETATM   13  H   UNL     1      43.006 -12.908   7.080  1.00  0.00     0.162 HD
HETATM   14  O   UNL     1      40.803 -11.146   5.671  1.00  0.00    -0.266 OA
BRANCH  12  15
HETATM   15  C   UNL     1      42.467 -11.050   7.972  1.00  0.00     0.155 C 
BRANCH  15  16
HETATM   16  C   UNL     1      43.335 -11.417   9.172  1.00  0.00     0.139 C 
HETATM   17  O   UNL     1      44.735 -11.348   8.821  1.00  0.00    -0.384 OA
HETATM   18  C   UNL     1      45.453 -10.804   9.939  1.00  0.00     0.168 C 
HETATM   19  C   UNL     1      44.465 -10.662  11.078  1.00  0.00     0.029 C 
HETATM   20  C   UNL     1      43.161 -10.472  10.347  1.00  0.00     0.035 C 
ENDBRANCH  15  16
ENDBRANCH  12  15
ENDBRANCH   6  11
BRANCH   8  21
HETATM   21  C   UNL     1      40.732 -15.150   1.293  1.00  0.00     0.409 C 
HETATM   22  F   UNL     1      41.640 -14.168   1.107  1.00  0.00    -0.169 F 
HETATM   23  F   UNL     1      40.980 -16.119   0.387  1.00  0.00    -0.169 F 
HETATM   24  F   UNL     1      39.521 -14.623   0.967  1.00  0.00    -0.169 F 
ENDBRANCH   8  21
BRANCH   1  25
HETATM   25  C   UNL     1      43.464 -18.311   3.278  1.00  0.00    -0.034 A 
HETATM   26  C   UNL     1      43.844 -18.394   4.630  1.00  0.00     0.011 A 
HETATM   27  C   UNL     1      44.420 -19.559   5.142  1.00  0.00     0.026 A 
HETATM   28  C   UNL     1      44.629 -20.660   4.311  1.00  0.00     0.055 A 
HETATM   29  C   UNL     1      44.259 -20.593   2.964  1.00  0.00     0.056 A 
HETATM   30 CL   UNL     1      45.352 -22.066   5.007  1.00  0.00    -0.083 Cl
HETATM   31  C   UNL     1      43.678 -19.424   2.452  1.00  0.00     0.034 A 
HETATM   32 CL   UNL     1      44.494 -21.912   1.873  1.00  0.00    -0.083 Cl
ENDBRANCH   1  25
TORSDOF 5
ENDMDL
MODEL 2
REMARK VINA RESULT:      -9.2      4.106      7.356
REMARK  5 active torsions:
REMARK  status: ('A' for Active; 'I' for Inactive)
REMARK    1  A    between atoms: C_2  and  C_3 
REMARK    2  A    between atoms: C_8  and  C_9 
REMARK       I    between atoms: C_9  and  N_10 
REMARK    3  A    between atoms: N_10  and  C_11 
REMARK    4  A    between atoms: C_11  and  C_12 
REMARK    5  A    between atoms: C_19  and  C_20 
ROOT
HETATM    1  C   UNL     1      42.666 -16.933   3.628  1.00  0.00     0.118 C 
HETATM    2  N   UNL     1      41.236 -16.919   3.328  1.00  0.00    -0.366 N 
HETATM    3  C   UNL     1      40.650 -15.918   2.641  1.00  0.00     0.123 A 
HETATM    4  N   UNL     1      41.310 -14.749   2.396  1.00  0.00    -0.240 N 
HETATM    5  N   UNL     1      40.658 -13.913   1.571  1.00  0.00    -0.165 NA
HETATM    6  C   UNL     1      39.475 -14.537   1.365  1.00  0.00     0.148 A 
HETATM    7  C   UNL     1      39.424 -15.786   2.048  1.00  0.00     0.088 A 
HETATM    8  C   UNL     1      42.665 -14.497   2.843  1.00  0.00     0.221 C 
HETATM    9  C   UNL     1      43.430 -15.830   2.862  1.00  0.00     0.066 C 
HETATM   10  H   UNL     1      40.728 -17.778   3.539  1.00  0.00     0.161 HD
ENDROOT
BRANCH   6  11
HETATM   11  C   UNL     1      38.434 -13.983   0.485  1.00  0.00     0.272 C 
HETATM   12  N   UNL     1      38.924 -13.499  -0.705  1.00  0.00    -0.353 N 
HETATM   13  H   UNL     1      39.904 -13.707  -0.888  1.00  0.00     0.162 HD
HETATM   14  O   UNL     1      37.241 -13.994   0.778  1.00  0.00    -0.266 OA
BRANCH  12  15
HETATM   15  C   UNL     1      38.058 -13.212  -1.829  1.00  0.00     0.155 C 
BRANCH  15  16
HETATM   16  C   UNL     1      38.516 -13.945  -3.087  1.00  0.00     0.139 C 
HETATM   17  O   UNL     1      39.834 -14.503  -2.894  1.00  0.00    -0.384 OA
HETATM   18  C   UNL     1      39.878 -15.787  -3.533  1.00  0.00     0.168 C 
HETATM   19  C   UNL     1      38.567 -15.965  -4.270  1.00  0.00     0.029 C 
HETATM   20  C   UNL     1      37.625 -15.118  -3.452  1.00  0.00     0.035 C 
ENDBRANCH  15  16
ENDBRANCH  12  15
ENDBRANCH   6  11
BRANCH   8  21
HETATM   21  C   UNL     1      42.650 -13.810   4.189  1.00  0.00     0.409 C 
HETATM   22  F   UNL     1      42.652 -12.464   4.085  1.00  0.00    -0.169 F 
HETATM   23  F   UNL     1      41.604 -14.164   4.964  1.00  0.00    -0.169 F 
HETATM   24  F   UNL     1      43.771 -14.146   4.882  1.00  0.00    -0.169 F 
ENDBRANCH   8  21
BRANCH   1  25
HETATM   25  C   UNL     1      43.214 -18.312   3.286  1.00  0.00    -0.034 A 
HETATM   26  C   UNL     1      43.096 -18.833   1.985  1.00  0.00     0.011 A 
HETATM   27  C   UNL     1      43.587 -20.103   1.674  1.00  0.00     0.026 A 
HETATM   28  C   UNL     1      44.202 -20.876   2.659  1.00  0.00     0.055 A 
HETATM   29  C   UNL     1      44.326 -20.373   3.959  1.00  0.00     0.056 A 
HETATM   30 CL   UNL     1      44.781 -22.440   2.208  1.00  0.00    -0.083 Cl
HETATM   31  C   UNL     1      43.835 -19.097   4.268  1.00  0.00     0.034 A 
HETATM   32 CL   UNL     1      45.069 -21.275   5.231  1.00  0.00    -0.083 Cl
ENDBRANCH   1  25
TORSDOF 5
ENDMDL
MODEL 3
REMARK VINA RESULT:      -9.0      4.050      7.302
REMARK  5 active torsions:
REMARK  status: ('A' for Active; 'I' for Inactive)
REMARK    1  A    between atoms: C_2  and  C_3 
REMARK    2  A    between atoms: C_8  and  C_9 
REMARK       I    between atoms: C_9  and  N_10 
REMARK    3  A    between atoms: N_10  and  C_11 
REMARK    4  A    between atoms: C_11  and  C_12 
REMARK    5  A    between atoms: C_19  and  C_20 
ROOT
HETATM    1  C   UNL     1      41.914 -17.148   4.148  1.00  0.00     0.118 C 
HETATM    2  N   UNL     1      41.502 -17.113   2.746  1.00  0.00    -0.366 N 
HETATM    3  C   UNL     1      41.575 -15.995   1.998  1.00  0.00     0.123 A 
HETATM    4  N   UNL     1      41.810 -14.777   2.567  1.00  0.00    -0.240 N 
HETATM    5  N   UNL     1      42.009 -13.786   1.683  1.00  0.00    -0.165 NA
HETATM    6  C   UNL     1      41.786 -14.384   0.489  1.00  0.00     0.148 A 
HETATM    7  C   UNL     1      41.480 -15.765   0.652  1.00  0.00     0.088 A 
HETATM    8  C   UNL     1      41.997 -14.594   3.993  1.00  0.00     0.221 C 
HETATM    9  C   UNL     1      42.656 -15.859   4.566  1.00  0.00     0.066 C 
HETATM   10  H   UNL     1      41.294 -18.017   2.321  1.00  0.00     0.161 HD
ENDROOT
BRANCH   6  11
HETATM   11  C   UNL     1      41.920 -13.667  -0.789  1.00  0.00     0.272 C 
HETATM   12  N   UNL     1      41.675 -14.457  -1.888  1.00  0.00    -0.353 N 
HETATM   13  H   UNL     1      41.302 -15.382  -1.683  1.00  0.00     0.162 HD
HETATM   14  O   UNL     1      42.185 -12.470  -0.855  1.00  0.00    -0.266 OA
BRANCH  12  15
HETATM   15  C   UNL     1      41.439 -13.892  -3.199  1.00  0.00     0.155 C 
BRANCH  15  16
HETATM   16  C   UNL     1      40.021 -14.181  -3.684  1.00  0.00     0.139 C 
HETATM   17  O   UNL     1      39.957 -15.486  -4.301  1.00  0.00    -0.384 OA
HETATM   18  C   UNL     1      38.710 -16.097  -3.934  1.00  0.00     0.168 C 
HETATM   19  C   UNL     1      37.914 -15.061  -3.167  1.00  0.00     0.029 C 
HETATM   20  C   UNL     1      39.000 -14.209  -2.562  1.00  0.00     0.035 C 
ENDBRANCH  15  16
ENDBRANCH  12  15
ENDBRANCH   6  11
BRANCH   8  21
HETATM   21  C   UNL     1      40.678 -14.270   4.654  1.00  0.00     0.409 C 
HETATM   22  F   UNL     1      39.617 -14.697   3.936  1.00  0.00    -0.169 F 
HETATM   23  F   UNL     1      40.561 -14.772   5.902  1.00  0.00    -0.169 F 
HETATM   24  F   UNL     1      40.548 -12.921   4.771  1.00  0.00    -0.169 F 
ENDBRANCH   8  21
BRANCH   1  25
HETATM   25  C   UNL     1      42.792 -18.374   4.361  1.00  0.00    -0.034 A 
HETATM   26  C   UNL     1      43.190 -18.761   5.653  1.00  0.00     0.011 A 
HETATM   27  C   UNL     1      44.006 -19.878   5.847  1.00  0.00     0.026 A 
HETATM   28  C   UNL     1      44.441 -20.626   4.753  1.00  0.00     0.055 A 
HETATM   29  C   UNL     1      44.056 -20.253   3.460  1.00  0.00     0.056 A 
HETATM   30 CL   UNL     1      45.453 -21.991   5.063  1.00  0.00    -0.083 Cl
HETATM   31  C   UNL     1      43.234 -19.134   3.267  1.00  0.00     0.034 A 
HETATM   32 CL   UNL     1      44.560 -21.126   2.058  1.00  0.00    -0.083 Cl
ENDBRANCH   1  25
TORSDOF 5
ENDMDL
MODEL 4
REMARK VINA RESULT:      -8.9      1.984      2.268
REMARK  5 active torsions:
REMARK  status: ('A' for Active; 'I' for Inactive)
REMARK    1  A    between atoms: C_2  and  C_3 
REMARK    2  A    between atoms: C_8  and  C_9 
REMARK       I    between atoms: C_9  and  N_10 
REMARK    3  A    between atoms: N_10  and  C_11 
REMARK    4  A    between atoms: C_11  and  C_12 
REMARK    5  A    between atoms: C_19  and  C_20 
ROOT
HETATM    1  C   UNL     1      42.708 -16.949   2.569  1.00  0.00     0.118 C 
HETATM    2  N   UNL     1      42.790 -15.878   3.560  1.00  0.00    -0.366 N 
HETATM    3  C   UNL     1      41.740 -15.088   3.862  1.00  0.00     0.123 A 
HETATM    4  N   UNL     1      40.614 -15.085   3.091  1.00  0.00    -0.240 N 
HETATM    5  N   UNL     1      39.600 -14.368   3.602  1.00  0.00    -0.165 NA
HETATM    6  C   UNL     1      40.144 -13.799   4.704  1.00  0.00     0.148 A 
HETATM    7  C   UNL     1      41.498 -14.206   4.879  1.00  0.00     0.088 A 
HETATM    8  C   UNL     1      40.460 -15.914   1.912  1.00  0.00     0.221 C 
HETATM    9  C   UNL     1      41.253 -17.214   2.122  1.00  0.00     0.066 C 
HETATM   10  H   UNL     1      43.643 -15.853   4.119  1.00  0.00     0.161 HD
ENDROOT
BRANCH   6  11
HETATM   11  C   UNL     1      39.372 -12.931   5.606  1.00  0.00     0.272 C 
HETATM   12  N   UNL     1      39.673 -13.118   6.935  1.00  0.00    -0.353 N 
HETATM   13  H   UNL     1      40.475 -13.719   7.119  1.00  0.00     0.162 HD
HETATM   14  O   UNL     1      38.569 -12.096   5.200  1.00  0.00    -0.266 OA
BRANCH  12  15
HETATM   15  C   UNL     1      39.277 -12.166   7.951  1.00  0.00     0.155 C 
BRANCH  15  16
HETATM   16  C   UNL     1      40.309 -11.053   8.104  1.00  0.00     0.139 C 
HETATM   17  O   UNL     1      39.871  -9.862   7.414  1.00  0.00    -0.384 OA
HETATM   18  C   UNL     1      40.233  -8.721   8.207  1.00  0.00     0.168 C 
HETATM   19  C   UNL     1      41.054  -9.232   9.374  1.00  0.00     0.029 C 
HETATM   20  C   UNL     1      40.524 -10.633   9.547  1.00  0.00     0.035 C 
ENDBRANCH  15  16
ENDBRANCH  12  15
ENDBRANCH   6  11
BRANCH   8  21
HETATM   21  C   UNL     1      40.895 -15.155   0.680  1.00  0.00     0.409 C 
HETATM   22  F   UNL     1      41.559 -15.932  -0.201  1.00  0.00    -0.169 F 
HETATM   23  F   UNL     1      39.875 -14.562   0.024  1.00  0.00    -0.169 F 
HETATM   24  F   UNL     1      41.749 -14.160   1.038  1.00  0.00    -0.169 F 
ENDBRANCH   8  21
BRANCH   1  25
HETATM   25  C   UNL     1      43.332 -18.203   3.165  1.00  0.00    -0.034 A 
HETATM   26  C   UNL     1      43.710 -18.248   4.518  1.00  0.00     0.011 A 
HETATM   27  C   UNL     1      44.294 -19.394   5.062  1.00  0.00     0.026 A 
HETATM   28  C   UNL     1      44.514 -20.515   4.261  1.00  0.00     0.055 A 
HETATM   29  C   UNL     1      44.145 -20.486   2.912  1.00  0.00     0.056 A 
HETATM   30 CL   UNL     1      45.246 -21.896   4.995  1.00  0.00    -0.083 Cl
HETATM   31  C   UNL     1      43.556 -19.336   2.368  1.00  0.00     0.034 A 
HETATM   32 CL   UNL     1      44.392 -21.832   1.857  1.00  0.00    -0.083 Cl
ENDBRANCH   1  25
TORSDOF 5
ENDMDL
MODEL 5
REMARK VINA RESULT:      -8.9      4.028      6.912
REMARK  5 active torsions:
REMARK  status: ('A' for Active; 'I' for Inactive)
REMARK    1  A    between atoms: C_2  and  C_3 
REMARK    2  A    between atoms: C_8  and  C_9 
REMARK       I    between atoms: C_9  and  N_10 
REMARK    3  A    between atoms: N_10  and  C_11 
REMARK    4  A    between atoms: C_11  and  C_12 
REMARK    5  A    between atoms: C_19  and  C_20 
ROOT
HETATM    1  C   UNL     1      42.521 -17.177   4.652  1.00  0.00     0.118 C 
HETATM    2  N   UNL     1      41.477 -17.295   3.635  1.00  0.00    -0.366 N 
HETATM    3  C   UNL     1      41.312 -16.383   2.657  1.00  0.00     0.123 A 
HETATM    4  N   UNL     1      41.951 -15.178   2.699  1.00  0.00    -0.240 N 
HETATM    5  N   UNL     1      41.812 -14.443   1.584  1.00  0.00    -0.165 NA
HETATM    6  C   UNL     1      40.952 -15.172   0.835  1.00  0.00     0.148 A 
HETATM    7  C   UNL     1      40.594 -16.384   1.493  1.00  0.00     0.088 A 
HETATM    8  C   UNL     1      42.841 -14.793   3.776  1.00  0.00     0.221 C 
HETATM    9  C   UNL     1      43.530 -16.056   4.318  1.00  0.00     0.066 C 
HETATM   10  H   UNL     1      40.972 -18.181   3.618  1.00  0.00     0.161 HD
ENDROOT
BRANCH   6  11
HETATM   11  C   UNL     1      40.526 -14.752  -0.509  1.00  0.00     0.272 C 
HETATM   12  N   UNL     1      41.452 -15.029  -1.488  1.00  0.00    -0.353 N 
HETATM   13  H   UNL     1      42.238 -15.604  -1.192  1.00  0.00     0.162 HD
HETATM   14  O   UNL     1      39.432 -14.242  -0.731  1.00  0.00    -0.266 OA
BRANCH  12  15
HETATM   15  C   UNL     1      41.111 -14.997  -2.894  1.00  0.00     0.155 C 
BRANCH  15  16
HETATM   16  C   UNL     1      41.510 -13.671  -3.535  1.00  0.00     0.139 C 
HETATM   17  O   UNL     1      40.383 -12.768  -3.566  1.00  0.00    -0.384 OA
HETATM   18  C   UNL     1      40.859 -11.443  -3.283  1.00  0.00     0.168 C 
HETATM   19  C   UNL     1      42.370 -11.518  -3.211  1.00  0.00     0.029 C 
HETATM   20  C   UNL     1      42.598 -12.941  -2.769  1.00  0.00     0.035 C 
ENDBRANCH  15  16
ENDBRANCH  12  15
ENDBRANCH   6  11
BRANCH   8  21
HETATM   21  C   UNL     1      42.077 -14.040   4.840  1.00  0.00     0.409 C 
HETATM   22  F   UNL     1      42.184 -12.701   4.708  1.00  0.00    -0.169 F 
HETATM   23  F   UNL     1      40.763 -14.348   4.881  1.00  0.00    -0.169 F 
HETATM   24  F   UNL     1      42.580 -14.350   6.065  1.00  0.00    -0.169 F 
ENDBRANCH   8  21
BRANCH   1  25
HETATM   25  C   UNL     1      43.224 -18.522   4.778  1.00  0.00    -0.034 A 
HETATM   26  C   UNL     1      43.473 -19.090   6.039  1.00  0.00     0.011 A 
HETATM   27  C   UNL     1      44.129 -20.317   6.156  1.00  0.00     0.026 A 
HETATM   28  C   UNL     1      44.551 -20.997   5.013  1.00  0.00     0.055 A 
HETATM   29  C   UNL     1      44.312 -20.445   3.750  1.00  0.00     0.056 A 
HETATM   30 CL   UNL     1      45.362 -22.506   5.228  1.00  0.00    -0.083 Cl
HETATM   31  C   UNL     1      43.651 -19.214   3.635  1.00  0.00     0.034 A 
HETATM   32 CL   UNL     1      44.811 -21.224   2.291  1.00  0.00    -0.083 Cl
ENDBRANCH   1  25
TORSDOF 5
ENDMDL
MODEL 6
REMARK VINA RESULT:      -8.8      4.962      6.694
REMARK  5 active torsions:
REMARK  status: ('A' for Active; 'I' for Inactive)
REMARK    1  A    between atoms: C_2  and  C_3 
REMARK    2  A    between atoms: C_8  and  C_9 
REMARK       I    between atoms: C_9  and  N_10 
REMARK    3  A    between atoms: N_10  and  C_11 
REMARK    4  A    between atoms: C_11  and  C_12 
REMARK    5  A    between atoms: C_19  and  C_20 
ROOT
HETATM    1  C   UNL     1      41.376 -16.947   2.802  1.00  0.00     0.118 C 
HETATM    2  N   UNL     1      41.130 -17.103   1.370  1.00  0.00    -0.366 N 
HETATM    3  C   UNL     1      41.114 -16.058   0.519  1.00  0.00     0.123 A 
HETATM    4  N   UNL     1      41.088 -14.773   0.979  1.00  0.00    -0.240 N 
HETATM    5  N   UNL     1      41.232 -13.843   0.020  1.00  0.00    -0.165 NA
HETATM    6  C   UNL     1      41.244 -14.572  -1.121  1.00  0.00     0.148 A 
HETATM    7  C   UNL     1      41.140 -15.965  -0.845  1.00  0.00     0.088 A 
HETATM    8  C   UNL     1      41.077 -14.438   2.389  1.00  0.00     0.221 C 
HETATM    9  C   UNL     1      41.855 -15.520   3.155  1.00  0.00     0.066 C 
HETATM   10  H   UNL     1      41.115 -18.062   1.023  1.00  0.00     0.161 HD
ENDROOT
BRANCH   6  11
HETATM   11  C   UNL     1      41.412 -13.956  -2.447  1.00  0.00     0.272 C 
HETATM   12  N   UNL     1      41.259 -12.589  -2.440  1.00  0.00    -0.353 N 
HETATM   13  H   UNL     1      41.191 -12.165  -1.516  1.00  0.00     0.162 HD
HETATM   14  O   UNL     1      41.699 -14.605  -3.449  1.00  0.00    -0.266 OA
BRANCH  12  15
HETATM   15  C   UNL     1      41.692 -11.765  -3.548  1.00  0.00     0.155 C 
BRANCH  15  16
HETATM   16  C   UNL     1      42.790 -10.793  -3.125  1.00  0.00     0.139 C 
HETATM   17  O   UNL     1      42.365  -9.429  -3.341  1.00  0.00    -0.384 OA
HETATM   18  C   UNL     1      42.845  -8.630  -2.249  1.00  0.00     0.168 C 
HETATM   19  C   UNL     1      43.722  -9.521  -1.394  1.00  0.00     0.029 C 
HETATM   20  C   UNL     1      43.133 -10.886  -1.649  1.00  0.00     0.035 C 
ENDBRANCH  15  16
ENDBRANCH  12  15
ENDBRANCH   6  11
BRANCH   8  21
HETATM   21  C   UNL     1      39.656 -14.281   2.877  1.00  0.00     0.409 C 
HETATM   22  F   UNL     1      39.223 -13.004   2.813  1.00  0.00    -0.169 F 
HETATM   23  F   UNL     1      38.769 -15.052   2.213  1.00  0.00    -0.169 F 
HETATM   24  F   UNL     1      39.581 -14.650   4.183  1.00  0.00    -0.169 F 
ENDBRANCH   8  21
BRANCH   1  25
HETATM   25  C   UNL     1      42.403 -17.986   3.228  1.00  0.00    -0.034 A 
HETATM   26  C   UNL     1      43.064 -17.883   4.466  1.00  0.00     0.011 A 
HETATM   27  C   UNL     1      44.015 -18.829   4.852  1.00  0.00     0.026 A 
HETATM   28  C   UNL     1      44.327 -19.894   4.006  1.00  0.00     0.055 A 
HETATM   29  C   UNL     1      43.681 -20.010   2.771  1.00  0.00     0.056 A 
HETATM   30 CL   UNL     1      45.518 -21.024   4.543  1.00  0.00    -0.083 Cl
HETATM   31  C   UNL     1      42.723 -19.061   2.386  1.00  0.00     0.034 A 
HETATM   32 CL   UNL     1      44.019 -21.297   1.669  1.00  0.00    -0.083 Cl
ENDBRANCH   1  25
TORSDOF 5
ENDMDL
MODEL 7
REMARK VINA RESULT:      -8.8      3.797      5.182
REMARK  5 active torsions:
REMARK  status: ('A' for Active; 'I' for Inactive)
REMARK    1  A    between atoms: C_2  and  C_3 
REMARK    2  A    between atoms: C_8  and  C_9 
REMARK       I    between atoms: C_9  and  N_10 
REMARK    3  A    between atoms: N_10  and  C_11 
REMARK    4  A    between atoms: C_11  and  C_12 
REMARK    5  A    between atoms: C_19  and  C_20 
ROOT
HETATM    1  C   UNL     1      41.945 -16.297   3.750  1.00  0.00     0.118 C 
HETATM    2  N   UNL     1      41.907 -15.089   4.572  1.00  0.00    -0.366 N 
HETATM    3  C   UNL     1      42.823 -14.832   5.526  1.00  0.00     0.123 A 
HETATM    4  N   UNL     1      43.696 -15.794   5.944  1.00  0.00    -0.240 N 
HETATM    5  N   UNL     1      44.645 -15.348   6.783  1.00  0.00    -0.165 NA
HETATM    6  C   UNL     1      44.294 -14.058   6.993  1.00  0.00     0.148 A 
HETATM    7  C   UNL     1      43.135 -13.709   6.242  1.00  0.00     0.088 A 
HETATM    8  C   UNL     1      43.708 -17.139   5.404  1.00  0.00     0.221 C 
HETATM    9  C   UNL     1      43.265 -17.080   3.933  1.00  0.00     0.066 C 
HETATM   10  H   UNL     1      41.233 -14.378   4.286  1.00  0.00     0.161 HD
ENDROOT
BRANCH   6  11
HETATM   11  C   UNL     1      45.083 -13.155   7.846  1.00  0.00     0.272 C 
HETATM   12  N   UNL     1      44.400 -12.715   8.956  1.00  0.00    -0.353 N 
HETATM   13  H   UNL     1      43.503 -13.169   9.122  1.00  0.00     0.162 HD
HETATM   14  O   UNL     1      46.249 -12.860   7.603  1.00  0.00    -0.266 OA
BRANCH  12  15
HETATM   15  C   UNL     1      45.076 -12.093  10.074  1.00  0.00     0.155 C 
BRANCH  15  16
HETATM   16  C   UNL     1      44.529 -10.695  10.349  1.00  0.00     0.139 C 
HETATM   17  O   UNL     1      43.399 -10.419   9.493  1.00  0.00    -0.384 OA
HETATM   18  C   UNL     1      42.425  -9.687  10.253  1.00  0.00     0.168 C 
HETATM   19  C   UNL     1      43.049  -9.380  11.600  1.00  0.00     0.029 C 
HETATM   20  C   UNL     1      44.019 -10.522  11.768  1.00  0.00     0.035 C 
ENDBRANCH  15  16
ENDBRANCH  12  15
ENDBRANCH   6  11
BRANCH   8  21
HETATM   21  C   UNL     1      42.839 -18.046   6.243  1.00  0.00     0.409 C 
HETATM   22  F   UNL     1      43.533 -19.059   6.803  1.00  0.00    -0.169 F 
HETATM   23  F   UNL     1      42.180 -17.401   7.229  1.00  0.00    -0.169 F 
HETATM   24  F   UNL     1      41.887 -18.617   5.457  1.00  0.00    -0.169 F 
ENDBRANCH   8  21
BRANCH   1  25
HETATM   25  C   UNL     1      41.749 -15.895   2.295  1.00  0.00    -0.034 A 
HETATM   26  C   UNL     1      41.463 -16.859   1.312  1.00  0.00     0.011 A 
HETATM   27  C   UNL     1      41.296 -16.492  -0.025  1.00  0.00     0.026 A 
HETATM   28  C   UNL     1      41.415 -15.155  -0.404  1.00  0.00     0.055 A 
HETATM   29  C   UNL     1      41.702 -14.183   0.561  1.00  0.00     0.056 A 
HETATM   30 CL   UNL     1      41.203 -14.771  -2.075  1.00  0.00    -0.083 Cl
HETATM   31  C   UNL     1      41.866 -14.553   1.903  1.00  0.00     0.034 A 
HETATM   32 CL   UNL     1      41.871 -12.510   0.166  1.00  0.00    -0.083 Cl
ENDBRANCH   1  25
TORSDOF 5
ENDMDL
MODEL 8
REMARK VINA RESULT:      -8.5      2.716      4.015
REMARK  5 active torsions:
REMARK  status: ('A' for Active; 'I' for Inactive)
REMARK    1  A    between atoms: C_2  and  C_3 
REMARK    2  A    between atoms: C_8  and  C_9 
REMARK       I    between atoms: C_9  and  N_10 
REMARK    3  A    between atoms: N_10  and  C_11 
REMARK    4  A    between atoms: C_11  and  C_12 
REMARK    5  A    between atoms: C_19  and  C_20 
ROOT
HETATM    1  C   UNL     1      43.041 -17.215   2.003  1.00  0.00     0.118 C 
HETATM    2  N   UNL     1      43.639 -16.018   2.592  1.00  0.00    -0.366 N 
HETATM    3  C   UNL     1      42.911 -14.936   2.930  1.00  0.00     0.123 A 
HETATM    4  N   UNL     1      41.615 -14.801   2.523  1.00  0.00    -0.240 N 
HETATM    5  N   UNL     1      40.976 -13.752   3.066  1.00  0.00    -0.165 NA
HETATM    6  C   UNL     1      41.946 -13.126   3.773  1.00  0.00     0.148 A 
HETATM    7  C   UNL     1      43.183 -13.827   3.684  1.00  0.00     0.088 A 
HETATM    8  C   UNL     1      40.934 -15.790   1.713  1.00  0.00     0.221 C 
HETATM    9  C   UNL     1      41.497 -17.178   2.058  1.00  0.00     0.066 C 
HETATM   10  H   UNL     1      44.618 -16.101   2.870  1.00  0.00     0.161 HD
ENDROOT
BRANCH   6  11
HETATM   11  C   UNL     1      41.686 -11.916   4.568  1.00  0.00     0.272 C 
HETATM   12  N   UNL     1      41.300 -10.835   3.810  1.00  0.00    -0.353 N 
HETATM   13  H   UNL     1      41.109 -11.038   2.830  1.00  0.00     0.162 HD
HETATM   14  O   UNL     1      41.770 -11.895   5.793  1.00  0.00    -0.266 OA
BRANCH  12  15
HETATM   15  C   UNL     1      40.696  -9.662   4.403  1.00  0.00     0.155 C 
BRANCH  15  16
HETATM   16  C   UNL     1      39.265  -9.462   3.911  1.00  0.00     0.139 C 
HETATM   17  O   UNL     1      39.244  -8.582   2.765  1.00  0.00    -0.384 OA
HETATM   18  C   UNL     1      38.260  -9.069   1.840  1.00  0.00     0.168 C 
HETATM   19  C   UNL     1      37.548 -10.224   2.513  1.00  0.00     0.029 C 
HETATM   20  C   UNL     1      38.607 -10.750   3.449  1.00  0.00     0.035 C 
ENDBRANCH  15  16
ENDBRANCH  12  15
ENDBRANCH   6  11
BRANCH   8  21
HETATM   21  C   UNL     1      41.073 -15.450   0.247  1.00  0.00     0.409 C 
HETATM   22  F   UNL     1      42.121 -14.636   0.000  1.00  0.00    -0.169 F 
HETATM   23  F   UNL     1      41.193 -16.532  -0.550  1.00  0.00    -0.169 F 
HETATM   24  F   UNL     1      39.962 -14.787  -0.172  1.00  0.00    -0.169 F 
ENDBRANCH   8  21
BRANCH   1  25
HETATM   25  C   UNL     1      43.583 -18.434   2.736  1.00  0.00    -0.034 A 
HETATM   26  C   UNL     1      43.952 -18.355   4.091  1.00  0.00     0.011 A 
HETATM   27  C   UNL     1      44.462 -19.470   4.761  1.00  0.00     0.026 A 
HETATM   28  C   UNL     1      44.615 -20.682   4.087  1.00  0.00     0.055 A 
HETATM   29  C   UNL     1      44.255 -20.776   2.738  1.00  0.00     0.056 A 
HETATM   30 CL   UNL     1      45.257 -22.019   4.973  1.00  0.00    -0.083 Cl
HETATM   31  C   UNL     1      43.741 -19.657   2.068  1.00  0.00     0.034 A 
HETATM   32 CL   UNL     1      44.423 -22.241   1.837  1.00  0.00    -0.083 Cl
ENDBRANCH   1  25
TORSDOF 5
ENDMDL
MODEL 9
REMARK VINA RESULT:      -8.4      4.292      7.198
REMARK  5 active torsions:
REMARK  status: ('A' for Active; 'I' for Inactive)
REMARK    1  A    between atoms: C_2  and  C_3 
REMARK    2  A    between atoms: C_8  and  C_9 
REMARK       I    between atoms: C_9  and  N_10 
REMARK    3  A    between atoms: N_10  and  C_11 
REMARK    4  A    between atoms: C_11  and  C_12 
REMARK    5  A    between atoms: C_19  and  C_20 
ROOT
HETATM    1  C   UNL     1      42.355 -17.172   4.237  1.00  0.00     0.118 C 
HETATM    2  N   UNL     1      41.547 -17.315   3.028  1.00  0.00    -0.366 N 
HETATM    3  C   UNL     1      41.517 -16.376   2.061  1.00  0.00     0.123 A 
HETATM    4  N   UNL     1      42.050 -15.136   2.264  1.00  0.00    -0.240 N 
HETATM    5  N   UNL     1      42.085 -14.367   1.163  1.00  0.00    -0.165 NA
HETATM    6  C   UNL     1      41.446 -15.118   0.237  1.00  0.00     0.148 A 
HETATM    7  C   UNL     1      41.048 -16.375   0.776  1.00  0.00     0.088 A 
HETATM    8  C   UNL     1      42.677 -14.739   3.508  1.00  0.00     0.221 C 
HETATM    9  C   UNL     1      43.330 -15.977   4.144  1.00  0.00     0.066 C 
HETATM   10  H   UNL     1      41.118 -18.229   2.885  1.00  0.00     0.161 HD
ENDROOT
BRANCH   6  11
HETATM   11  C   UNL     1      41.269 -14.673  -1.154  1.00  0.00     0.272 C 
HETATM   12  N   UNL     1      42.125 -13.660  -1.518  1.00  0.00    -0.353 N 
HETATM   13  H   UNL     1      42.855 -13.444  -0.841  1.00  0.00     0.162 HD
HETATM   14  O   UNL     1      40.460 -15.190  -1.920  1.00  0.00    -0.266 OA
BRANCH  12  15
HETATM   15  C   UNL     1      42.341 -13.300  -2.903  1.00  0.00     0.155 C 
BRANCH  15  16
HETATM   16  C   UNL     1      41.710 -11.951  -3.234  1.00  0.00     0.139 C 
HETATM   17  O   UNL     1      42.510 -11.247  -4.209  1.00  0.00    -0.384 OA
HETATM   18  C   UNL     1      41.625 -10.575  -5.118  1.00  0.00     0.168 C 
HETATM   19  C   UNL     1      40.217 -10.765  -4.592  1.00  0.00     0.029 C 
HETATM   20  C   UNL     1      40.328 -12.072  -3.849  1.00  0.00     0.035 C 
ENDBRANCH  15  16
ENDBRANCH  12  15
ENDBRANCH   6  11
BRANCH   8  21
HETATM   21  C   UNL     1      41.665 -14.079   4.415  1.00  0.00     0.409 C 
HETATM   22  F   UNL     1      40.393 -14.391   4.088  1.00  0.00    -0.169 F 
HETATM   23  F   UNL     1      41.839 -14.371   5.722  1.00  0.00    -0.169 F 
HETATM   24  F   UNL     1      41.771 -12.728   4.307  1.00  0.00    -0.169 F 
ENDBRANCH   8  21
BRANCH   1  25
HETATM   25  C   UNL     1      43.110 -18.473   4.467  1.00  0.00    -0.034 A 
HETATM   26  C   UNL     1      43.418 -18.909   5.768  1.00  0.00     0.011 A 
HETATM   27  C   UNL     1      44.122 -20.096   5.979  1.00  0.00     0.026 A 
HETATM   28  C   UNL     1      44.534 -20.868   4.892  1.00  0.00     0.055 A 
HETATM   29  C   UNL     1      44.237 -20.449   3.591  1.00  0.00     0.056 A 
HETATM   30 CL   UNL     1      45.406 -22.322   5.224  1.00  0.00    -0.083 Cl
HETATM   31  C   UNL     1      43.528 -19.258   3.382  1.00  0.00     0.034 A 
HETATM   32 CL   UNL     1      44.720 -21.348   2.197  1.00  0.00    -0.083 Cl
ENDBRANCH   1  25
TORSDOF 5
ENDMDL
MODEL 10
REMARK VINA RESULT:      -8.3      4.337      7.112
REMARK  5 active torsions:
REMARK  status: ('A' for Active; 'I' for Inactive)
REMARK    1  A    between atoms: C_2  and  C_3 
REMARK    2  A    between atoms: C_8  and  C_9 
REMARK       I    between atoms: C_9  and  N_10 
REMARK    3  A    between atoms: N_10  and  C_11 
REMARK    4  A    between atoms: C_11  and  C_12 
REMARK    5  A    between atoms: C_19  and  C_20 
ROOT
HETATM    1  C   UNL     1      42.487 -17.285   4.274  1.00  0.00     0.118 C 
HETATM    2  N   UNL     1      41.586 -17.439   3.134  1.00  0.00    -0.366 N 
HETATM    3  C   UNL     1      41.510 -16.528   2.143  1.00  0.00     0.123 A 
HETATM    4  N   UNL     1      42.089 -15.299   2.267  1.00  0.00    -0.240 N 
HETATM    5  N   UNL     1      42.062 -14.563   1.144  1.00  0.00    -0.165 NA
HETATM    6  C   UNL     1      41.335 -15.322   0.291  1.00  0.00     0.148 A 
HETATM    7  C   UNL     1      40.945 -16.551   0.897  1.00  0.00     0.088 A 
HETATM    8  C   UNL     1      42.819 -14.885   3.449  1.00  0.00     0.221 C 
HETATM    9  C   UNL     1      43.485 -16.122   4.072  1.00  0.00     0.066 C 
HETATM   10  H   UNL     1      41.124 -18.345   3.051  1.00  0.00     0.161 HD
ENDROOT
BRANCH   6  11
HETATM   11  C   UNL     1      41.066 -14.912  -1.096  1.00  0.00     0.272 C 
HETATM   12  N   UNL     1      40.967 -13.549  -1.255  1.00  0.00    -0.353 N 
HETATM   13  H   UNL     1      41.226 -12.997  -0.439  1.00  0.00     0.162 HD
HETATM   14  O   UNL     1      40.979 -15.714  -2.021  1.00  0.00    -0.266 OA
BRANCH  12  15
HETATM   15  C   UNL     1      41.027 -12.924  -2.558  1.00  0.00     0.155 C 
BRANCH  15  16
HETATM   16  C   UNL     1      39.638 -12.526  -3.051  1.00  0.00     0.139 C 
HETATM   17  O   UNL     1      38.978 -13.656  -3.661  1.00  0.00    -0.384 OA
HETATM   18  C   UNL     1      37.589 -13.616  -3.299  1.00  0.00     0.168 C 
HETATM   19  C   UNL     1      37.362 -12.323  -2.543  1.00  0.00     0.029 C 
HETATM   20  C   UNL     1      38.717 -12.067  -1.935  1.00  0.00     0.035 C 
ENDBRANCH  15  16
ENDBRANCH  12  15
ENDBRANCH   6  11
BRANCH   8  21
HETATM   21  C   UNL     1      41.896 -14.170   4.408  1.00  0.00     0.409 C 
HETATM   22  F   UNL     1      41.952 -12.827   4.280  1.00  0.00    -0.169 F 
HETATM   23  F   UNL     1      40.604 -14.543   4.293  1.00  0.00    -0.169 F 
HETATM   24  F   UNL     1      42.263 -14.452   5.686  1.00  0.00    -0.169 F 
ENDBRANCH   8  21
BRANCH   1  25
HETATM   25  C   UNL     1      43.222 -18.601   4.487  1.00  0.00    -0.034 A 
HETATM   26  C   UNL     1      43.523 -19.059   5.783  1.00  0.00     0.011 A 
HETATM   27  C   UNL     1      44.208 -20.260   5.978  1.00  0.00     0.026 A 
HETATM   28  C   UNL     1      44.608 -21.023   4.881  1.00  0.00     0.055 A 
HETATM   29  C   UNL     1      44.320 -20.582   3.586  1.00  0.00     0.056 A 
HETATM   30 CL   UNL     1      45.458 -22.494   5.194  1.00  0.00    -0.083 Cl
HETATM   31  C   UNL     1      43.629 -19.377   3.392  1.00  0.00     0.034 A 
HETATM   32 CL   UNL     1      44.789 -21.470   2.180  1.00  0.00    -0.083 Cl
ENDBRANCH   1  25
TORSDOF 5
ENDMDL
