MODEL 1
REMARK VINA RESULT:      -8.1      0.000      0.000
REMARK  6 active torsions:
REMARK  status: ('A' for Active; 'I' for Inactive)
REMARK    1  A    between atoms: C_3  and  O_4 
REMARK    2  A    between atoms: O_4  and  C_5 
REMARK    3  A    between atoms: C_13  and  N_14 
REMARK       I    between atoms: N_14  and  C_15 
REMARK       I    between atoms: C_15  and  N_16 
REMARK    4  A    between atoms: N_16  and  C_17 
REMARK    5  A    between atoms: C_17  and  C_18 
REMARK    6  A    between atoms: C_18  and  C_19 
ROOT
HETATM    1  N   UNL     1      43.587 -14.036   6.941  1.00  0.00    -0.308 N 
HETATM    2  C   UNL     1      44.704 -13.451   7.497  1.00  0.00     0.320 C 
HETATM    3  N   UNL     1      44.425 -12.997   8.771  1.00  0.00    -0.342 N 
HETATM    4  O   UNL     1      45.819 -13.363   7.000  1.00  0.00    -0.247 OA
HETATM    5  H   UNL     1      42.850 -14.211   7.606  1.00  0.00     0.170 HD
HETATM    6  H   UNL     1      43.499 -12.605   8.897  1.00  0.00     0.164 HD
ENDROOT
BRANCH   1   7
HETATM    7  C   UNL     1      43.457 -14.621   5.659  1.00  0.00     0.045 A 
HETATM    8  C   UNL     1      43.119 -15.992   5.560  1.00  0.00    -0.002 A 
HETATM    9  C   UNL     1      42.864 -16.826   6.790  1.00  0.00     0.053 C 
HETATM   10  C   UNL     1      43.075 -16.592   4.284  1.00  0.00     0.077 A 
HETATM   11  C   UNL     1      43.255 -15.833   3.128  1.00  0.00     0.037 A 
HETATM   12  C   UNL     1      43.543 -14.477   3.231  1.00  0.00     0.005 A 
HETATM   13  C   UNL     1      43.653 -13.879   4.488  1.00  0.00     0.030 A 
BRANCH  10  14
HETATM   14  O   UNL     1      42.809 -17.938   4.218  1.00  0.00    -0.345 OA
BRANCH  14  15
HETATM   15  C   UNL     1      43.894 -18.740   3.749  1.00  0.00     0.129 C 
HETATM   16  C   UNL     1      44.300 -19.862   4.704  1.00  0.00     0.032 C 
HETATM   17  C   UNL     1      45.041 -20.832   3.800  1.00  0.00     0.002 C 
HETATM   18  C   UNL     1      44.289 -20.783   2.474  1.00  0.00     0.002 C 
HETATM   19  C   UNL     1      43.433 -19.518   2.514  1.00  0.00     0.032 C 
ENDBRANCH  14  15
ENDBRANCH  10  14
ENDBRANCH   1   7
BRANCH   3  20
HETATM   20  C   UNL     1      45.459 -12.340   9.559  1.00  0.00     0.132 C 
BRANCH  20  21
HETATM   21  C   UNL     1      44.964 -11.074  10.259  1.00  0.00     0.102 C 
BRANCH  21  22
HETATM   22  C   UNL     1      43.490 -10.899  10.138  1.00  0.00     0.148 A 
HETATM   23  N   UNL     1      42.628 -11.370  11.050  1.00  0.00    -0.158 NA
HETATM   24  N   UNL     1      41.451 -10.976  10.539  1.00  0.00    -0.270 N 
HETATM   25  H   UNL     1      40.595 -11.192  11.037  1.00  0.00     0.190 HD
HETATM   26  C   UNL     1      41.623 -10.313   9.365  1.00  0.00     0.227 A 
HETATM   27  N   UNL     1      42.901 -10.248   9.078  1.00  0.00    -0.226 NA
ENDBRANCH  21  22
ENDBRANCH  20  21
ENDBRANCH   3  20
TORSDOF 6
ENDMDL
MODEL 2
REMARK VINA RESULT:      -8.0      1.733      2.258
REMARK  6 active torsions:
REMARK  status: ('A' for Active; 'I' for Inactive)
REMARK    1  A    between atoms: C_3  and  O_4 
REMARK    2  A    between atoms: O_4  and  C_5 
REMARK    3  A    between atoms: C_13  and  N_14 
REMARK       I    between atoms: N_14  and  C_15 
REMARK       I    between atoms: C_15  and  N_16 
REMARK    4  A    between atoms: N_16  and  C_17 
REMARK    5  A    between atoms: C_17  and  C_18 
REMARK    6  A    between atoms: C_18  and  C_19 
ROOT
HETATM    1  N   UNL     1      43.628 -15.428   7.258  1.00  0.00    -0.308 N 
HETATM    2  C   UNL     1      44.261 -14.227   7.024  1.00  0.00     0.320 C 
HETATM    3  N   UNL     1      44.484 -13.561   8.213  1.00  0.00    -0.342 N 
HETATM    4  O   UNL     1      44.638 -13.786   5.946  1.00  0.00    -0.247 OA
HETATM    5  H   UNL     1      43.623 -15.699   8.228  1.00  0.00     0.170 HD
HETATM    6  H   UNL     1      43.746 -13.649   8.903  1.00  0.00     0.164 HD
ENDROOT
BRANCH   1   7
HETATM    7  C   UNL     1      43.226 -16.400   6.311  1.00  0.00     0.045 A 
HETATM    8  C   UNL     1      44.120 -17.446   5.978  1.00  0.00    -0.002 A 
HETATM    9  C   UNL     1      45.472 -17.560   6.636  1.00  0.00     0.053 C 
HETATM   10  C   UNL     1      43.751 -18.362   4.971  1.00  0.00     0.077 A 
HETATM   11  C   UNL     1      42.486 -18.312   4.384  1.00  0.00     0.037 A 
HETATM   12  C   UNL     1      41.596 -17.309   4.749  1.00  0.00     0.005 A 
HETATM   13  C   UNL     1      41.969 -16.354   5.698  1.00  0.00     0.030 A 
BRANCH  10  14
HETATM   14  O   UNL     1      44.661 -19.329   4.619  1.00  0.00    -0.345 OA
BRANCH  14  15
HETATM   15  C   UNL     1      44.114 -20.426   3.885  1.00  0.00     0.129 C 
HETATM   16  C   UNL     1      44.521 -20.457   2.413  1.00  0.00     0.032 C 
HETATM   17  C   UNL     1      44.284 -21.905   2.021  1.00  0.00     0.002 C 
HETATM   18  C   UNL     1      44.682 -22.713   3.252  1.00  0.00     0.002 C 
HETATM   19  C   UNL     1      44.725 -21.726   4.416  1.00  0.00     0.032 C 
ENDBRANCH  14  15
ENDBRANCH  10  14
ENDBRANCH   1   7
BRANCH   3  20
HETATM   20  C   UNL     1      45.144 -12.263   8.215  1.00  0.00     0.132 C 
BRANCH  20  21
HETATM   21  C   UNL     1      45.616 -11.834   9.604  1.00  0.00     0.102 C 
BRANCH  21  22
HETATM   22  C   UNL     1      44.523 -11.881  10.615  1.00  0.00     0.148 A 
HETATM   23  N   UNL     1      44.389 -12.887  11.489  1.00  0.00    -0.158 NA
HETATM   24  N   UNL     1      43.306 -12.502  12.182  1.00  0.00    -0.270 N 
HETATM   25  H   UNL     1      42.967 -13.084  12.939  1.00  0.00     0.190 HD
HETATM   26  C   UNL     1      42.820 -11.321  11.716  1.00  0.00     0.227 A 
HETATM   27  N   UNL     1      43.565 -10.900  10.722  1.00  0.00    -0.226 NA
ENDBRANCH  21  22
ENDBRANCH  20  21
ENDBRANCH   3  20
TORSDOF 6
ENDMDL
MODEL 3
REMARK VINA RESULT:      -7.9      6.330      8.922
REMARK  6 active torsions:
REMARK  status: ('A' for Active; 'I' for Inactive)
REMARK    1  A    between atoms: C_3  and  O_4 
REMARK    2  A    between atoms: O_4  and  C_5 
REMARK    3  A    between atoms: C_13  and  N_14 
REMARK       I    between atoms: N_14  and  C_15 
REMARK       I    between atoms: C_15  and  N_16 
REMARK    4  A    between atoms: N_16  and  C_17 
REMARK    5  A    between atoms: C_17  and  C_18 
REMARK    6  A    between atoms: C_18  and  C_19 
ROOT
HETATM    1  N   UNL     1      41.481 -16.394   0.655  1.00  0.00    -0.308 N 
HETATM    2  C   UNL     1      41.671 -15.119   0.169  1.00  0.00     0.320 C 
HETATM    3  N   UNL     1      41.295 -15.050  -1.159  1.00  0.00    -0.342 N 
HETATM    4  O   UNL     1      42.065 -14.140   0.789  1.00  0.00    -0.247 OA
HETATM    5  H   UNL     1      40.931 -16.980   0.047  1.00  0.00     0.170 HD
HETATM    6  H   UNL     1      41.514 -15.870  -1.713  1.00  0.00     0.164 HD
ENDROOT
BRANCH   1   7
HETATM    7  C   UNL     1      41.742 -16.876   1.960  1.00  0.00     0.045 A 
HETATM    8  C   UNL     1      42.923 -17.621   2.195  1.00  0.00    -0.002 A 
HETATM    9  C   UNL     1      43.918 -17.879   1.092  1.00  0.00     0.053 C 
HETATM   10  C   UNL     1      43.135 -18.173   3.475  1.00  0.00     0.077 A 
HETATM   11  C   UNL     1      42.258 -17.906   4.527  1.00  0.00     0.037 A 
HETATM   12  C   UNL     1      41.124 -17.136   4.299  1.00  0.00     0.005 A 
HETATM   13  C   UNL     1      40.863 -16.634   3.022  1.00  0.00     0.030 A 
BRANCH  10  14
HETATM   14  O   UNL     1      44.255 -18.946   3.662  1.00  0.00    -0.345 OA
BRANCH  14  15
HETATM   15  C   UNL     1      43.994 -20.332   3.885  1.00  0.00     0.129 C 
HETATM   16  C   UNL     1      44.552 -21.255   2.803  1.00  0.00     0.032 C 
HETATM   17  C   UNL     1      44.621 -22.603   3.501  1.00  0.00     0.002 C 
HETATM   18  C   UNL     1      45.026 -22.279   4.936  1.00  0.00     0.002 C 
HETATM   19  C   UNL     1      44.769 -20.785   5.126  1.00  0.00     0.032 C 
ENDBRANCH  14  15
ENDBRANCH  10  14
ENDBRANCH   1   7
BRANCH   3  20
HETATM   20  C   UNL     1      41.407 -13.795  -1.889  1.00  0.00     0.132 C 
BRANCH  20  21
HETATM   21  C   UNL     1      41.020 -13.924  -3.363  1.00  0.00     0.102 C 
BRANCH  21  22
HETATM   22  C   UNL     1      39.887 -14.866  -3.571  1.00  0.00     0.148 A 
HETATM   23  N   UNL     1      40.064 -16.182  -3.752  1.00  0.00    -0.158 NA
HETATM   24  N   UNL     1      38.798 -16.610  -3.883  1.00  0.00    -0.270 N 
HETATM   25  H   UNL     1      38.619 -17.598  -4.026  1.00  0.00     0.190 HD
HETATM   26  C   UNL     1      37.919 -15.577  -3.796  1.00  0.00     0.227 A 
HETATM   27  N   UNL     1      38.573 -14.457  -3.601  1.00  0.00    -0.226 NA
ENDBRANCH  21  22
ENDBRANCH  20  21
ENDBRANCH   3  20
TORSDOF 6
ENDMDL
MODEL 4
REMARK VINA RESULT:      -7.5      1.736      3.005
REMARK  6 active torsions:
REMARK  status: ('A' for Active; 'I' for Inactive)
REMARK    1  A    between atoms: C_3  and  O_4 
REMARK    2  A    between atoms: O_4  and  C_5 
REMARK    3  A    between atoms: C_13  and  N_14 
REMARK       I    between atoms: N_14  and  C_15 
REMARK       I    between atoms: C_15  and  N_16 
REMARK    4  A    between atoms: N_16  and  C_17 
REMARK    5  A    between atoms: C_17  and  C_18 
REMARK    6  A    between atoms: C_18  and  C_19 
ROOT
HETATM    1  N   UNL     1      43.970 -14.598   7.549  1.00  0.00    -0.308 N 
HETATM    2  C   UNL     1      44.975 -13.655   7.564  1.00  0.00     0.320 C 
HETATM    3  N   UNL     1      44.860 -12.849   8.679  1.00  0.00    -0.342 N 
HETATM    4  O   UNL     1      45.890 -13.534   6.760  1.00  0.00    -0.247 OA
HETATM    5  H   UNL     1      43.470 -14.668   8.420  1.00  0.00     0.170 HD
HETATM    6  H   UNL     1      43.910 -12.621   8.952  1.00  0.00     0.164 HD
ENDROOT
BRANCH   1   7
HETATM    7  C   UNL     1      43.736 -15.606   6.583  1.00  0.00     0.045 A 
HETATM    8  C   UNL     1      42.787 -15.370   5.559  1.00  0.00    -0.002 A 
HETATM    9  C   UNL     1      42.050 -14.058   5.462  1.00  0.00     0.053 C 
HETATM   10  C   UNL     1      42.494 -16.409   4.651  1.00  0.00     0.077 A 
HETATM   11  C   UNL     1      43.199 -17.612   4.685  1.00  0.00     0.037 A 
HETATM   12  C   UNL     1      44.161 -17.820   5.666  1.00  0.00     0.005 A 
HETATM   13  C   UNL     1      44.420 -16.827   6.613  1.00  0.00     0.030 A 
BRANCH  10  14
HETATM   14  O   UNL     1      41.523 -16.179   3.707  1.00  0.00    -0.345 OA
BRANCH  14  15
HETATM   15  C   UNL     1      41.987 -16.198   2.356  1.00  0.00     0.129 C 
HETATM   16  C   UNL     1      41.187 -17.116   1.433  1.00  0.00     0.032 C 
HETATM   17  C   UNL     1      41.504 -16.576   0.049  1.00  0.00     0.002 C 
HETATM   18  C   UNL     1      41.590 -15.064   0.231  1.00  0.00     0.002 C 
HETATM   19  C   UNL     1      41.741 -14.821   1.732  1.00  0.00     0.032 C 
ENDBRANCH  14  15
ENDBRANCH  10  14
ENDBRANCH   1   7
BRANCH   3  20
HETATM   20  C   UNL     1      45.817 -11.775   8.910  1.00  0.00     0.132 C 
BRANCH  20  21
HETATM   21  C   UNL     1      45.335 -10.756   9.944  1.00  0.00     0.102 C 
BRANCH  21  22
HETATM   22  C   UNL     1      43.905 -10.954  10.311  1.00  0.00     0.148 A 
HETATM   23  N   UNL     1      43.521 -11.740  11.326  1.00  0.00    -0.158 NA
HETATM   24  N   UNL     1      42.186 -11.604  11.284  1.00  0.00    -0.270 N 
HETATM   25  H   UNL     1      41.614 -12.094  11.963  1.00  0.00     0.190 HD
HETATM   26  C   UNL     1      41.809 -10.780  10.272  1.00  0.00     0.227 A 
HETATM   27  N   UNL     1      42.871 -10.351   9.632  1.00  0.00    -0.226 NA
ENDBRANCH  21  22
ENDBRANCH  20  21
ENDBRANCH   3  20
TORSDOF 6
ENDMDL
MODEL 5
REMARK VINA RESULT:      -7.4      4.266      5.923
REMARK  6 active torsions:
REMARK  status: ('A' for Active; 'I' for Inactive)
REMARK    1  A    between atoms: C_3  and  O_4 
REMARK    2  A    between atoms: O_4  and  C_5 
REMARK    3  A    between atoms: C_13  and  N_14 
REMARK       I    between atoms: N_14  and  C_15 
REMARK       I    between atoms: C_15  and  N_16 
REMARK    4  A    between atoms: N_16  and  C_17 
REMARK    5  A    between atoms: C_17  and  C_18 
REMARK    6  A    between atoms: C_18  and  C_19 
ROOT
HETATM    1  N   UNL     1      41.183 -16.306   5.671  1.00  0.00    -0.308 N 
HETATM    2  C   UNL     1      41.116 -14.951   5.433  1.00  0.00     0.320 C 
HETATM    3  N   UNL     1      39.859 -14.604   4.978  1.00  0.00    -0.342 N 
HETATM    4  O   UNL     1      41.994 -14.120   5.626  1.00  0.00    -0.247 OA
HETATM    5  H   UNL     1      40.284 -16.761   5.671  1.00  0.00     0.170 HD
HETATM    6  H   UNL     1      39.424 -15.277   4.356  1.00  0.00     0.164 HD
ENDROOT
BRANCH   1   7
HETATM    7  C   UNL     1      42.288 -17.054   6.143  1.00  0.00     0.045 A 
HETATM    8  C   UNL     1      43.131 -17.700   5.207  1.00  0.00    -0.002 A 
HETATM    9  C   UNL     1      42.892 -17.578   3.723  1.00  0.00     0.053 C 
HETATM   10  C   UNL     1      44.179 -18.515   5.684  1.00  0.00     0.077 A 
HETATM   11  C   UNL     1      44.455 -18.603   7.049  1.00  0.00     0.037 A 
HETATM   12  C   UNL     1      43.650 -17.930   7.960  1.00  0.00     0.005 A 
HETATM   13  C   UNL     1      42.568 -17.170   7.509  1.00  0.00     0.030 A 
BRANCH  10  14
HETATM   14  O   UNL     1      44.943 -19.183   4.759  1.00  0.00    -0.345 OA
BRANCH  14  15
HETATM   15  C   UNL     1      44.326 -20.344   4.201  1.00  0.00     0.129 C 
HETATM   16  C   UNL     1      44.717 -20.623   2.750  1.00  0.00     0.032 C 
HETATM   17  C   UNL     1      44.392 -22.098   2.583  1.00  0.00     0.002 C 
HETATM   18  C   UNL     1      44.753 -22.731   3.923  1.00  0.00     0.002 C 
HETATM   19  C   UNL     1      44.865 -21.582   4.923  1.00  0.00     0.032 C 
ENDBRANCH  14  15
ENDBRANCH  10  14
ENDBRANCH   1   7
BRANCH   3  20
HETATM   20  C   UNL     1      39.551 -13.217   4.658  1.00  0.00     0.132 C 
BRANCH  20  21
HETATM   21  C   UNL     1      39.585 -12.927   3.157  1.00  0.00     0.102 C 
BRANCH  21  22
HETATM   22  C   UNL     1      39.919 -14.136   2.354  1.00  0.00     0.148 A 
HETATM   23  N   UNL     1      39.016 -15.080   2.058  1.00  0.00    -0.158 NA
HETATM   24  N   UNL     1      39.749 -15.939   1.333  1.00  0.00    -0.270 N 
HETATM   25  H   UNL     1      39.311 -16.773   0.956  1.00  0.00     0.190 HD
HETATM   26  C   UNL     1      41.036 -15.516   1.224  1.00  0.00     0.227 A 
HETATM   27  N   UNL     1      41.181 -14.378   1.861  1.00  0.00    -0.226 NA
ENDBRANCH  21  22
ENDBRANCH  20  21
ENDBRANCH   3  20
TORSDOF 6
ENDMDL
MODEL 6
REMARK VINA RESULT:      -7.3      2.060      2.766
REMARK  6 active torsions:
REMARK  status: ('A' for Active; 'I' for Inactive)
REMARK    1  A    between atoms: C_3  and  O_4 
REMARK    2  A    between atoms: O_4  and  C_5 
REMARK    3  A    between atoms: C_13  and  N_14 
REMARK       I    between atoms: N_14  and  C_15 
REMARK       I    between atoms: C_15  and  N_16 
REMARK    4  A    between atoms: N_16  and  C_17 
REMARK    5  A    between atoms: C_17  and  C_18 
REMARK    6  A    between atoms: C_18  and  C_19 
ROOT
HETATM    1  N   UNL     1      41.259 -13.349   6.205  1.00  0.00    -0.308 N 
HETATM    2  C   UNL     1      41.371 -11.977   6.157  1.00  0.00     0.320 C 
HETATM    3  N   UNL     1      41.341 -11.447   7.432  1.00  0.00    -0.342 N 
HETATM    4  O   UNL     1      41.526 -11.280   5.162  1.00  0.00    -0.247 OA
HETATM    5  H   UNL     1      41.378 -13.732   7.129  1.00  0.00     0.170 HD
HETATM    6  H   UNL     1      40.708 -11.909   8.077  1.00  0.00     0.164 HD
ENDROOT
BRANCH   1   7
HETATM    7  C   UNL     1      41.248 -14.260   5.121  1.00  0.00     0.045 A 
HETATM    8  C   UNL     1      42.386 -15.071   4.893  1.00  0.00    -0.002 A 
HETATM    9  C   UNL     1      43.589 -15.004   5.800  1.00  0.00     0.053 C 
HETATM   10  C   UNL     1      42.406 -15.914   3.763  1.00  0.00     0.077 A 
HETATM   11  C   UNL     1      41.287 -16.034   2.939  1.00  0.00     0.037 A 
HETATM   12  C   UNL     1      40.156 -15.268   3.195  1.00  0.00     0.005 A 
HETATM   13  C   UNL     1      40.142 -14.381   4.272  1.00  0.00     0.030 A 
BRANCH  10  14
HETATM   14  O   UNL     1      43.546 -16.642   3.526  1.00  0.00    -0.345 OA
BRANCH  14  15
HETATM   15  C   UNL     1      43.336 -18.046   3.366  1.00  0.00     0.129 C 
HETATM   16  C   UNL     1      43.884 -18.614   2.057  1.00  0.00     0.032 C 
HETATM   17  C   UNL     1      44.019 -20.097   2.356  1.00  0.00     0.002 C 
HETATM   18  C   UNL     1      44.464 -20.163   3.814  1.00  0.00     0.002 C 
HETATM   19  C   UNL     1      44.167 -18.790   4.414  1.00  0.00     0.032 C 
ENDBRANCH  14  15
ENDBRANCH  10  14
ENDBRANCH   1   7
BRANCH   3  20
HETATM   20  C   UNL     1      41.444 -10.008   7.633  1.00  0.00     0.132 C 
BRANCH  20  21
HETATM   21  C   UNL     1      41.953  -9.633   9.025  1.00  0.00     0.102 C 
BRANCH  21  22
HETATM   22  C   UNL     1      42.800 -10.701   9.625  1.00  0.00     0.148 A 
HETATM   23  N   UNL     1      42.466 -11.340  10.754  1.00  0.00    -0.158 NA
HETATM   24  N   UNL     1      43.491 -12.194  10.896  1.00  0.00    -0.270 N 
HETATM   25  H   UNL     1      43.503 -12.831  11.685  1.00  0.00     0.190 HD
HETATM   26  C   UNL     1      44.396 -12.045   9.893  1.00  0.00     0.227 A 
HETATM   27  N   UNL     1      43.993 -11.106   9.071  1.00  0.00    -0.226 NA
ENDBRANCH  21  22
ENDBRANCH  20  21
ENDBRANCH   3  20
TORSDOF 6
ENDMDL
MODEL 7
REMARK VINA RESULT:      -7.3      5.581      8.063
REMARK  6 active torsions:
REMARK  status: ('A' for Active; 'I' for Inactive)
REMARK    1  A    between atoms: C_3  and  O_4 
REMARK    2  A    between atoms: O_4  and  C_5 
REMARK    3  A    between atoms: C_13  and  N_14 
REMARK       I    between atoms: N_14  and  C_15 
REMARK       I    between atoms: C_15  and  N_16 
REMARK    4  A    between atoms: N_16  and  C_17 
REMARK    5  A    between atoms: C_17  and  C_18 
REMARK    6  A    between atoms: C_18  and  C_19 
ROOT
HETATM    1  N   UNL     1      41.514 -15.450   1.745  1.00  0.00    -0.308 N 
HETATM    2  C   UNL     1      40.249 -15.138   1.297  1.00  0.00     0.320 C 
HETATM    3  N   UNL     1      40.321 -14.387   0.139  1.00  0.00    -0.342 N 
HETATM    4  O   UNL     1      39.182 -15.489   1.784  1.00  0.00    -0.247 OA
HETATM    5  H   UNL     1      42.238 -15.264   1.071  1.00  0.00     0.170 HD
HETATM    6  H   UNL     1      41.080 -13.715   0.107  1.00  0.00     0.164 HD
ENDROOT
BRANCH   1   7
HETATM    7  C   UNL     1      41.871 -16.201   2.891  1.00  0.00     0.045 A 
HETATM    8  C   UNL     1      42.997 -17.056   2.829  1.00  0.00    -0.002 A 
HETATM    9  C   UNL     1      43.837 -17.155   1.580  1.00  0.00     0.053 C 
HETATM   10  C   UNL     1      43.298 -17.867   3.943  1.00  0.00     0.077 A 
HETATM   11  C   UNL     1      42.570 -17.757   5.128  1.00  0.00     0.037 A 
HETATM   12  C   UNL     1      41.493 -16.882   5.196  1.00  0.00     0.005 A 
HETATM   13  C   UNL     1      41.141 -16.118   4.082  1.00  0.00     0.030 A 
BRANCH  10  14
HETATM   14  O   UNL     1      44.357 -18.736   3.835  1.00  0.00    -0.345 OA
BRANCH  14  15
HETATM   15  C   UNL     1      43.993 -20.116   3.771  1.00  0.00     0.129 C 
HETATM   16  C   UNL     1      44.459 -20.826   2.500  1.00  0.00     0.032 C 
HETATM   17  C   UNL     1      44.435 -22.292   2.897  1.00  0.00     0.002 C 
HETATM   18  C   UNL     1      44.889 -22.310   4.353  1.00  0.00     0.002 C 
HETATM   19  C   UNL     1      44.752 -20.876   4.862  1.00  0.00     0.032 C 
ENDBRANCH  14  15
ENDBRANCH  10  14
ENDBRANCH   1   7
BRANCH   3  20
HETATM   20  C   UNL     1      39.103 -13.938  -0.521  1.00  0.00     0.132 C 
BRANCH  20  21
HETATM   21  C   UNL     1      39.374 -13.145  -1.800  1.00  0.00     0.102 C 
BRANCH  21  22
HETATM   22  C   UNL     1      40.772 -13.311  -2.285  1.00  0.00     0.148 A 
HETATM   23  N   UNL     1      41.166 -14.367  -3.008  1.00  0.00    -0.158 NA
HETATM   24  N   UNL     1      42.462 -14.085  -3.216  1.00  0.00    -0.270 N 
HETATM   25  H   UNL     1      43.030 -14.725  -3.760  1.00  0.00     0.190 HD
HETATM   26  C   UNL     1      42.810 -12.913  -2.623  1.00  0.00     0.227 A 
HETATM   27  N   UNL     1      41.766 -12.396  -2.021  1.00  0.00    -0.226 NA
ENDBRANCH  21  22
ENDBRANCH  20  21
ENDBRANCH   3  20
TORSDOF 6
ENDMDL
MODEL 8
REMARK VINA RESULT:      -7.2      5.885      9.019
REMARK  6 active torsions:
REMARK  status: ('A' for Active; 'I' for Inactive)
REMARK    1  A    between atoms: C_3  and  O_4 
REMARK    2  A    between atoms: O_4  and  C_5 
REMARK    3  A    between atoms: C_13  and  N_14 
REMARK       I    between atoms: N_14  and  C_15 
REMARK       I    between atoms: C_15  and  N_16 
REMARK    4  A    between atoms: N_16  and  C_17 
REMARK    5  A    between atoms: C_17  and  C_18 
REMARK    6  A    between atoms: C_18  and  C_19 
ROOT
HETATM    1  N   UNL     1      41.571 -16.468   0.344  1.00  0.00    -0.308 N 
HETATM    2  C   UNL     1      41.563 -15.099   0.189  1.00  0.00     0.320 C 
HETATM    3  N   UNL     1      40.697 -14.735  -0.824  1.00  0.00    -0.342 N 
HETATM    4  O   UNL     1      42.176 -14.274   0.853  1.00  0.00    -0.247 OA
HETATM    5  H   UNL     1      40.822 -16.934  -0.143  1.00  0.00     0.170 HD
HETATM    6  H   UNL     1      40.675 -15.363  -1.620  1.00  0.00     0.164 HD
ENDROOT
BRANCH   1   7
HETATM    7  C   UNL     1      42.319 -17.236   1.269  1.00  0.00     0.045 A 
HETATM    8  C   UNL     1      41.809 -17.428   2.575  1.00  0.00    -0.002 A 
HETATM    9  C   UNL     1      40.473 -16.861   2.985  1.00  0.00     0.053 C 
HETATM   10  C   UNL     1      42.597 -18.119   3.519  1.00  0.00     0.077 A 
HETATM   11  C   UNL     1      43.811 -18.699   3.152  1.00  0.00     0.037 A 
HETATM   12  C   UNL     1      44.285 -18.544   1.855  1.00  0.00     0.005 A 
HETATM   13  C   UNL     1      43.549 -17.809   0.924  1.00  0.00     0.030 A 
BRANCH  10  14
HETATM   14  O   UNL     1      42.109 -18.237   4.797  1.00  0.00    -0.345 OA
BRANCH  14  15
HETATM   15  C   UNL     1      42.995 -17.780   5.820  1.00  0.00     0.129 C 
HETATM   16  C   UNL     1      42.303 -17.026   6.955  1.00  0.00     0.032 C 
HETATM   17  C   UNL     1      43.304 -17.125   8.094  1.00  0.00     0.002 C 
HETATM   18  C   UNL     1      43.915 -18.516   7.957  1.00  0.00     0.002 C 
HETATM   19  C   UNL     1      43.577 -18.995   6.547  1.00  0.00     0.032 C 
ENDBRANCH  14  15
ENDBRANCH  10  14
ENDBRANCH   1   7
BRANCH   3  20
HETATM   20  C   UNL     1      40.523 -13.332  -1.172  1.00  0.00     0.132 C 
BRANCH  20  21
HETATM   21  C   UNL     1      40.206 -13.117  -2.652  1.00  0.00     0.102 C 
BRANCH  21  22
HETATM   22  C   UNL     1      39.489 -14.276  -3.252  1.00  0.00     0.148 A 
HETATM   23  N   UNL     1      40.115 -15.226  -3.961  1.00  0.00    -0.158 NA
HETATM   24  N   UNL     1      39.098 -16.041  -4.279  1.00  0.00    -0.270 N 
HETATM   25  H   UNL     1      39.282 -16.877  -4.823  1.00  0.00     0.190 HD
HETATM   26  C   UNL     1      37.921 -15.573  -3.786  1.00  0.00     0.227 A 
HETATM   27  N   UNL     1      38.131 -14.456  -3.132  1.00  0.00    -0.226 NA
ENDBRANCH  21  22
ENDBRANCH  20  21
ENDBRANCH   3  20
TORSDOF 6
ENDMDL
MODEL 9
REMARK VINA RESULT:      -7.2      5.939      8.860
REMARK  6 active torsions:
REMARK  status: ('A' for Active; 'I' for Inactive)
REMARK    1  A    between atoms: C_3  and  O_4 
REMARK    2  A    between atoms: O_4  and  C_5 
REMARK    3  A    between atoms: C_13  and  N_14 
REMARK       I    between atoms: N_14  and  C_15 
REMARK       I    between atoms: C_15  and  N_16 
REMARK    4  A    between atoms: N_16  and  C_17 
REMARK    5  A    between atoms: C_17  and  C_18 
REMARK    6  A    between atoms: C_18  and  C_19 
ROOT
HETATM    1  N   UNL     1      40.820 -14.448   0.713  1.00  0.00    -0.308 N 
HETATM    2  C   UNL     1      41.144 -13.617  -0.337  1.00  0.00     0.320 C 
HETATM    3  N   UNL     1      40.040 -13.402  -1.138  1.00  0.00    -0.342 N 
HETATM    4  O   UNL     1      42.223 -13.078  -0.551  1.00  0.00    -0.247 OA
HETATM    5  H   UNL     1      39.829 -14.583   0.830  1.00  0.00     0.170 HD
HETATM    6  H   UNL     1      39.432 -14.205  -1.261  1.00  0.00     0.164 HD
ENDROOT
BRANCH   1   7
HETATM    7  C   UNL     1      41.665 -14.908   1.752  1.00  0.00     0.045 A 
HETATM    8  C   UNL     1      41.693 -16.291   2.055  1.00  0.00    -0.002 A 
HETATM    9  C   UNL     1      40.868 -17.280   1.270  1.00  0.00     0.053 C 
HETATM   10  C   UNL     1      42.468 -16.733   3.146  1.00  0.00     0.077 A 
HETATM   11  C   UNL     1      43.281 -15.848   3.854  1.00  0.00     0.037 A 
HETATM   12  C   UNL     1      43.282 -14.498   3.523  1.00  0.00     0.005 A 
HETATM   13  C   UNL     1      42.472 -14.032   2.487  1.00  0.00     0.030 A 
BRANCH  10  14
HETATM   14  O   UNL     1      42.428 -18.070   3.460  1.00  0.00    -0.345 OA
BRANCH  14  15
HETATM   15  C   UNL     1      43.666 -18.761   3.286  1.00  0.00     0.129 C 
HETATM   16  C   UNL     1      44.110 -19.564   4.508  1.00  0.00     0.032 C 
HETATM   17  C   UNL     1      45.087 -20.570   3.923  1.00  0.00     0.002 C 
HETATM   18  C   UNL     1      44.500 -20.939   2.564  1.00  0.00     0.002 C 
HETATM   19  C   UNL     1      43.473 -19.857   2.234  1.00  0.00     0.032 C 
ENDBRANCH  14  15
ENDBRANCH  10  14
ENDBRANCH   1   7
BRANCH   3  20
HETATM   20  C   UNL     1      40.142 -12.551  -2.316  1.00  0.00     0.132 C 
BRANCH  20  21
HETATM   21  C   UNL     1      40.518 -13.323  -3.581  1.00  0.00     0.102 C 
BRANCH  21  22
HETATM   22  C   UNL     1      39.887 -14.671  -3.632  1.00  0.00     0.148 A 
HETATM   23  N   UNL     1      40.580 -15.802  -3.441  1.00  0.00    -0.158 NA
HETATM   24  N   UNL     1      39.620 -16.731  -3.565  1.00  0.00    -0.270 N 
HETATM   25  H   UNL     1      39.859 -17.711  -3.457  1.00  0.00     0.190 HD
HETATM   26  C   UNL     1      38.416 -16.161  -3.833  1.00  0.00     0.227 A 
HETATM   27  N   UNL     1      38.548 -14.857  -3.885  1.00  0.00    -0.226 NA
ENDBRANCH  21  22
ENDBRANCH  20  21
ENDBRANCH   3  20
TORSDOF 6
ENDMDL
MODEL 10
REMARK VINA RESULT:      -7.1      3.576      4.040
REMARK  6 active torsions:
REMARK  status: ('A' for Active; 'I' for Inactive)
REMARK    1  A    between atoms: C_3  and  O_4 
REMARK    2  A    between atoms: O_4  and  C_5 
REMARK    3  A    between atoms: C_13  and  N_14 
REMARK       I    between atoms: N_14  and  C_15 
REMARK       I    between atoms: C_15  and  N_16 
REMARK    4  A    between atoms: N_16  and  C_17 
REMARK    5  A    between atoms: C_17  and  C_18 
REMARK    6  A    between atoms: C_18  and  C_19 
ROOT
HETATM    1  N   UNL     1      40.533 -15.947   4.703  1.00  0.00    -0.308 N 
HETATM    2  C   UNL     1      40.186 -14.618   4.601  1.00  0.00     0.320 C 
HETATM    3  N   UNL     1      39.583 -14.188   5.767  1.00  0.00    -0.342 N 
HETATM    4  O   UNL     1      40.400 -13.866   3.659  1.00  0.00    -0.247 OA
HETATM    5  H   UNL     1      40.480 -16.307   5.642  1.00  0.00     0.170 HD
HETATM    6  H   UNL     1      38.976 -14.865   6.215  1.00  0.00     0.164 HD
ENDROOT
BRANCH   1   7
HETATM    7  C   UNL     1      41.168 -16.759   3.733  1.00  0.00     0.045 A 
HETATM    8  C   UNL     1      42.304 -17.516   4.106  1.00  0.00    -0.002 A 
HETATM    9  C   UNL     1      42.826 -17.499   5.521  1.00  0.00     0.053 C 
HETATM   10  C   UNL     1      42.986 -18.255   3.116  1.00  0.00     0.077 A 
HETATM   11  C   UNL     1      42.494 -18.330   1.813  1.00  0.00     0.037 A 
HETATM   12  C   UNL     1      41.352 -17.620   1.464  1.00  0.00     0.005 A 
HETATM   13  C   UNL     1      40.701 -16.832   2.415  1.00  0.00     0.030 A 
BRANCH  10  14
HETATM   14  O   UNL     1      44.122 -18.929   3.489  1.00  0.00    -0.345 OA
BRANCH  14  15
HETATM   15  C   UNL     1      43.929 -20.316   3.770  1.00  0.00     0.129 C 
HETATM   16  C   UNL     1      44.525 -21.255   2.721  1.00  0.00     0.032 C 
HETATM   17  C   UNL     1      44.661 -22.568   3.473  1.00  0.00     0.002 C 
HETATM   18  C   UNL     1      45.058 -22.168   4.890  1.00  0.00     0.002 C 
HETATM   19  C   UNL     1      44.731 -20.681   5.022  1.00  0.00     0.032 C 
ENDBRANCH  14  15
ENDBRANCH  10  14
ENDBRANCH   1   7
BRANCH   3  20
HETATM   20  C   UNL     1      39.128 -12.810   5.893  1.00  0.00     0.132 C 
BRANCH  20  21
HETATM   21  C   UNL     1      40.133 -11.912   6.617  1.00  0.00     0.102 C 
BRANCH  21  22
HETATM   22  C   UNL     1      39.508 -11.145   7.730  1.00  0.00     0.148 A 
HETATM   23  N   UNL     1      39.207 -11.700   8.912  1.00  0.00    -0.158 NA
HETATM   24  N   UNL     1      38.689 -10.655   9.577  1.00  0.00    -0.270 N 
HETATM   25  H   UNL     1      38.373 -10.781  10.532  1.00  0.00     0.190 HD
HETATM   26  C   UNL     1      38.678  -9.538   8.804  1.00  0.00     0.227 A 
HETATM   27  N   UNL     1      39.186  -9.811   7.626  1.00  0.00    -0.226 NA
ENDBRANCH  21  22
ENDBRANCH  20  21
ENDBRANCH   3  20
TORSDOF 6
ENDMDL
