MODEL 1
REMARK VINA RESULT:      -7.5      0.000      0.000
REMARK  4 active torsions:
REMARK  status: ('A' for Active; 'I' for Inactive)
REMARK    1  A    between atoms: C_2  and  O_3 
REMARK    2  A    between atoms: C_2  and  C_12 
REMARK    3  A    between atoms: O_3  and  C_4 
REMARK       I    between atoms: C_12  and  N_13 
REMARK    4  A    between atoms: N_13  and  C_14 
ROOT
HETATM    1  C   UNL     1      43.630 -15.788   2.482  1.00  0.00     0.050 C 
HETATM    2  C   UNL     1      43.096 -17.075   1.864  1.00  0.00     0.217 C 
ENDROOT
BRANCH   2   3
HETATM    3  O   UNL     1      42.799 -18.013   2.904  1.00  0.00    -0.336 OA
BRANCH   3   4
HETATM    4  C   UNL     1      43.316 -19.278   2.849  1.00  0.00     0.087 A 
HETATM    5  C   UNL     1      44.150 -19.660   3.917  1.00  0.00     0.047 A 
HETATM    6 BR   UNL     1      44.493 -18.480   5.369  1.00  0.00    -0.048 Br
HETATM    7  C   UNL     1      44.745 -20.923   3.947  1.00  0.00     0.064 A 
HETATM    8  C   UNL     1      44.507 -21.805   2.904  1.00  0.00     0.117 A 
HETATM    9  F   UNL     1      45.075 -23.017   2.923  1.00  0.00    -0.206 F 
HETATM   10  C   UNL     1      43.694 -21.448   1.837  1.00  0.00     0.045 A 
HETATM   11  C   UNL     1      43.100 -20.184   1.805  1.00  0.00     0.041 A 
ENDBRANCH   3   4
ENDBRANCH   2   3
BRANCH   2  12
HETATM   12  C   UNL     1      41.803 -16.743   1.092  1.00  0.00     0.252 C 
HETATM   13  N   UNL     1      41.987 -15.750   0.149  1.00  0.00    -0.309 N 
HETATM   14  H   UNL     1      42.913 -15.337   0.121  1.00  0.00     0.170 HD
HETATM   15  O   UNL     1      40.765 -17.355   1.333  1.00  0.00    -0.270 OA
BRANCH  13  16
HETATM   16  C   UNL     1      41.023 -15.256  -0.730  1.00  0.00     0.129 A 
HETATM   17  N   UNL     1      40.085 -14.388  -0.311  1.00  0.00    -0.242 NA
HETATM   18  C   UNL     1      39.175 -13.952  -1.214  1.00  0.00     0.142 A 
HETATM   19  C   UNL     1      39.156 -14.348  -2.539  1.00  0.00     0.051 A 
HETATM   20 CL   UNL     1      37.971 -13.754  -3.628  1.00  0.00    -0.083 Cl
HETATM   21  C   UNL     1      40.126 -15.243  -2.966  1.00  0.00     0.029 A 
HETATM   22  C   UNL     1      41.073 -15.705  -2.049  1.00  0.00     0.052 A 
ENDBRANCH  13  16
ENDBRANCH   2  12
TORSDOF 4
ENDMDL
MODEL 2
REMARK VINA RESULT:      -7.1      8.326     10.346
REMARK  4 active torsions:
REMARK  status: ('A' for Active; 'I' for Inactive)
REMARK    1  A    between atoms: C_2  and  O_3 
REMARK    2  A    between atoms: C_2  and  C_12 
REMARK    3  A    between atoms: O_3  and  C_4 
REMARK       I    between atoms: C_12  and  N_13 
REMARK    4  A    between atoms: N_13  and  C_14 
ROOT
HETATM    1  C   UNL     1      46.765 -11.594   8.419  1.00  0.00     0.050 C 
HETATM    2  C   UNL     1      45.511 -12.427   8.654  1.00  0.00     0.217 C 
ENDROOT
BRANCH   2   3
HETATM    3  O   UNL     1      44.374 -11.560   8.734  1.00  0.00    -0.336 OA
BRANCH   3   4
HETATM    4  C   UNL     1      43.666 -11.471   9.901  1.00  0.00     0.087 A 
HETATM    5  C   UNL     1      42.414 -10.832   9.828  1.00  0.00     0.047 A 
HETATM    6 BR   UNL     1      41.742 -10.172   8.174  1.00  0.00    -0.048 Br
HETATM    7  C   UNL     1      41.622 -10.671  10.965  1.00  0.00     0.064 A 
HETATM    8  C   UNL     1      42.085 -11.147  12.183  1.00  0.00     0.117 A 
HETATM    9  F   UNL     1      41.333 -10.995  13.279  1.00  0.00    -0.206 F 
HETATM   10  C   UNL     1      43.319 -11.775  12.282  1.00  0.00     0.045 A 
HETATM   11  C   UNL     1      44.114 -11.935  11.143  1.00  0.00     0.041 A 
ENDBRANCH   3   4
ENDBRANCH   2   3
BRANCH   2  12
HETATM   12  C   UNL     1      45.335 -13.389   7.461  1.00  0.00     0.252 C 
HETATM   13  N   UNL     1      44.276 -14.260   7.634  1.00  0.00    -0.309 N 
HETATM   14  H   UNL     1      43.793 -14.195   8.523  1.00  0.00     0.170 HD
HETATM   15  O   UNL     1      46.083 -13.313   6.491  1.00  0.00    -0.270 OA
BRANCH  13  16
HETATM   16  C   UNL     1      43.839 -15.221   6.721  1.00  0.00     0.129 A 
HETATM   17  N   UNL     1      42.907 -14.925   5.800  1.00  0.00    -0.242 NA
HETATM   18  C   UNL     1      42.522 -15.904   4.947  1.00  0.00     0.142 A 
HETATM   19  C   UNL     1      43.033 -17.189   4.973  1.00  0.00     0.051 A 
HETATM   20 CL   UNL     1      42.498 -18.381   3.861  1.00  0.00    -0.083 Cl
HETATM   21  C   UNL     1      43.995 -17.490   5.926  1.00  0.00     0.029 A 
HETATM   22  C   UNL     1      44.404 -16.493   6.815  1.00  0.00     0.052 A 
ENDBRANCH  13  16
ENDBRANCH   2  12
TORSDOF 4
ENDMDL
MODEL 3
REMARK VINA RESULT:      -7.1      2.690      2.962
REMARK  4 active torsions:
REMARK  status: ('A' for Active; 'I' for Inactive)
REMARK    1  A    between atoms: C_2  and  O_3 
REMARK    2  A    between atoms: C_2  and  C_12 
REMARK    3  A    between atoms: O_3  and  C_4 
REMARK       I    between atoms: C_12  and  N_13 
REMARK    4  A    between atoms: N_13  and  C_14 
ROOT
HETATM    1  C   UNL     1      41.363 -17.718   4.529  1.00  0.00     0.050 C 
HETATM    2  C   UNL     1      42.263 -16.499   4.362  1.00  0.00     0.217 C 
ENDROOT
BRANCH   2   3
HETATM    3  O   UNL     1      43.563 -16.924   3.938  1.00  0.00    -0.336 OA
BRANCH   3   4
HETATM    4  C   UNL     1      43.759 -18.215   3.533  1.00  0.00     0.087 A 
HETATM    5  C   UNL     1      44.428 -19.061   4.438  1.00  0.00     0.047 A 
HETATM    6 BR   UNL     1      44.982 -18.432   6.146  1.00  0.00    -0.048 Br
HETATM    7  C   UNL     1      44.695 -20.392   4.114  1.00  0.00     0.064 A 
HETATM    8  C   UNL     1      44.297 -20.878   2.877  1.00  0.00     0.117 A 
HETATM    9  F   UNL     1      44.552 -22.152   2.557  1.00  0.00    -0.206 F 
HETATM   10  C   UNL     1      43.643 -20.061   1.965  1.00  0.00     0.045 A 
HETATM   11  C   UNL     1      43.376 -18.728   2.289  1.00  0.00     0.041 A 
ENDBRANCH   3   4
ENDBRANCH   2   3
BRANCH   2  12
HETATM   12  C   UNL     1      41.648 -15.585   3.283  1.00  0.00     0.252 C 
HETATM   13  N   UNL     1      40.324 -15.282   3.535  1.00  0.00    -0.309 N 
HETATM   14  H   UNL     1      39.918 -15.730   4.349  1.00  0.00     0.170 HD
HETATM   15  O   UNL     1      42.333 -15.193   2.341  1.00  0.00    -0.270 OA
BRANCH  13  16
HETATM   16  C   UNL     1      39.505 -14.452   2.769  1.00  0.00     0.129 A 
HETATM   17  N   UNL     1      39.440 -13.131   3.011  1.00  0.00    -0.242 NA
HETATM   18  C   UNL     1      38.622 -12.382   2.234  1.00  0.00     0.142 A 
HETATM   19  C   UNL     1      37.850 -12.898   1.209  1.00  0.00     0.051 A 
HETATM   20 CL   UNL     1      36.834 -11.889   0.266  1.00  0.00    -0.083 Cl
HETATM   21  C   UNL     1      37.921 -14.262   0.964  1.00  0.00     0.029 A 
HETATM   22  C   UNL     1      38.759 -15.051   1.755  1.00  0.00     0.052 A 
ENDBRANCH  13  16
ENDBRANCH   2  12
TORSDOF 4
ENDMDL
MODEL 4
REMARK VINA RESULT:      -7.1      3.658      4.673
REMARK  4 active torsions:
REMARK  status: ('A' for Active; 'I' for Inactive)
REMARK    1  A    between atoms: C_2  and  O_3 
REMARK    2  A    between atoms: C_2  and  C_12 
REMARK    3  A    between atoms: O_3  and  C_4 
REMARK       I    between atoms: C_12  and  N_13 
REMARK    4  A    between atoms: N_13  and  C_14 
ROOT
HETATM    1  C   UNL     1      42.483 -16.854   1.104  1.00  0.00     0.050 C 
HETATM    2  C   UNL     1      42.413 -17.772   2.319  1.00  0.00     0.217 C 
ENDROOT
BRANCH   2   3
HETATM    3  O   UNL     1      43.731 -18.222   2.650  1.00  0.00    -0.336 OA
BRANCH   3   4
HETATM    4  C   UNL     1      43.972 -19.557   2.822  1.00  0.00     0.087 A 
HETATM    5  C   UNL     1      44.481 -19.947   4.076  1.00  0.00     0.047 A 
HETATM    6 BR   UNL     1      44.770 -18.671   5.458  1.00  0.00    -0.048 Br
HETATM    7  C   UNL     1      44.779 -21.282   4.347  1.00  0.00     0.064 A 
HETATM    8  C   UNL     1      44.572 -22.234   3.359  1.00  0.00     0.117 A 
HETATM    9  F   UNL     1      44.858 -23.517   3.610  1.00  0.00    -0.206 F 
HETATM   10  C   UNL     1      44.078 -21.874   2.112  1.00  0.00     0.045 A 
HETATM   11  C   UNL     1      43.781 -20.536   1.840  1.00  0.00     0.041 A 
ENDBRANCH   3   4
ENDBRANCH   2   3
BRANCH   2  12
HETATM   12  C   UNL     1      41.836 -16.970   3.503  1.00  0.00     0.252 C 
HETATM   13  N   UNL     1      41.952 -15.604   3.325  1.00  0.00    -0.309 N 
HETATM   14  H   UNL     1      42.437 -15.310   2.485  1.00  0.00     0.170 HD
HETATM   15  O   UNL     1      41.327 -17.554   4.456  1.00  0.00    -0.270 OA
BRANCH  13  16
HETATM   16  C   UNL     1      41.494 -14.615   4.197  1.00  0.00     0.129 A 
HETATM   17  N   UNL     1      42.349 -13.935   4.980  1.00  0.00    -0.242 NA
HETATM   18  C   UNL     1      41.839 -12.992   5.807  1.00  0.00     0.142 A 
HETATM   19  C   UNL     1      40.492 -12.691   5.892  1.00  0.00     0.051 A 
HETATM   20 CL   UNL     1      39.916 -11.483   6.965  1.00  0.00    -0.083 Cl
HETATM   21  C   UNL     1      39.615 -13.396   5.081  1.00  0.00     0.029 A 
HETATM   22  C   UNL     1      40.121 -14.373   4.221  1.00  0.00     0.052 A 
ENDBRANCH  13  16
ENDBRANCH   2  12
TORSDOF 4
ENDMDL
MODEL 5
REMARK VINA RESULT:      -6.9      2.011      2.531
REMARK  4 active torsions:
REMARK  status: ('A' for Active; 'I' for Inactive)
REMARK    1  A    between atoms: C_2  and  O_3 
REMARK    2  A    between atoms: C_2  and  C_12 
REMARK    3  A    between atoms: O_3  and  C_4 
REMARK       I    between atoms: C_12  and  N_13 
REMARK    4  A    between atoms: N_13  and  C_14 
ROOT
HETATM    1  C   UNL     1      44.057 -17.046   1.606  1.00  0.00     0.050 C 
HETATM    2  C   UNL     1      42.884 -17.974   1.314  1.00  0.00     0.217 C 
ENDROOT
BRANCH   2   3
HETATM    3  O   UNL     1      42.519 -18.670   2.511  1.00  0.00    -0.336 OA
BRANCH   3   4
HETATM    4  C   UNL     1      43.251 -18.490   3.653  1.00  0.00     0.087 A 
HETATM    5  C   UNL     1      44.211 -19.478   3.944  1.00  0.00     0.047 A 
HETATM    6 BR   UNL     1      44.488 -20.955   2.775  1.00  0.00    -0.048 Br
HETATM    7  C   UNL     1      44.996 -19.400   5.094  1.00  0.00     0.064 A 
HETATM    8  C   UNL     1      44.819 -18.331   5.961  1.00  0.00     0.117 A 
HETATM    9  F   UNL     1      45.566 -18.250   7.068  1.00  0.00    -0.206 F 
HETATM   10  C   UNL     1      43.874 -17.348   5.699  1.00  0.00     0.045 A 
HETATM   11  C   UNL     1      43.086 -17.427   4.547  1.00  0.00     0.041 A 
ENDBRANCH   3   4
ENDBRANCH   2   3
BRANCH   2  12
HETATM   12  C   UNL     1      41.692 -17.118   0.839  1.00  0.00     0.252 C 
HETATM   13  N   UNL     1      42.023 -16.285  -0.213  1.00  0.00    -0.309 N 
HETATM   14  H   UNL     1      42.996 -16.302  -0.498  1.00  0.00     0.170 HD
HETATM   15  O   UNL     1      40.594 -17.237   1.375  1.00  0.00    -0.270 OA
BRANCH  13  16
HETATM   16  C   UNL     1      41.159 -15.420  -0.885  1.00  0.00     0.129 A 
HETATM   17  N   UNL     1      40.598 -14.375  -0.253  1.00  0.00    -0.242 NA
HETATM   18  C   UNL     1      39.765 -13.576  -0.961  1.00  0.00     0.142 A 
HETATM   19  C   UNL     1      39.458 -13.776  -2.295  1.00  0.00     0.051 A 
HETATM   20 CL   UNL     1      38.391 -12.724  -3.130  1.00  0.00    -0.083 Cl
HETATM   21  C   UNL     1      40.040 -14.857  -2.942  1.00  0.00     0.029 A 
HETATM   22  C   UNL     1      40.903 -15.692  -2.229  1.00  0.00     0.052 A 
ENDBRANCH  13  16
ENDBRANCH   2  12
TORSDOF 4
ENDMDL
MODEL 6
REMARK VINA RESULT:      -6.7      2.036      2.270
REMARK  4 active torsions:
REMARK  status: ('A' for Active; 'I' for Inactive)
REMARK    1  A    between atoms: C_2  and  O_3 
REMARK    2  A    between atoms: C_2  and  C_12 
REMARK    3  A    between atoms: O_3  and  C_4 
REMARK       I    between atoms: C_12  and  N_13 
REMARK    4  A    between atoms: N_13  and  C_14 
ROOT
HETATM    1  C   UNL     1      40.995 -15.166   5.470  1.00  0.00     0.050 C 
HETATM    2  C   UNL     1      41.668 -15.861   4.292  1.00  0.00     0.217 C 
ENDROOT
BRANCH   2   3
HETATM    3  O   UNL     1      41.453 -17.273   4.388  1.00  0.00    -0.336 OA
BRANCH   3   4
HETATM    4  C   UNL     1      42.379 -18.140   3.877  1.00  0.00     0.087 A 
HETATM    5  C   UNL     1      43.322 -18.657   4.786  1.00  0.00     0.047 A 
HETATM    6 BR   UNL     1      43.266 -18.194   6.631  1.00  0.00    -0.048 Br
HETATM    7  C   UNL     1      44.321 -19.534   4.363  1.00  0.00     0.064 A 
HETATM    8  C   UNL     1      44.382 -19.893   3.024  1.00  0.00     0.117 A 
HETATM    9  F   UNL     1      45.339 -20.732   2.609  1.00  0.00    -0.206 F 
HETATM   10  C   UNL     1      43.467 -19.391   2.108  1.00  0.00     0.045 A 
HETATM   11  C   UNL     1      42.467 -18.512   2.531  1.00  0.00     0.041 A 
ENDBRANCH   3   4
ENDBRANCH   2   3
BRANCH   2  12
HETATM   12  C   UNL     1      41.031 -15.336   2.989  1.00  0.00     0.252 C 
HETATM   13  N   UNL     1      41.955 -15.172   1.975  1.00  0.00    -0.309 N 
HETATM   14  H   UNL     1      42.919 -15.362   2.224  1.00  0.00     0.170 HD
HETATM   15  O   UNL     1      39.821 -15.130   2.932  1.00  0.00    -0.270 OA
BRANCH  13  16
HETATM   16  C   UNL     1      41.687 -14.751   0.672  1.00  0.00     0.129 A 
HETATM   17  N   UNL     1      41.780 -13.453   0.333  1.00  0.00    -0.242 NA
HETATM   18  C   UNL     1      41.501 -13.110  -0.947  1.00  0.00     0.142 A 
HETATM   19  C   UNL     1      41.124 -14.016  -1.922  1.00  0.00     0.051 A 
HETATM   20 CL   UNL     1      40.784 -13.509  -3.524  1.00  0.00    -0.083 Cl
HETATM   21  C   UNL     1      41.029 -15.354  -1.566  1.00  0.00     0.029 A 
HETATM   22  C   UNL     1      41.313 -15.728  -0.250  1.00  0.00     0.052 A 
ENDBRANCH  13  16
ENDBRANCH   2  12
TORSDOF 4
ENDMDL
MODEL 7
REMARK VINA RESULT:      -6.6      5.430      7.886
REMARK  4 active torsions:
REMARK  status: ('A' for Active; 'I' for Inactive)
REMARK    1  A    between atoms: C_2  and  O_3 
REMARK    2  A    between atoms: C_2  and  C_12 
REMARK    3  A    between atoms: O_3  and  C_4 
REMARK       I    between atoms: C_12  and  N_13 
REMARK    4  A    between atoms: N_13  and  C_14 
ROOT
HETATM    1  C   UNL     1      44.149 -15.364   6.998  1.00  0.00     0.050 C 
HETATM    2  C   UNL     1      42.831 -15.466   6.238  1.00  0.00     0.217 C 
ENDROOT
BRANCH   2   3
HETATM    3  O   UNL     1      42.822 -14.507   5.174  1.00  0.00    -0.336 OA
BRANCH   3   4
HETATM    4  C   UNL     1      41.682 -13.801   4.903  1.00  0.00     0.087 A 
HETATM    5  C   UNL     1      41.290 -13.738   3.552  1.00  0.00     0.047 A 
HETATM    6 BR   UNL     1      42.285 -14.629   2.197  1.00  0.00    -0.048 Br
HETATM    7  C   UNL     1      40.154 -13.026   3.167  1.00  0.00     0.064 A 
HETATM    8  C   UNL     1      39.407 -12.371   4.135  1.00  0.00     0.117 A 
HETATM    9  F   UNL     1      38.316 -11.684   3.774  1.00  0.00    -0.206 F 
HETATM   10  C   UNL     1      39.777 -12.413   5.473  1.00  0.00     0.045 A 
HETATM   11  C   UNL     1      40.916 -13.125   5.859  1.00  0.00     0.041 A 
ENDBRANCH   3   4
ENDBRANCH   2   3
BRANCH   2  12
HETATM   12  C   UNL     1      42.719 -16.885   5.646  1.00  0.00     0.252 C 
HETATM   13  N   UNL     1      43.614 -17.102   4.615  1.00  0.00    -0.309 N 
HETATM   14  H   UNL     1      44.180 -16.304   4.349  1.00  0.00     0.170 HD
HETATM   15  O   UNL     1      41.911 -17.686   6.109  1.00  0.00    -0.270 OA
BRANCH  13  16
HETATM   16  C   UNL     1      43.783 -18.291   3.904  1.00  0.00     0.129 A 
HETATM   17  N   UNL     1      44.546 -19.284   4.393  1.00  0.00    -0.242 NA
HETATM   18  C   UNL     1      44.674 -20.410   3.650  1.00  0.00     0.142 A 
HETATM   19  C   UNL     1      44.067 -20.593   2.421  1.00  0.00     0.051 A 
HETATM   20 CL   UNL     1      44.276 -22.046   1.534  1.00  0.00    -0.083 Cl
HETATM   21  C   UNL     1      43.282 -19.564   1.922  1.00  0.00     0.029 A 
HETATM   22  C   UNL     1      43.138 -18.395   2.673  1.00  0.00     0.052 A 
ENDBRANCH  13  16
ENDBRANCH   2  12
TORSDOF 4
ENDMDL
MODEL 8
REMARK VINA RESULT:      -6.6      2.189      2.862
REMARK  4 active torsions:
REMARK  status: ('A' for Active; 'I' for Inactive)
REMARK    1  A    between atoms: C_2  and  O_3 
REMARK    2  A    between atoms: C_2  and  C_12 
REMARK    3  A    between atoms: O_3  and  C_4 
REMARK       I    between atoms: C_12  and  N_13 
REMARK    4  A    between atoms: N_13  and  C_14 
ROOT
HETATM    1  C   UNL     1      42.822 -15.095   5.342  1.00  0.00     0.050 C 
HETATM    2  C   UNL     1      43.095 -15.776   4.006  1.00  0.00     0.217 C 
ENDROOT
BRANCH   2   3
HETATM    3  O   UNL     1      42.489 -17.073   4.002  1.00  0.00    -0.336 OA
BRANCH   3   4
HETATM    4  C   UNL     1      43.235 -18.175   4.315  1.00  0.00     0.087 A 
HETATM    5  C   UNL     1      43.811 -18.871   3.235  1.00  0.00     0.047 A 
HETATM    6 BR   UNL     1      43.584 -18.268   1.444  1.00  0.00    -0.048 Br
HETATM    7  C   UNL     1      44.575 -20.019   3.445  1.00  0.00     0.064 A 
HETATM    8  C   UNL     1      44.761 -20.478   4.741  1.00  0.00     0.117 A 
HETATM    9  F   UNL     1      45.490 -21.580   4.952  1.00  0.00    -0.206 F 
HETATM   10  C   UNL     1      44.198 -19.813   5.823  1.00  0.00     0.045 A 
HETATM   11  C   UNL     1      43.432 -18.663   5.612  1.00  0.00     0.041 A 
ENDBRANCH   3   4
ENDBRANCH   2   3
BRANCH   2  12
HETATM   12  C   UNL     1      42.471 -14.918   2.886  1.00  0.00     0.252 C 
HETATM   13  N   UNL     1      41.316 -15.477   2.371  1.00  0.00    -0.309 N 
HETATM   14  H   UNL     1      41.061 -16.383   2.748  1.00  0.00     0.170 HD
HETATM   15  O   UNL     1      42.992 -13.856   2.558  1.00  0.00    -0.270 OA
BRANCH  13  16
HETATM   16  C   UNL     1      40.503 -14.927   1.379  1.00  0.00     0.129 A 
HETATM   17  N   UNL     1      40.951 -14.786   0.119  1.00  0.00    -0.242 NA
HETATM   18  C   UNL     1      40.113 -14.240  -0.794  1.00  0.00     0.142 A 
HETATM   19  C   UNL     1      38.828 -13.819  -0.504  1.00  0.00     0.051 A 
HETATM   20 CL   UNL     1      37.822 -13.134  -1.713  1.00  0.00    -0.083 Cl
HETATM   21  C   UNL     1      38.372 -13.967   0.798  1.00  0.00     0.029 A 
HETATM   22  C   UNL     1      39.221 -14.528   1.754  1.00  0.00     0.052 A 
ENDBRANCH  13  16
ENDBRANCH   2  12
TORSDOF 4
ENDMDL
MODEL 9
REMARK VINA RESULT:      -6.6      4.855      7.724
REMARK  4 active torsions:
REMARK  status: ('A' for Active; 'I' for Inactive)
REMARK    1  A    between atoms: C_2  and  O_3 
REMARK    2  A    between atoms: C_2  and  C_12 
REMARK    3  A    between atoms: O_3  and  C_4 
REMARK       I    between atoms: C_12  and  N_13 
REMARK    4  A    between atoms: N_13  and  C_14 
ROOT
HETATM    1  C   UNL     1      39.444 -13.432   2.255  1.00  0.00     0.050 C 
HETATM    2  C   UNL     1      39.956 -14.466   1.259  1.00  0.00     0.217 C 
ENDROOT
BRANCH   2   3
HETATM    3  O   UNL     1      40.353 -13.806   0.052  1.00  0.00    -0.336 OA
BRANCH   3   4
HETATM    4  C   UNL     1      40.128 -14.404  -1.158  1.00  0.00     0.087 A 
HETATM    5  C   UNL     1      38.973 -14.000  -1.853  1.00  0.00     0.047 A 
HETATM    6 BR   UNL     1      37.821 -12.659  -1.148  1.00  0.00    -0.048 Br
HETATM    7  C   UNL     1      38.642 -14.562  -3.086  1.00  0.00     0.064 A 
HETATM    8  C   UNL     1      39.467 -15.538  -3.625  1.00  0.00     0.117 A 
HETATM    9  F   UNL     1      39.156 -16.085  -4.807  1.00  0.00    -0.206 F 
HETATM   10  C   UNL     1      40.609 -15.959  -2.956  1.00  0.00     0.045 A 
HETATM   11  C   UNL     1      40.940 -15.396  -1.720  1.00  0.00     0.041 A 
ENDBRANCH   3   4
ENDBRANCH   2   3
BRANCH   2  12
HETATM   12  C   UNL     1      41.178 -15.175   1.877  1.00  0.00     0.252 C 
HETATM   13  N   UNL     1      40.981 -16.534   2.031  1.00  0.00    -0.309 N 
HETATM   14  H   UNL     1      40.063 -16.877   1.773  1.00  0.00     0.170 HD
HETATM   15  O   UNL     1      42.187 -14.534   2.158  1.00  0.00    -0.270 OA
BRANCH  13  16
HETATM   16  C   UNL     1      41.909 -17.453   2.525  1.00  0.00     0.129 A 
HETATM   17  N   UNL     1      42.097 -17.600   3.848  1.00  0.00    -0.242 NA
HETATM   18  C   UNL     1      43.016 -18.505   4.262  1.00  0.00     0.142 A 
HETATM   19  C   UNL     1      43.770 -19.283   3.401  1.00  0.00     0.051 A 
HETATM   20 CL   UNL     1      44.919 -20.409   3.997  1.00  0.00    -0.083 Cl
HETATM   21  C   UNL     1      43.571 -19.126   2.037  1.00  0.00     0.029 A 
HETATM   22  C   UNL     1      42.628 -18.197   1.591  1.00  0.00     0.052 A 
ENDBRANCH  13  16
ENDBRANCH   2  12
TORSDOF 4
ENDMDL
MODEL 10
REMARK VINA RESULT:      -6.6      4.728      7.678
REMARK  4 active torsions:
REMARK  status: ('A' for Active; 'I' for Inactive)
REMARK    1  A    between atoms: C_2  and  O_3 
REMARK    2  A    between atoms: C_2  and  C_12 
REMARK    3  A    between atoms: O_3  and  C_4 
REMARK       I    between atoms: C_12  and  N_13 
REMARK    4  A    between atoms: N_13  and  C_14 
ROOT
HETATM    1  C   UNL     1      37.753 -12.471   1.157  1.00  0.00     0.050 C 
HETATM    2  C   UNL     1      38.354 -13.658   0.413  1.00  0.00     0.217 C 
ENDROOT
BRANCH   2   3
HETATM    3  O   UNL     1      38.844 -13.221  -0.860  1.00  0.00    -0.336 OA
BRANCH   3   4
HETATM    4  C   UNL     1      38.799 -14.066  -1.934  1.00  0.00     0.087 A 
HETATM    5  C   UNL     1      40.037 -14.518  -2.429  1.00  0.00     0.047 A 
HETATM    6 BR   UNL     1      41.673 -14.000  -1.606  1.00  0.00    -0.048 Br
HETATM    7  C   UNL     1      40.102 -15.367  -3.534  1.00  0.00     0.064 A 
HETATM    8  C   UNL     1      38.925 -15.765  -4.150  1.00  0.00     0.117 A 
HETATM    9  F   UNL     1      38.978 -16.578  -5.211  1.00  0.00    -0.206 F 
HETATM   10  C   UNL     1      37.692 -15.328  -3.684  1.00  0.00     0.045 A 
HETATM   11  C   UNL     1      37.626 -14.475  -2.579  1.00  0.00     0.041 A 
ENDBRANCH   3   4
ENDBRANCH   2   3
BRANCH   2  12
HETATM   12  C   UNL     1      39.527 -14.212   1.247  1.00  0.00     0.252 C 
HETATM   13  N   UNL     1      39.578 -15.593   1.237  1.00  0.00    -0.309 N 
HETATM   14  H   UNL     1      38.827 -16.057   0.740  1.00  0.00     0.170 HD
HETATM   15  O   UNL     1      40.300 -13.444   1.813  1.00  0.00    -0.270 OA
BRANCH  13  16
HETATM   16  C   UNL     1      40.539 -16.389   1.863  1.00  0.00     0.129 A 
HETATM   17  N   UNL     1      40.648 -16.415   3.202  1.00  0.00    -0.242 NA
HETATM   18  C   UNL     1      41.605 -17.204   3.746  1.00  0.00     0.142 A 
HETATM   19  C   UNL     1      42.474 -17.981   3.003  1.00  0.00     0.051 A 
HETATM   20 CL   UNL     1      43.665 -18.957   3.760  1.00  0.00    -0.083 Cl
HETATM   21  C   UNL     1      42.356 -17.951   1.621  1.00  0.00     0.029 A 
HETATM   22  C   UNL     1      41.376 -17.143   1.041  1.00  0.00     0.052 A 
ENDBRANCH  13  16
ENDBRANCH   2  12
TORSDOF 4
ENDMDL
