MODEL 1
REMARK VINA RESULT:      -8.9      0.000      0.000
REMARK  5 active torsions:
REMARK  status: ('A' for Active; 'I' for Inactive)
REMARK    1  A    between atoms: C_2  and  O_3 
REMARK    2  A    between atoms: O_3  and  C_4 
REMARK    3  A    between atoms: C_7  and  C_8 
REMARK    4  A    between atoms: C_12  and  C_13 
REMARK       I    between atoms: C_13  and  N_14 
REMARK    5  A    between atoms: N_14  and  C_15 
ROOT
HETATM    1  C   UNL     1      42.878 -17.304   2.324  1.00  0.00     0.068 A 
HETATM    2  N   UNL     1      43.021 -18.544   1.790  1.00  0.00    -0.248 NA
HETATM    3  C   UNL     1      43.552 -19.538   2.523  1.00  0.00     0.068 A 
HETATM    4  C   UNL     1      43.974 -19.370   3.852  1.00  0.00     0.008 A 
HETATM    5  C   UNL     1      43.762 -18.089   4.404  1.00  0.00     0.047 A 
HETATM    6  C   UNL     1      43.230 -17.050   3.638  1.00  0.00     0.050 A 
HETATM    7  C   UNL     1      43.705 -20.783   1.926  1.00  0.00     0.032 A 
HETATM    8  C   UNL     1      44.276 -21.864   2.602  1.00  0.00     0.002 A 
HETATM    9  C   UNL     1      44.717 -21.703   3.906  1.00  0.00     0.001 A 
HETATM   10  C   UNL     1      44.573 -20.464   4.528  1.00  0.00     0.015 A 
ENDROOT
BRANCH   5  11
HETATM   11  C   UNL     1      44.185 -17.738   5.773  1.00  0.00     0.271 C 
HETATM   12  N   UNL     1      43.352 -17.095   6.645  1.00  0.00    -0.150 N 
HETATM   13  H   UNL     1      43.704 -16.958   7.580  1.00  0.00     0.188 HD
HETATM   14  O   UNL     1      45.328 -18.045   6.115  1.00  0.00    -0.267 OA
BRANCH  12  15
HETATM   15  C   UNL     1      42.129 -16.540   6.422  1.00  0.00     0.747 A 
HETATM   16  N   UNL     1      41.012 -17.264   6.536  1.00  0.00     0.020 NA
HETATM   17  N   UNL     1      40.068 -16.363   6.225  1.00  0.00    -0.255 N 
HETATM   18  H   UNL     1      39.092 -16.641   6.217  1.00  0.00     0.190 HD
HETATM   19  C   UNL     1      40.620 -15.153   5.957  1.00  0.00     0.246 A 
HETATM   20  N   UNL     1      41.922 -15.236   6.084  1.00  0.00    -0.055 NA
ENDBRANCH  12  15
ENDBRANCH   5  11
BRANCH   1  21
HETATM   21  C   UNL     1      42.338 -16.272   1.405  1.00  0.00    -0.007 A 
HETATM   22  C   UNL     1      41.791 -16.631   0.160  1.00  0.00     0.016 A 
HETATM   23  C   UNL     1      41.280 -15.673  -0.723  1.00  0.00     0.037 A 
HETATM   24  C   UNL     1      41.294 -14.321  -0.389  1.00  0.00     0.068 A 
HETATM   25  C   UNL     1      41.848 -13.934   0.828  1.00  0.00     0.037 A 
HETATM   26  C   UNL     1      42.364 -14.898   1.709  1.00  0.00     0.016 A 
BRANCH  24  27
HETATM   27  O   UNL     1      40.759 -13.488  -1.330  1.00  0.00    -0.352 OA
BRANCH  27  28
HETATM   28  C   UNL     1      41.280 -13.592  -2.654  1.00  0.00     0.171 C 
HETATM   29  C   UNL     1      42.614 -12.868  -2.690  1.00  0.00     0.034 C 
ENDBRANCH  27  28
ENDBRANCH  24  27
ENDBRANCH   1  21
TORSDOF 5
ENDMDL
MODEL 2
REMARK VINA RESULT:      -8.8      3.562      8.386
REMARK  5 active torsions:
REMARK  status: ('A' for Active; 'I' for Inactive)
REMARK    1  A    between atoms: C_2  and  O_3 
REMARK    2  A    between atoms: O_3  and  C_4 
REMARK    3  A    between atoms: C_7  and  C_8 
REMARK    4  A    between atoms: C_12  and  C_13 
REMARK       I    between atoms: C_13  and  N_14 
REMARK    5  A    between atoms: N_14  and  C_15 
ROOT
HETATM    1  C   UNL     1      41.430 -15.668   0.953  1.00  0.00     0.068 A 
HETATM    2  N   UNL     1      40.384 -15.102   1.607  1.00  0.00    -0.248 NA
HETATM    3  C   UNL     1      39.716 -14.075   1.053  1.00  0.00     0.068 A 
HETATM    4  C   UNL     1      40.041 -13.538  -0.205  1.00  0.00     0.008 A 
HETATM    5  C   UNL     1      41.094 -14.180  -0.890  1.00  0.00     0.047 A 
HETATM    6  C   UNL     1      41.801 -15.234  -0.308  1.00  0.00     0.050 A 
HETATM    7  C   UNL     1      38.670 -13.509   1.770  1.00  0.00     0.032 A 
HETATM    8  C   UNL     1      37.943 -12.419   1.285  1.00  0.00     0.002 A 
HETATM    9  C   UNL     1      38.270 -11.868   0.056  1.00  0.00     0.001 A 
HETATM   10  C   UNL     1      39.315 -12.419  -0.684  1.00  0.00     0.015 A 
ENDROOT
BRANCH   5  11
HETATM   11  C   UNL     1      41.583 -13.715  -2.202  1.00  0.00     0.271 C 
HETATM   12  N   UNL     1      40.932 -14.018  -3.365  1.00  0.00    -0.150 N 
HETATM   13  H   UNL     1      41.302 -13.600  -4.205  1.00  0.00     0.188 HD
HETATM   14  O   UNL     1      42.610 -13.035  -2.221  1.00  0.00    -0.267 OA
BRANCH  12  15
HETATM   15  C   UNL     1      39.890 -14.868  -3.576  1.00  0.00     0.747 A 
HETATM   16  N   UNL     1      40.092 -16.178  -3.741  1.00  0.00     0.020 NA
HETATM   17  N   UNL     1      38.841 -16.627  -3.931  1.00  0.00    -0.255 N 
HETATM   18  H   UNL     1      38.683 -17.615  -4.098  1.00  0.00     0.190 HD
HETATM   19  C   UNL     1      37.945 -15.611  -3.861  1.00  0.00     0.246 A 
HETATM   20  N   UNL     1      38.582 -14.489  -3.628  1.00  0.00    -0.055 NA
ENDBRANCH  12  15
ENDBRANCH   5  11
BRANCH   1  21
HETATM   21  C   UNL     1      42.129 -16.752   1.686  1.00  0.00    -0.007 A 
HETATM   22  C   UNL     1      43.293 -17.342   1.160  1.00  0.00     0.016 A 
HETATM   23  C   UNL     1      43.966 -18.369   1.832  1.00  0.00     0.037 A 
HETATM   24  C   UNL     1      43.501 -18.838   3.059  1.00  0.00     0.068 A 
HETATM   25  C   UNL     1      42.340 -18.288   3.594  1.00  0.00     0.037 A 
HETATM   26  C   UNL     1      41.664 -17.261   2.913  1.00  0.00     0.016 A 
BRANCH  24  27
HETATM   27  O   UNL     1      44.250 -19.835   3.617  1.00  0.00    -0.352 OA
BRANCH  27  28
HETATM   28  C   UNL     1      44.967 -20.682   2.721  1.00  0.00     0.171 C 
HETATM   29  C   UNL     1      44.040 -21.805   2.295  1.00  0.00     0.034 C 
ENDBRANCH  27  28
ENDBRANCH  24  27
ENDBRANCH   1  21
TORSDOF 5
ENDMDL
MODEL 3
REMARK VINA RESULT:      -8.8      2.021      2.731
REMARK  5 active torsions:
REMARK  status: ('A' for Active; 'I' for Inactive)
REMARK    1  A    between atoms: C_2  and  O_3 
REMARK    2  A    between atoms: O_3  and  C_4 
REMARK    3  A    between atoms: C_7  and  C_8 
REMARK    4  A    between atoms: C_12  and  C_13 
REMARK       I    between atoms: C_13  and  N_14 
REMARK    5  A    between atoms: N_14  and  C_15 
ROOT
HETATM    1  C   UNL     1      41.457 -16.628   2.267  1.00  0.00     0.068 A 
HETATM    2  N   UNL     1      42.386 -17.587   2.025  1.00  0.00    -0.248 NA
HETATM    3  C   UNL     1      42.928 -18.276   3.045  1.00  0.00     0.068 A 
HETATM    4  C   UNL     1      42.574 -18.063   4.388  1.00  0.00     0.008 A 
HETATM    5  C   UNL     1      41.565 -17.102   4.609  1.00  0.00     0.047 A 
HETATM    6  C   UNL     1      41.016 -16.372   3.554  1.00  0.00     0.050 A 
HETATM    7  C   UNL     1      43.895 -19.229   2.753  1.00  0.00     0.032 A 
HETATM    8  C   UNL     1      44.533 -19.969   3.751  1.00  0.00     0.002 A 
HETATM    9  C   UNL     1      44.208 -19.750   5.080  1.00  0.00     0.001 A 
HETATM   10  C   UNL     1      43.239 -18.800   5.401  1.00  0.00     0.015 A 
ENDROOT
BRANCH   5  11
HETATM   11  C   UNL     1      41.109 -16.733   5.963  1.00  0.00     0.271 C 
HETATM   12  N   UNL     1      41.746 -15.777   6.705  1.00  0.00    -0.150 N 
HETATM   13  H   UNL     1      41.322 -15.544   7.591  1.00  0.00     0.188 HD
HETATM   14  O   UNL     1      40.124 -17.318   6.415  1.00  0.00    -0.267 OA
BRANCH  12  15
HETATM   15  C   UNL     1      42.920 -15.134   6.461  1.00  0.00     0.747 A 
HETATM   16  N   UNL     1      42.991 -14.142   5.571  1.00  0.00     0.020 NA
HETATM   17  N   UNL     1      44.290 -13.811   5.629  1.00  0.00    -0.255 N 
HETATM   18  H   UNL     1      44.647 -13.072   5.033  1.00  0.00     0.190 HD
HETATM   19  C   UNL     1      44.945 -14.577   6.537  1.00  0.00     0.246 A 
HETATM   20  N   UNL     1      44.099 -15.415   7.085  1.00  0.00    -0.055 NA
ENDBRANCH  12  15
ENDBRANCH   5  11
BRANCH   1  21
HETATM   21  C   UNL     1      40.974 -15.891   1.074  1.00  0.00    -0.007 A 
HETATM   22  C   UNL     1      41.486 -16.178  -0.205  1.00  0.00     0.016 A 
HETATM   23  C   UNL     1      41.048 -15.492  -1.344  1.00  0.00     0.037 A 
HETATM   24  C   UNL     1      40.077 -14.498  -1.244  1.00  0.00     0.068 A 
HETATM   25  C   UNL     1      39.568 -14.178   0.011  1.00  0.00     0.037 A 
HETATM   26  C   UNL     1      40.014 -14.865   1.152  1.00  0.00     0.016 A 
BRANCH  24  27
HETATM   27  O   UNL     1      39.728 -13.911  -2.427  1.00  0.00    -0.352 OA
BRANCH  27  28
HETATM   28  C   UNL     1      39.510 -14.779  -3.538  1.00  0.00     0.171 C 
HETATM   29  C   UNL     1      38.035 -15.133  -3.573  1.00  0.00     0.034 C 
ENDBRANCH  27  28
ENDBRANCH  24  27
ENDBRANCH   1  21
TORSDOF 5
ENDMDL
MODEL 4
REMARK VINA RESULT:      -8.5      3.677      8.502
REMARK  5 active torsions:
REMARK  status: ('A' for Active; 'I' for Inactive)
REMARK    1  A    between atoms: C_2  and  O_3 
REMARK    2  A    between atoms: O_3  and  C_4 
REMARK    3  A    between atoms: C_7  and  C_8 
REMARK    4  A    between atoms: C_12  and  C_13 
REMARK       I    between atoms: C_13  and  N_14 
REMARK    5  A    between atoms: N_14  and  C_15 
ROOT
HETATM    1  C   UNL     1      41.127 -15.878   0.442  1.00  0.00     0.068 A 
HETATM    2  N   UNL     1      40.117 -15.216   1.063  1.00  0.00    -0.248 NA
HETATM    3  C   UNL     1      39.322 -14.387   0.365  1.00  0.00     0.068 A 
HETATM    4  C   UNL     1      39.471 -14.161  -1.014  1.00  0.00     0.008 A 
HETATM    5  C   UNL     1      40.490 -14.903  -1.648  1.00  0.00     0.047 A 
HETATM    6  C   UNL     1      41.329 -15.749  -0.921  1.00  0.00     0.050 A 
HETATM    7  C   UNL     1      38.319 -13.711   1.047  1.00  0.00     0.032 A 
HETATM    8  C   UNL     1      37.467 -12.806   0.409  1.00  0.00     0.002 A 
HETATM    9  C   UNL     1      37.621 -12.558  -0.946  1.00  0.00     0.001 A 
HETATM   10  C   UNL     1      38.619 -13.226  -1.655  1.00  0.00     0.015 A 
ENDROOT
BRANCH   5  11
HETATM   11  C   UNL     1      40.801 -14.751  -3.082  1.00  0.00     0.271 C 
HETATM   12  N   UNL     1      41.563 -13.717  -3.551  1.00  0.00    -0.150 N 
HETATM   13  H   UNL     1      41.780 -13.734  -4.536  1.00  0.00     0.188 HD
HETATM   14  O   UNL     1      40.350 -15.595  -3.858  1.00  0.00    -0.267 OA
BRANCH  12  15
HETATM   15  C   UNL     1      42.020 -12.614  -2.897  1.00  0.00     0.747 A 
HETATM   16  N   UNL     1      43.096 -12.677  -2.108  1.00  0.00     0.020 NA
HETATM   17  N   UNL     1      43.185 -11.414  -1.664  1.00  0.00    -0.255 N 
HETATM   18  H   UNL     1      43.925 -11.161  -1.018  1.00  0.00     0.190 HD
HETATM   19  C   UNL     1      42.203 -10.643  -2.193  1.00  0.00     0.246 A 
HETATM   20  N   UNL     1      41.457 -11.376  -2.985  1.00  0.00    -0.055 NA
ENDBRANCH  12  15
ENDBRANCH   5  11
BRANCH   1  21
HETATM   21  C   UNL     1      41.977 -16.717   1.322  1.00  0.00    -0.007 A 
HETATM   22  C   UNL     1      41.584 -17.004   2.641  1.00  0.00     0.016 A 
HETATM   23  C   UNL     1      42.373 -17.790   3.490  1.00  0.00     0.037 A 
HETATM   24  C   UNL     1      43.581 -18.322   3.045  1.00  0.00     0.068 A 
HETATM   25  C   UNL     1      44.005 -18.038   1.750  1.00  0.00     0.037 A 
HETATM   26  C   UNL     1      43.213 -17.244   0.904  1.00  0.00     0.016 A 
BRANCH  24  27
HETATM   27  O   UNL     1      44.252 -19.079   3.963  1.00  0.00    -0.352 OA
BRANCH  27  28
HETATM   28  C   UNL     1      44.775 -20.326   3.511  1.00  0.00     0.171 C 
HETATM   29  C   UNL     1      44.873 -21.254   4.708  1.00  0.00     0.034 C 
ENDBRANCH  27  28
ENDBRANCH  24  27
ENDBRANCH   1  21
TORSDOF 5
ENDMDL
MODEL 5
REMARK VINA RESULT:      -8.3      3.072      7.387
REMARK  5 active torsions:
REMARK  status: ('A' for Active; 'I' for Inactive)
REMARK    1  A    between atoms: C_2  and  O_3 
REMARK    2  A    between atoms: O_3  and  C_4 
REMARK    3  A    between atoms: C_7  and  C_8 
REMARK    4  A    between atoms: C_12  and  C_13 
REMARK       I    between atoms: C_13  and  N_14 
REMARK    5  A    between atoms: N_14  and  C_15 
ROOT
HETATM    1  C   UNL     1      41.104 -15.954   0.821  1.00  0.00     0.068 A 
HETATM    2  N   UNL     1      41.495 -15.790  -0.469  1.00  0.00    -0.248 NA
HETATM    3  C   UNL     1      40.820 -14.954  -1.278  1.00  0.00     0.068 A 
HETATM    4  C   UNL     1      39.706 -14.210  -0.856  1.00  0.00     0.008 A 
HETATM    5  C   UNL     1      39.355 -14.353   0.503  1.00  0.00     0.047 A 
HETATM    6  C   UNL     1      40.041 -15.235   1.340  1.00  0.00     0.050 A 
HETATM    7  C   UNL     1      41.239 -14.839  -2.597  1.00  0.00     0.032 A 
HETATM    8  C   UNL     1      40.578 -14.019  -3.516  1.00  0.00     0.002 A 
HETATM    9  C   UNL     1      39.464 -13.299  -3.115  1.00  0.00     0.001 A 
HETATM   10  C   UNL     1      39.025 -13.395  -1.796  1.00  0.00     0.015 A 
ENDROOT
BRANCH   5  11
HETATM   11  C   UNL     1      38.186 -13.672   1.093  1.00  0.00     0.271 C 
HETATM   12  N   UNL     1      38.314 -12.536   1.843  1.00  0.00    -0.150 N 
HETATM   13  H   UNL     1      37.454 -12.104   2.148  1.00  0.00     0.188 HD
HETATM   14  O   UNL     1      37.075 -14.163   0.890  1.00  0.00    -0.267 OA
BRANCH  12  15
HETATM   15  C   UNL     1      39.440 -11.930   2.309  1.00  0.00     0.747 A 
HETATM   16  N   UNL     1      40.078 -11.009   1.582  1.00  0.00     0.020 NA
HETATM   17  N   UNL     1      41.109 -10.693   2.381  1.00  0.00    -0.255 N 
HETATM   18  H   UNL     1      41.789 -10.007   2.074  1.00  0.00     0.190 HD
HETATM   19  C   UNL     1      41.058 -11.396   3.540  1.00  0.00     0.246 A 
HETATM   20  N   UNL     1      40.006 -12.179   3.524  1.00  0.00    -0.055 NA
ENDBRANCH  12  15
ENDBRANCH   5  11
BRANCH   1  21
HETATM   21  C   UNL     1      41.883 -16.945   1.602  1.00  0.00    -0.007 A 
HETATM   22  C   UNL     1      42.993 -17.597   1.035  1.00  0.00     0.016 A 
HETATM   23  C   UNL     1      43.739 -18.539   1.754  1.00  0.00     0.037 A 
HETATM   24  C   UNL     1      43.404 -18.858   3.068  1.00  0.00     0.068 A 
HETATM   25  C   UNL     1      42.298 -18.243   3.648  1.00  0.00     0.037 A 
HETATM   26  C   UNL     1      41.549 -17.303   2.922  1.00  0.00     0.016 A 
BRANCH  24  27
HETATM   27  O   UNL     1      44.214 -19.783   3.662  1.00  0.00    -0.352 OA
BRANCH  27  28
HETATM   28  C   UNL     1      44.995 -20.606   2.798  1.00  0.00     0.171 C 
HETATM   29  C   UNL     1      44.296 -21.948   2.671  1.00  0.00     0.034 C 
ENDBRANCH  27  28
ENDBRANCH  24  27
ENDBRANCH   1  21
TORSDOF 5
ENDMDL
MODEL 6
REMARK VINA RESULT:      -8.2      3.431      7.584
REMARK  5 active torsions:
REMARK  status: ('A' for Active; 'I' for Inactive)
REMARK    1  A    between atoms: C_2  and  O_3 
REMARK    2  A    between atoms: O_3  and  C_4 
REMARK    3  A    between atoms: C_7  and  C_8 
REMARK    4  A    between atoms: C_12  and  C_13 
REMARK       I    between atoms: C_13  and  N_14 
REMARK    5  A    between atoms: N_14  and  C_15 
ROOT
HETATM    1  C   UNL     1      42.090 -15.358   2.655  1.00  0.00     0.068 A 
HETATM    2  N   UNL     1      41.294 -15.064   3.715  1.00  0.00    -0.248 NA
HETATM    3  C   UNL     1      40.637 -13.892   3.761  1.00  0.00     0.068 A 
HETATM    4  C   UNL     1      40.720 -12.925   2.746  1.00  0.00     0.008 A 
HETATM    5  C   UNL     1      41.506 -13.277   1.629  1.00  0.00     0.047 A 
HETATM    6  C   UNL     1      42.205 -14.485   1.587  1.00  0.00     0.050 A 
HETATM    7  C   UNL     1      39.856 -13.622   4.878  1.00  0.00     0.032 A 
HETATM    8  C   UNL     1      39.165 -12.417   5.026  1.00  0.00     0.002 A 
HETATM    9  C   UNL     1      39.258 -11.448   4.040  1.00  0.00     0.001 A 
HETATM   10  C   UNL     1      40.033 -11.695   2.908  1.00  0.00     0.015 A 
ENDROOT
BRANCH   5  11
HETATM   11  C   UNL     1      41.727 -12.358   0.496  1.00  0.00     0.271 C 
HETATM   12  N   UNL     1      40.844 -12.266  -0.544  1.00  0.00    -0.150 N 
HETATM   13  H   UNL     1      41.044 -11.562  -1.238  1.00  0.00     0.188 HD
HETATM   14  O   UNL     1      42.744 -11.664   0.512  1.00  0.00    -0.267 OA
BRANCH  12  15
HETATM   15  C   UNL     1      39.760 -13.039  -0.828  1.00  0.00     0.747 A 
HETATM   16  N   UNL     1      39.865 -14.111  -1.617  1.00  0.00     0.020 NA
HETATM   17  N   UNL     1      38.600 -14.558  -1.644  1.00  0.00    -0.255 N 
HETATM   18  H   UNL     1      38.369 -15.379  -2.193  1.00  0.00     0.190 HD
HETATM   19  C   UNL     1      37.793 -13.779  -0.881  1.00  0.00     0.246 A 
HETATM   20  N   UNL     1      38.504 -12.816  -0.345  1.00  0.00    -0.055 NA
ENDBRANCH  12  15
ENDBRANCH   5  11
BRANCH   1  21
HETATM   21  C   UNL     1      42.813 -16.651   2.739  1.00  0.00    -0.007 A 
HETATM   22  C   UNL     1      43.631 -17.088   1.681  1.00  0.00     0.016 A 
HETATM   23  C   UNL     1      44.319 -18.306   1.738  1.00  0.00     0.037 A 
HETATM   24  C   UNL     1      44.216 -19.127   2.858  1.00  0.00     0.068 A 
HETATM   25  C   UNL     1      43.397 -18.730   3.911  1.00  0.00     0.037 A 
HETATM   26  C   UNL     1      42.705 -17.510   3.848  1.00  0.00     0.016 A 
BRANCH  24  27
HETATM   27  O   UNL     1      44.942 -20.283   2.795  1.00  0.00    -0.352 OA
BRANCH  27  28
HETATM   28  C   UNL     1      44.211 -21.507   2.851  1.00  0.00     0.171 C 
HETATM   29  C   UNL     1      43.885 -21.923   1.428  1.00  0.00     0.034 C 
ENDBRANCH  27  28
ENDBRANCH  24  27
ENDBRANCH   1  21
TORSDOF 5
ENDMDL
MODEL 7
REMARK VINA RESULT:      -8.1      3.406      7.878
REMARK  5 active torsions:
REMARK  status: ('A' for Active; 'I' for Inactive)
REMARK    1  A    between atoms: C_2  and  O_3 
REMARK    2  A    between atoms: O_3  and  C_4 
REMARK    3  A    between atoms: C_7  and  C_8 
REMARK    4  A    between atoms: C_12  and  C_13 
REMARK       I    between atoms: C_13  and  N_14 
REMARK    5  A    between atoms: N_14  and  C_15 
ROOT
HETATM    1  C   UNL     1      41.584 -16.015   2.823  1.00  0.00     0.068 A 
HETATM    2  N   UNL     1      41.977 -15.005   3.641  1.00  0.00    -0.248 NA
HETATM    3  C   UNL     1      41.348 -13.818   3.600  1.00  0.00     0.068 A 
HETATM    4  C   UNL     1      40.269 -13.551   2.741  1.00  0.00     0.008 A 
HETATM    5  C   UNL     1      39.841 -14.632   1.942  1.00  0.00     0.047 A 
HETATM    6  C   UNL     1      40.506 -15.860   1.968  1.00  0.00     0.050 A 
HETATM    7  C   UNL     1      41.802 -12.806   4.435  1.00  0.00     0.032 A 
HETATM    8  C   UNL     1      41.228 -11.532   4.437  1.00  0.00     0.002 A 
HETATM    9  C   UNL     1      40.179 -11.251   3.576  1.00  0.00     0.001 A 
HETATM   10  C   UNL     1      39.703 -12.251   2.729  1.00  0.00     0.015 A 
ENDROOT
BRANCH   5  11
HETATM   11  C   UNL     1      38.748 -14.505   0.959  1.00  0.00     0.271 C 
HETATM   12  N   UNL     1      38.976 -14.103  -0.327  1.00  0.00    -0.150 N 
HETATM   13  H   UNL     1      38.178 -14.111  -0.945  1.00  0.00     0.188 HD
HETATM   14  O   UNL     1      37.607 -14.775   1.335  1.00  0.00    -0.267 OA
BRANCH  12  15
HETATM   15  C   UNL     1      40.115 -13.617  -0.892  1.00  0.00     0.747 A 
HETATM   16  N   UNL     1      40.421 -12.319  -0.821  1.00  0.00     0.020 NA
HETATM   17  N   UNL     1      41.578 -12.272  -1.499  1.00  0.00    -0.255 N 
HETATM   18  H   UNL     1      42.052 -11.383  -1.621  1.00  0.00     0.190 HD
HETATM   19  C   UNL     1      41.938 -13.506  -1.932  1.00  0.00     0.246 A 
HETATM   20  N   UNL     1      41.034 -14.377  -1.553  1.00  0.00    -0.055 NA
ENDBRANCH  12  15
ENDBRANCH   5  11
BRANCH   1  21
HETATM   21  C   UNL     1      42.389 -17.258   2.911  1.00  0.00    -0.007 A 
HETATM   22  C   UNL     1      42.919 -17.687   4.141  1.00  0.00     0.016 A 
HETATM   23  C   UNL     1      43.684 -18.854   4.245  1.00  0.00     0.037 A 
HETATM   24  C   UNL     1      43.941 -19.637   3.122  1.00  0.00     0.068 A 
HETATM   25  C   UNL     1      43.447 -19.226   1.888  1.00  0.00     0.037 A 
HETATM   26  C   UNL     1      42.684 -18.051   1.786  1.00  0.00     0.016 A 
BRANCH  24  27
HETATM   27  O   UNL     1      44.691 -20.755   3.357  1.00  0.00    -0.352 OA
BRANCH  27  28
HETATM   28  C   UNL     1      45.052 -21.016   4.712  1.00  0.00     0.171 C 
HETATM   29  C   UNL     1      44.832 -22.494   4.978  1.00  0.00     0.034 C 
ENDBRANCH  27  28
ENDBRANCH  24  27
ENDBRANCH   1  21
TORSDOF 5
ENDMDL
MODEL 8
REMARK VINA RESULT:      -7.7      3.615      8.037
REMARK  5 active torsions:
REMARK  status: ('A' for Active; 'I' for Inactive)
REMARK    1  A    between atoms: C_2  and  O_3 
REMARK    2  A    between atoms: O_3  and  C_4 
REMARK    3  A    between atoms: C_7  and  C_8 
REMARK    4  A    between atoms: C_12  and  C_13 
REMARK       I    between atoms: C_13  and  N_14 
REMARK    5  A    between atoms: N_14  and  C_15 
ROOT
HETATM    1  C   UNL     1      41.651 -15.659   0.608  1.00  0.00     0.068 A 
HETATM    2  N   UNL     1      41.440 -16.103  -0.657  1.00  0.00    -0.248 NA
HETATM    3  C   UNL     1      40.755 -15.347  -1.533  1.00  0.00     0.068 A 
HETATM    4  C   UNL     1      40.233 -14.083  -1.212  1.00  0.00     0.008 A 
HETATM    5  C   UNL     1      40.515 -13.618   0.090  1.00  0.00     0.047 A 
HETATM    6  C   UNL     1      41.209 -14.409   1.007  1.00  0.00     0.050 A 
HETATM    7  C   UNL     1      40.539 -15.853  -2.808  1.00  0.00     0.032 A 
HETATM    8  C   UNL     1      39.811 -15.151  -3.772  1.00  0.00     0.002 A 
HETATM    9  C   UNL     1      39.273 -13.914  -3.458  1.00  0.00     0.001 A 
HETATM   10  C   UNL     1      39.477 -13.382  -2.185  1.00  0.00     0.015 A 
ENDROOT
BRANCH   5  11
HETATM   11  C   UNL     1      40.006 -12.329   0.597  1.00  0.00     0.271 C 
HETATM   12  N   UNL     1      40.529 -11.134   0.188  1.00  0.00    -0.150 N 
HETATM   13  H   UNL     1      40.072 -10.305   0.536  1.00  0.00     0.188 HD
HETATM   14  O   UNL     1      39.083 -12.359   1.412  1.00  0.00    -0.267 OA
BRANCH  12  15
HETATM   15  C   UNL     1      41.632 -10.888  -0.571  1.00  0.00     0.747 A 
HETATM   16  N   UNL     1      42.860 -10.999  -0.059  1.00  0.00     0.020 NA
HETATM   17  N   UNL     1      43.627 -10.663  -1.108  1.00  0.00    -0.255 N 
HETATM   18  H   UNL     1      44.636 -10.647  -1.007  1.00  0.00     0.190 HD
HETATM   19  C   UNL     1      42.866 -10.384  -2.196  1.00  0.00     0.246 A 
HETATM   20  N   UNL     1      41.600 -10.528  -1.886  1.00  0.00    -0.055 NA
ENDBRANCH  12  15
ENDBRANCH   5  11
BRANCH   1  21
HETATM   21  C   UNL     1      42.365 -16.601   1.504  1.00  0.00    -0.007 A 
HETATM   22  C   UNL     1      41.998 -16.727   2.856  1.00  0.00     0.016 A 
HETATM   23  C   UNL     1      42.661 -17.607   3.720  1.00  0.00     0.037 A 
HETATM   24  C   UNL     1      43.712 -18.396   3.260  1.00  0.00     0.068 A 
HETATM   25  C   UNL     1      44.112 -18.277   1.932  1.00  0.00     0.037 A 
HETATM   26  C   UNL     1      43.448 -17.389   1.069  1.00  0.00     0.016 A 
BRANCH  24  27
HETATM   27  O   UNL     1      44.270 -19.219   4.197  1.00  0.00    -0.352 OA
BRANCH  27  28
HETATM   28  C   UNL     1      43.818 -19.064   5.541  1.00  0.00     0.171 C 
HETATM   29  C   UNL     1      44.044 -20.379   6.265  1.00  0.00     0.034 C 
ENDBRANCH  27  28
ENDBRANCH  24  27
ENDBRANCH   1  21
TORSDOF 5
ENDMDL
MODEL 9
REMARK VINA RESULT:      -7.7      3.599      8.615
REMARK  5 active torsions:
REMARK  status: ('A' for Active; 'I' for Inactive)
REMARK    1  A    between atoms: C_2  and  O_3 
REMARK    2  A    between atoms: O_3  and  C_4 
REMARK    3  A    between atoms: C_7  and  C_8 
REMARK    4  A    between atoms: C_12  and  C_13 
REMARK       I    between atoms: C_13  and  N_14 
REMARK    5  A    between atoms: N_14  and  C_15 
ROOT
HETATM    1  C   UNL     1      40.972 -14.870   1.352  1.00  0.00     0.068 A 
HETATM    2  N   UNL     1      39.766 -14.346   1.691  1.00  0.00    -0.248 NA
HETATM    3  C   UNL     1      39.118 -13.535   0.836  1.00  0.00     0.068 A 
HETATM    4  C   UNL     1      39.623 -13.192  -0.430  1.00  0.00     0.008 A 
HETATM    5  C   UNL     1      40.848 -13.796  -0.782  1.00  0.00     0.047 A 
HETATM    6  C   UNL     1      41.533 -14.621   0.111  1.00  0.00     0.050 A 
HETATM    7  C   UNL     1      37.900 -13.000   1.236  1.00  0.00     0.032 A 
HETATM    8  C   UNL     1      37.173 -12.124   0.426  1.00  0.00     0.002 A 
HETATM    9  C   UNL     1      37.674 -11.761  -0.814  1.00  0.00     0.001 A 
HETATM   10  C   UNL     1      38.892 -12.287  -1.240  1.00  0.00     0.015 A 
ENDROOT
BRANCH   5  11
HETATM   11  C   UNL     1      41.531 -13.509  -2.058  1.00  0.00     0.271 C 
HETATM   12  N   UNL     1      41.093 -14.027  -3.246  1.00  0.00    -0.150 N 
HETATM   13  H   UNL     1      41.583 -13.721  -4.073  1.00  0.00     0.188 HD
HETATM   14  O   UNL     1      42.523 -12.779  -2.025  1.00  0.00    -0.267 OA
BRANCH  12  15
HETATM   15  C   UNL     1      40.131 -14.961  -3.478  1.00  0.00     0.747 A 
HETATM   16  N   UNL     1      40.401 -16.266  -3.391  1.00  0.00     0.020 NA
HETATM   17  N   UNL     1      39.216 -16.813  -3.702  1.00  0.00    -0.255 N 
HETATM   18  H   UNL     1      39.121 -17.823  -3.729  1.00  0.00     0.190 HD
HETATM   19  C   UNL     1      38.287 -15.855  -3.944  1.00  0.00     0.246 A 
HETATM   20  N   UNL     1      38.837 -14.673  -3.800  1.00  0.00    -0.055 NA
ENDBRANCH  12  15
ENDBRANCH   5  11
BRANCH   1  21
HETATM   21  C   UNL     1      41.623 -15.699   2.395  1.00  0.00    -0.007 A 
HETATM   22  C   UNL     1      41.070 -16.934   2.782  1.00  0.00     0.016 A 
HETATM   23  C   UNL     1      41.666 -17.730   3.767  1.00  0.00     0.037 A 
HETATM   24  C   UNL     1      42.841 -17.322   4.395  1.00  0.00     0.068 A 
HETATM   25  C   UNL     1      43.399 -16.095   4.047  1.00  0.00     0.037 A 
HETATM   26  C   UNL     1      42.795 -15.297   3.062  1.00  0.00     0.016 A 
BRANCH  24  27
HETATM   27  O   UNL     1      43.327 -18.191   5.331  1.00  0.00    -0.352 OA
BRANCH  27  28
HETATM   28  C   UNL     1      43.845 -17.621   6.532  1.00  0.00     0.171 C 
HETATM   29  C   UNL     1      42.683 -17.402   7.484  1.00  0.00     0.034 C 
ENDBRANCH  27  28
ENDBRANCH  24  27
ENDBRANCH   1  21
TORSDOF 5
ENDMDL
MODEL 10
REMARK VINA RESULT:      -7.6      3.421      5.987
REMARK  5 active torsions:
REMARK  status: ('A' for Active; 'I' for Inactive)
REMARK    1  A    between atoms: C_2  and  O_3 
REMARK    2  A    between atoms: O_3  and  C_4 
REMARK    3  A    between atoms: C_7  and  C_8 
REMARK    4  A    between atoms: C_12  and  C_13 
REMARK       I    between atoms: C_13  and  N_14 
REMARK    5  A    between atoms: N_14  and  C_15 
ROOT
HETATM    1  C   UNL     1      42.217 -15.029   5.181  1.00  0.00     0.068 A 
HETATM    2  N   UNL     1      42.616 -15.936   6.109  1.00  0.00    -0.248 NA
HETATM    3  C   UNL     1      43.227 -17.071   5.725  1.00  0.00     0.068 A 
HETATM    4  C   UNL     1      43.492 -17.383   4.382  1.00  0.00     0.008 A 
HETATM    5  C   UNL     1      43.121 -16.400   3.441  1.00  0.00     0.047 A 
HETATM    6  C   UNL     1      42.469 -15.230   3.834  1.00  0.00     0.050 A 
HETATM    7  C   UNL     1      43.593 -17.982   6.707  1.00  0.00     0.032 A 
HETATM    8  C   UNL     1      44.202 -19.201   6.398  1.00  0.00     0.002 A 
HETATM    9  C   UNL     1      44.447 -19.528   5.074  1.00  0.00     0.001 A 
HETATM   10  C   UNL     1      44.092 -18.630   4.070  1.00  0.00     0.015 A 
ENDROOT
BRANCH   5  11
HETATM   11  C   UNL     1      43.294 -16.591   1.988  1.00  0.00     0.271 C 
HETATM   12  N   UNL     1      42.299 -16.301   1.096  1.00  0.00    -0.150 N 
HETATM   13  H   UNL     1      42.533 -16.398   0.120  1.00  0.00     0.188 HD
HETATM   14  O   UNL     1      44.377 -17.025   1.593  1.00  0.00    -0.267 OA
BRANCH  12  15
HETATM   15  C   UNL     1      41.001 -15.965   1.329  1.00  0.00     0.747 A 
HETATM   16  N   UNL     1      40.160 -16.824   1.911  1.00  0.00     0.020 NA
HETATM   17  N   UNL     1      39.019 -16.119   1.935  1.00  0.00    -0.255 N 
HETATM   18  H   UNL     1      38.179 -16.536   2.322  1.00  0.00     0.190 HD
HETATM   19  C   UNL     1      39.199 -14.886   1.399  1.00  0.00     0.246 A 
HETATM   20  N   UNL     1      40.447 -14.759   1.018  1.00  0.00    -0.055 NA
ENDBRANCH  12  15
ENDBRANCH   5  11
BRANCH   1  21
HETATM   21  C   UNL     1      41.501 -13.844   5.713  1.00  0.00    -0.007 A 
HETATM   22  C   UNL     1      40.107 -13.869   5.898  1.00  0.00     0.016 A 
HETATM   23  C   UNL     1      39.410 -12.761   6.395  1.00  0.00     0.037 A 
HETATM   24  C   UNL     1      40.086 -11.590   6.730  1.00  0.00     0.068 A 
HETATM   25  C   UNL     1      41.463 -11.529   6.537  1.00  0.00     0.037 A 
HETATM   26  C   UNL     1      42.158 -12.641   6.034  1.00  0.00     0.016 A 
BRANCH  24  27
HETATM   27  O   UNL     1      39.296 -10.585   7.212  1.00  0.00    -0.352 OA
BRANCH  27  28
HETATM   28  C   UNL     1      39.734  -9.938   8.406  1.00  0.00     0.171 C 
HETATM   29  C   UNL     1      38.586  -9.963   9.399  1.00  0.00     0.034 C 
ENDBRANCH  27  28
ENDBRANCH  24  27
ENDBRANCH   1  21
TORSDOF 5
ENDMDL
