MODEL 1
REMARK VINA RESULT:      -9.4      0.000      0.000
REMARK  3 active torsions:
REMARK  status: ('A' for Active; 'I' for Inactive)
REMARK    1  A    between atoms: S_2  and  C_3 
REMARK    2  A    between atoms: C_6  and  C_7 
REMARK    3  A    between atoms: C_22  and  N_23 
ROOT
HETATM    1  C   UNL     1      42.596 -15.454   3.017  1.00  0.00     0.078 C 
HETATM    2  C   UNL     1      42.376 -16.905   3.441  1.00  0.00     0.127 C 
HETATM    3  C   UNL     1      42.519 -17.826   2.258  1.00  0.00     0.060 C 
HETATM    4  C   UNL     1      43.222 -19.032   2.672  1.00  0.00     0.003 A 
HETATM    5  C   UNL     1      43.770 -18.818   3.931  1.00  0.00     0.023 A 
HETATM    6  C   UNL     1      44.596 -19.750   4.530  1.00  0.00     0.016 A 
HETATM    7  C   UNL     1      44.859 -20.927   3.821  1.00  0.00     0.001 A 
HETATM    8  C   UNL     1      44.305 -21.141   2.543  1.00  0.00     0.001 A 
HETATM    9  C   UNL     1      43.481 -20.181   1.949  1.00  0.00     0.014 A 
HETATM   10  C   UNL     1      43.375 -17.492   4.423  1.00  0.00     0.171 C 
HETATM   11  O   UNL     1      43.789 -17.005   5.457  1.00  0.00    -0.291 OA
HETATM   12  N   UNL     1      42.176 -17.572   1.042  1.00  0.00    -0.231 NA
HETATM   13  C   UNL     1      41.844 -16.271   0.754  1.00  0.00     0.165 C 
HETATM   14  C   UNL     1      42.116 -15.253   1.593  1.00  0.00     0.067 C 
HETATM   15  N   UNL     1      41.366 -16.115  -0.519  1.00  0.00    -0.200 NA
HETATM   16  C   UNL     1      41.202 -14.916  -0.966  1.00  0.00     0.181 C 
HETATM   17  N   UNL     1      41.491 -13.816  -0.229  1.00  0.00    -0.298 N 
HETATM   18  C   UNL     1      42.025 -13.895   1.020  1.00  0.00     0.258 C 
HETATM   19  O   UNL     1      42.448 -12.898   1.593  1.00  0.00    -0.267 OA
HETATM   20  H   UNL     1      41.391 -12.893  -0.618  1.00  0.00     0.171 HD
ENDROOT
BRANCH   1  21
HETATM   21  C   UNL     1      41.907 -14.553   4.047  1.00  0.00    -0.048 A 
HETATM   22  C   UNL     1      40.517 -14.631   4.213  1.00  0.00     0.009 A 
HETATM   23  C   UNL     1      39.851 -13.814   5.137  1.00  0.00     0.019 A 
HETATM   24  C   UNL     1      40.556 -12.901   5.921  1.00  0.00    -0.000 A 
HETATM   25  C   UNL     1      41.943 -12.812   5.749  1.00  0.00     0.019 A 
HETATM   26  C   UNL     1      42.611 -13.617   4.818  1.00  0.00     0.009 A 
BRANCH  24  27
HETATM   27  S   UNL     1      39.825 -11.827   7.152  1.00  0.00    -0.134 SA
HETATM   28  C   UNL     1      41.188 -10.723   7.609  1.00  0.00     0.095 C 
ENDBRANCH  24  27
ENDBRANCH   1  21
BRANCH  16  29
HETATM   29  N   UNL     1      40.743 -14.710  -2.225  1.00  0.00    -0.272 NA
HETATM   30  H   UNL     1      40.939 -13.762  -2.534  1.00  0.00     0.127 HD
HETATM   31  H   UNL     1      39.783 -14.978  -2.398  1.00  0.00     0.127 HD
ENDBRANCH  16  29
TORSDOF 3
ENDMDL
MODEL 2
REMARK VINA RESULT:      -9.2      3.431      4.993
REMARK  3 active torsions:
REMARK  status: ('A' for Active; 'I' for Inactive)
REMARK    1  A    between atoms: S_2  and  C_3 
REMARK    2  A    between atoms: C_6  and  C_7 
REMARK    3  A    between atoms: C_22  and  N_23 
ROOT
HETATM    1  C   UNL     1      41.941 -16.383   3.413  1.00  0.00     0.078 C 
HETATM    2  C   UNL     1      42.950 -17.277   2.697  1.00  0.00     0.127 C 
HETATM    3  C   UNL     1      43.832 -17.981   3.695  1.00  0.00     0.060 C 
HETATM    4  C   UNL     1      44.059 -19.350   3.254  1.00  0.00     0.003 A 
HETATM    5  C   UNL     1      43.172 -19.638   2.223  1.00  0.00     0.023 A 
HETATM    6  C   UNL     1      43.076 -20.907   1.684  1.00  0.00     0.016 A 
HETATM    7  C   UNL     1      43.911 -21.896   2.213  1.00  0.00     0.001 A 
HETATM    8  C   UNL     1      44.807 -21.603   3.261  1.00  0.00     0.001 A 
HETATM    9  C   UNL     1      44.882 -20.315   3.800  1.00  0.00     0.014 A 
HETATM   10  C   UNL     1      42.389 -18.440   1.895  1.00  0.00     0.171 C 
HETATM   11  O   UNL     1      41.473 -18.431   1.096  1.00  0.00    -0.291 OA
HETATM   12  N   UNL     1      44.249 -17.506   4.818  1.00  0.00    -0.231 NA
HETATM   13  C   UNL     1      43.672 -16.335   5.245  1.00  0.00     0.165 C 
HETATM   14  C   UNL     1      42.548 -15.839   4.691  1.00  0.00     0.067 C 
HETATM   15  N   UNL     1      44.263 -15.832   6.372  1.00  0.00    -0.200 NA
HETATM   16  C   UNL     1      43.689 -14.845   6.973  1.00  0.00     0.181 C 
HETATM   17  N   UNL     1      42.529 -14.299   6.536  1.00  0.00    -0.298 N 
HETATM   18  C   UNL     1      41.855 -14.786   5.459  1.00  0.00     0.258 C 
HETATM   19  O   UNL     1      40.722 -14.400   5.193  1.00  0.00    -0.267 OA
HETATM   20  H   UNL     1      42.083 -13.556   7.048  1.00  0.00     0.171 HD
ENDROOT
BRANCH   1  21
HETATM   21  C   UNL     1      41.483 -15.305   2.425  1.00  0.00    -0.048 A 
HETATM   22  C   UNL     1      40.174 -15.338   1.924  1.00  0.00     0.009 A 
HETATM   23  C   UNL     1      39.724 -14.377   1.009  1.00  0.00     0.019 A 
HETATM   24  C   UNL     1      40.569 -13.355   0.573  1.00  0.00    -0.000 A 
HETATM   25  C   UNL     1      41.881 -13.327   1.062  1.00  0.00     0.019 A 
HETATM   26  C   UNL     1      42.339 -14.293   1.966  1.00  0.00     0.009 A 
BRANCH  24  27
HETATM   27  S   UNL     1      40.104 -12.057  -0.568  1.00  0.00    -0.134 SA
HETATM   28  C   UNL     1      39.775 -12.951  -2.110  1.00  0.00     0.095 C 
ENDBRANCH  24  27
ENDBRANCH   1  21
BRANCH  16  29
HETATM   29  N   UNL     1      44.230 -14.321   8.100  1.00  0.00    -0.272 NA
HETATM   30  H   UNL     1      44.773 -13.487   7.891  1.00  0.00     0.127 HD
HETATM   31  H   UNL     1      44.734 -14.965   8.694  1.00  0.00     0.127 HD
ENDBRANCH  16  29
TORSDOF 3
ENDMDL
MODEL 3
REMARK VINA RESULT:      -8.9      3.302      5.205
REMARK  3 active torsions:
REMARK  status: ('A' for Active; 'I' for Inactive)
REMARK    1  A    between atoms: S_2  and  C_3 
REMARK    2  A    between atoms: C_6  and  C_7 
REMARK    3  A    between atoms: C_22  and  N_23 
ROOT
HETATM    1  C   UNL     1      41.516 -15.808   2.319  1.00  0.00     0.078 C 
HETATM    2  C   UNL     1      42.913 -16.369   2.581  1.00  0.00     0.127 C 
HETATM    3  C   UNL     1      43.045 -16.801   4.018  1.00  0.00     0.060 C 
HETATM    4  C   UNL     1      43.803 -18.043   4.077  1.00  0.00     0.003 A 
HETATM    5  C   UNL     1      43.908 -18.562   2.793  1.00  0.00     0.023 A 
HETATM    6  C   UNL     1      44.476 -19.799   2.555  1.00  0.00     0.016 A 
HETATM    7  C   UNL     1      44.947 -20.514   3.661  1.00  0.00     0.001 A 
HETATM    8  C   UNL     1      44.837 -19.988   4.964  1.00  0.00     0.001 A 
HETATM    9  C   UNL     1      44.249 -18.739   5.184  1.00  0.00     0.014 A 
HETATM   10  C   UNL     1      43.295 -17.635   1.833  1.00  0.00     0.171 C 
HETATM   11  O   UNL     1      43.161 -17.880   0.650  1.00  0.00    -0.291 OA
HETATM   12  N   UNL     1      42.501 -16.238   5.041  1.00  0.00    -0.231 NA
HETATM   13  C   UNL     1      41.544 -15.286   4.785  1.00  0.00     0.165 C 
HETATM   14  C   UNL     1      40.990 -15.127   3.567  1.00  0.00     0.067 C 
HETATM   15  N   UNL     1      41.115 -14.647   5.917  1.00  0.00    -0.200 NA
HETATM   16  C   UNL     1      40.088 -13.872   5.827  1.00  0.00     0.181 C 
HETATM   17  N   UNL     1      39.420 -13.676   4.665  1.00  0.00    -0.298 N 
HETATM   18  C   UNL     1      39.753 -14.324   3.515  1.00  0.00     0.258 C 
HETATM   19  O   UNL     1      39.028 -14.276   2.527  1.00  0.00    -0.267 OA
HETATM   20  H   UNL     1      38.598 -13.098   4.633  1.00  0.00     0.171 HD
ENDROOT
BRANCH   1  21
HETATM   21  C   UNL     1      41.599 -14.896   1.091  1.00  0.00    -0.048 A 
HETATM   22  C   UNL     1      42.110 -13.597   1.228  1.00  0.00     0.009 A 
HETATM   23  C   UNL     1      42.189 -12.729   0.131  1.00  0.00     0.019 A 
HETATM   24  C   UNL     1      41.763 -13.138  -1.134  1.00  0.00    -0.000 A 
HETATM   25  C   UNL     1      41.241 -14.430  -1.272  1.00  0.00     0.019 A 
HETATM   26  C   UNL     1      41.148 -15.295  -0.175  1.00  0.00     0.009 A 
BRANCH  24  27
HETATM   27  S   UNL     1      41.840 -12.135  -2.614  1.00  0.00    -0.134 SA
HETATM   28  C   UNL     1      40.451 -12.745  -3.607  1.00  0.00     0.095 C 
ENDBRANCH  24  27
ENDBRANCH   1  21
BRANCH  16  29
HETATM   29  N   UNL     1      39.618 -13.227   6.923  1.00  0.00    -0.272 NA
HETATM   30  H   UNL     1      38.732 -13.621   7.226  1.00  0.00     0.127 HD
HETATM   31  H   UNL     1      39.588 -12.218   6.867  1.00  0.00     0.127 HD
ENDBRANCH  16  29
TORSDOF 3
ENDMDL
MODEL 4
REMARK VINA RESULT:      -8.4      3.601      7.191
REMARK  3 active torsions:
REMARK  status: ('A' for Active; 'I' for Inactive)
REMARK    1  A    between atoms: S_2  and  C_3 
REMARK    2  A    between atoms: C_6  and  C_7 
REMARK    3  A    between atoms: C_22  and  N_23 
ROOT
HETATM    1  C   UNL     1      41.673 -15.121   2.285  1.00  0.00     0.078 C 
HETATM    2  C   UNL     1      40.507 -15.330   1.320  1.00  0.00     0.127 C 
HETATM    3  C   UNL     1      39.442 -14.290   1.548  1.00  0.00     0.060 C 
HETATM    4  C   UNL     1      38.909 -13.859   0.263  1.00  0.00     0.003 A 
HETATM    5  C   UNL     1      39.741 -14.332  -0.745  1.00  0.00     0.023 A 
HETATM    6  C   UNL     1      39.550 -13.979  -2.067  1.00  0.00     0.016 A 
HETATM    7  C   UNL     1      38.481 -13.126  -2.357  1.00  0.00     0.001 A 
HETATM    8  C   UNL     1      37.640 -12.644  -1.334  1.00  0.00     0.001 A 
HETATM    9  C   UNL     1      37.857 -13.004  -0.000  1.00  0.00     0.014 A 
HETATM   10  C   UNL     1      40.803 -15.161  -0.161  1.00  0.00     0.171 C 
HETATM   11  O   UNL     1      41.725 -15.626  -0.802  1.00  0.00    -0.291 OA
HETATM   12  N   UNL     1      39.106 -13.771   2.679  1.00  0.00    -0.231 NA
HETATM   13  C   UNL     1      39.932 -14.032   3.746  1.00  0.00     0.165 C 
HETATM   14  C   UNL     1      41.164 -14.557   3.596  1.00  0.00     0.067 C 
HETATM   15  N   UNL     1      39.434 -13.557   4.929  1.00  0.00    -0.200 NA
HETATM   16  C   UNL     1      40.204 -13.573   5.964  1.00  0.00     0.181 C 
HETATM   17  N   UNL     1      41.479 -14.030   5.920  1.00  0.00    -0.298 N 
HETATM   18  C   UNL     1      42.059 -14.460   4.765  1.00  0.00     0.258 C 
HETATM   19  O   UNL     1      43.261 -14.693   4.709  1.00  0.00    -0.267 OA
HETATM   20  H   UNL     1      42.069 -13.993   6.733  1.00  0.00     0.171 HD
ENDROOT
BRANCH   1  21
HETATM   21  C   UNL     1      42.416 -16.454   2.419  1.00  0.00    -0.048 A 
HETATM   22  C   UNL     1      43.630 -16.640   1.743  1.00  0.00     0.009 A 
HETATM   23  C   UNL     1      44.332 -17.849   1.831  1.00  0.00     0.019 A 
HETATM   24  C   UNL     1      43.841 -18.905   2.601  1.00  0.00    -0.000 A 
HETATM   25  C   UNL     1      42.622 -18.727   3.268  1.00  0.00     0.019 A 
HETATM   26  C   UNL     1      41.911 -17.525   3.171  1.00  0.00     0.009 A 
BRANCH  24  27
HETATM   27  S   UNL     1      44.657 -20.483   2.816  1.00  0.00    -0.134 SA
HETATM   28  C   UNL     1      43.684 -21.604   1.776  1.00  0.00     0.095 C 
ENDBRANCH  24  27
ENDBRANCH   1  21
BRANCH  16  29
HETATM   29  N   UNL     1      39.761 -13.103   7.156  1.00  0.00    -0.272 NA
HETATM   30  H   UNL     1      40.496 -12.600   7.646  1.00  0.00     0.127 HD
HETATM   31  H   UNL     1      39.292 -13.772   7.752  1.00  0.00     0.127 HD
ENDBRANCH  16  29
TORSDOF 3
ENDMDL
MODEL 5
REMARK VINA RESULT:      -8.3      1.438      1.793
REMARK  3 active torsions:
REMARK  status: ('A' for Active; 'I' for Inactive)
REMARK    1  A    between atoms: S_2  and  C_3 
REMARK    2  A    between atoms: C_6  and  C_7 
REMARK    3  A    between atoms: C_22  and  N_23 
ROOT
HETATM    1  C   UNL     1      42.151 -14.613   1.937  1.00  0.00     0.078 C 
HETATM    2  C   UNL     1      41.919 -15.959   2.620  1.00  0.00     0.127 C 
HETATM    3  C   UNL     1      42.141 -17.088   1.648  1.00  0.00     0.060 C 
HETATM    4  C   UNL     1      42.830 -18.177   2.326  1.00  0.00     0.003 A 
HETATM    5  C   UNL     1      43.301 -17.713   3.548  1.00  0.00     0.023 A 
HETATM    6  C   UNL     1      44.098 -18.496   4.362  1.00  0.00     0.016 A 
HETATM    7  C   UNL     1      44.414 -19.781   3.909  1.00  0.00     0.001 A 
HETATM    8  C   UNL     1      43.938 -20.249   2.668  1.00  0.00     0.001 A 
HETATM    9  C   UNL     1      43.141 -19.438   1.854  1.00  0.00     0.014 A 
HETATM   10  C   UNL     1      42.865 -16.326   3.752  1.00  0.00     0.171 C 
HETATM   11  O   UNL     1      43.212 -15.641   4.694  1.00  0.00    -0.291 OA
HETATM   12  N   UNL     1      41.868 -17.080   0.389  1.00  0.00    -0.231 NA
HETATM   13  C   UNL     1      41.541 -15.865  -0.164  1.00  0.00     0.165 C 
HETATM   14  C   UNL     1      41.753 -14.699   0.477  1.00  0.00     0.067 C 
HETATM   15  N   UNL     1      41.138 -15.967  -1.468  1.00  0.00    -0.200 NA
HETATM   16  C   UNL     1      40.989 -14.880  -2.146  1.00  0.00     0.181 C 
HETATM   17  N   UNL     1      41.223 -13.653  -1.621  1.00  0.00    -0.298 N 
HETATM   18  C   UNL     1      41.684 -13.480  -0.352  1.00  0.00     0.258 C 
HETATM   19  O   UNL     1      42.063 -12.382   0.040  1.00  0.00    -0.267 OA
HETATM   20  H   UNL     1      41.138 -12.825  -2.186  1.00  0.00     0.171 HD
ENDROOT
BRANCH   1  21
HETATM   21  C   UNL     1      41.394 -13.546   2.734  1.00  0.00    -0.048 A 
HETATM   22  C   UNL     1      42.113 -12.617   3.501  1.00  0.00     0.009 A 
HETATM   23  C   UNL     1      41.455 -11.634   4.253  1.00  0.00     0.019 A 
HETATM   24  C   UNL     1      40.062 -11.551   4.256  1.00  0.00    -0.000 A 
HETATM   25  C   UNL     1      39.341 -12.485   3.501  1.00  0.00     0.019 A 
HETATM   26  C   UNL     1      39.993 -13.477   2.759  1.00  0.00     0.009 A 
BRANCH  24  27
HETATM   27  S   UNL     1      39.110 -10.328   5.150  1.00  0.00    -0.134 SA
HETATM   28  C   UNL     1      40.379  -9.322   5.965  1.00  0.00     0.095 C 
ENDBRANCH  24  27
ENDBRANCH   1  21
BRANCH  16  29
HETATM   29  N   UNL     1      40.603 -14.929  -3.445  1.00  0.00    -0.272 NA
HETATM   30  H   UNL     1      39.606 -14.754  -3.536  1.00  0.00     0.127 HD
HETATM   31  H   UNL     1      40.898 -15.744  -3.967  1.00  0.00     0.127 HD
ENDBRANCH  16  29
TORSDOF 3
ENDMDL
MODEL 6
REMARK VINA RESULT:      -8.2      2.199      2.794
REMARK  3 active torsions:
REMARK  status: ('A' for Active; 'I' for Inactive)
REMARK    1  A    between atoms: S_2  and  C_3 
REMARK    2  A    between atoms: C_6  and  C_7 
REMARK    3  A    between atoms: C_22  and  N_23 
ROOT
HETATM    1  C   UNL     1      41.519 -13.935   4.726  1.00  0.00     0.078 C 
HETATM    2  C   UNL     1      41.711 -15.297   5.389  1.00  0.00     0.127 C 
HETATM    3  C   UNL     1      41.641 -16.397   4.361  1.00  0.00     0.060 C 
HETATM    4  C   UNL     1      42.646 -17.405   4.668  1.00  0.00     0.003 A 
HETATM    5  C   UNL     1      43.513 -16.892   5.625  1.00  0.00     0.023 A 
HETATM    6  C   UNL     1      44.640 -17.583   6.027  1.00  0.00     0.016 A 
HETATM    7  C   UNL     1      44.877 -18.827   5.434  1.00  0.00     0.001 A 
HETATM    8  C   UNL     1      43.999 -19.345   4.461  1.00  0.00     0.001 A 
HETATM    9  C   UNL     1      42.870 -18.625   4.060  1.00  0.00     0.014 A 
HETATM   10  C   UNL     1      43.057 -15.559   6.042  1.00  0.00     0.171 C 
HETATM   11  O   UNL     1      43.679 -14.840   6.799  1.00  0.00    -0.291 OA
HETATM   12  N   UNL     1      40.894 -16.419   3.311  1.00  0.00    -0.231 NA
HETATM   13  C   UNL     1      40.257 -15.247   2.983  1.00  0.00     0.165 C 
HETATM   14  C   UNL     1      40.588 -14.064   3.537  1.00  0.00     0.067 C 
HETATM   15  N   UNL     1      39.384 -15.392   1.939  1.00  0.00    -0.200 NA
HETATM   16  C   UNL     1      38.872 -14.328   1.419  1.00  0.00     0.181 C 
HETATM   17  N   UNL     1      39.172 -13.083   1.862  1.00  0.00    -0.298 N 
HETATM   18  C   UNL     1      40.076 -12.860   2.854  1.00  0.00     0.258 C 
HETATM   19  O   UNL     1      40.468 -11.727   3.111  1.00  0.00    -0.267 OA
HETATM   20  H   UNL     1      38.788 -12.269   1.411  1.00  0.00     0.171 HD
ENDROOT
BRANCH   1  21
HETATM   21  C   UNL     1      41.036 -12.954   5.800  1.00  0.00    -0.048 A 
HETATM   22  C   UNL     1      39.757 -13.109   6.353  1.00  0.00     0.009 A 
HETATM   23  C   UNL     1      39.276 -12.225   7.328  1.00  0.00     0.019 A 
HETATM   24  C   UNL     1      40.062 -11.164   7.779  1.00  0.00    -0.000 A 
HETATM   25  C   UNL     1      41.336 -10.999   7.220  1.00  0.00     0.019 A 
HETATM   26  C   UNL     1      41.815 -11.872   6.235  1.00  0.00     0.009 A 
BRANCH  24  27
HETATM   27  S   UNL     1      39.573  -9.988   9.036  1.00  0.00    -0.134 SA
HETATM   28  C   UNL     1      40.100 -10.779  10.579  1.00  0.00     0.095 C 
ENDBRANCH  24  27
ENDBRANCH   1  21
BRANCH  16  29
HETATM   29  N   UNL     1      38.012 -14.420   0.376  1.00  0.00    -0.272 NA
HETATM   30  H   UNL     1      37.176 -14.936   0.637  1.00  0.00     0.127 HD
HETATM   31  H   UNL     1      38.404 -14.745  -0.498  1.00  0.00     0.127 HD
ENDBRANCH  16  29
TORSDOF 3
ENDMDL
MODEL 7
REMARK VINA RESULT:      -8.1      3.277      6.387
REMARK  3 active torsions:
REMARK  status: ('A' for Active; 'I' for Inactive)
REMARK    1  A    between atoms: S_2  and  C_3 
REMARK    2  A    between atoms: C_6  and  C_7 
REMARK    3  A    between atoms: C_22  and  N_23 
ROOT
HETATM    1  C   UNL     1      41.902 -15.214   3.316  1.00  0.00     0.078 C 
HETATM    2  C   UNL     1      40.975 -15.659   2.187  1.00  0.00     0.127 C 
HETATM    3  C   UNL     1      40.036 -14.544   1.807  1.00  0.00     0.060 C 
HETATM    4  C   UNL     1      39.879 -14.521   0.360  1.00  0.00     0.003 A 
HETATM    5  C   UNL     1      40.850 -15.338  -0.206  1.00  0.00     0.023 A 
HETATM    6  C   UNL     1      41.020 -15.420  -1.575  1.00  0.00     0.016 A 
HETATM    7  C   UNL     1      40.172 -14.648  -2.376  1.00  0.00     0.001 A 
HETATM    8  C   UNL     1      39.189 -13.818  -1.800  1.00  0.00     0.001 A 
HETATM    9  C   UNL     1      39.041 -13.741  -0.413  1.00  0.00     0.014 A 
HETATM   10  C   UNL     1      41.626 -15.992   0.855  1.00  0.00     0.171 C 
HETATM   11  O   UNL     1      42.601 -16.688   0.647  1.00  0.00    -0.291 OA
HETATM   12  N   UNL     1      39.520 -13.671   2.603  1.00  0.00    -0.231 NA
HETATM   13  C   UNL     1      40.033 -13.619   3.876  1.00  0.00     0.165 C 
HETATM   14  C   UNL     1      41.184 -14.230   4.218  1.00  0.00     0.067 C 
HETATM   15  N   UNL     1      39.343 -12.762   4.691  1.00  0.00    -0.200 NA
HETATM   16  C   UNL     1      39.843 -12.486   5.848  1.00  0.00     0.181 C 
HETATM   17  N   UNL     1      41.020 -13.002   6.277  1.00  0.00    -0.298 N 
HETATM   18  C   UNL     1      41.788 -13.811   5.498  1.00  0.00     0.258 C 
HETATM   19  O   UNL     1      42.928 -14.116   5.831  1.00  0.00    -0.267 OA
HETATM   20  H   UNL     1      41.405 -12.737   7.168  1.00  0.00     0.171 HD
ENDROOT
BRANCH   1  21
HETATM   21  C   UNL     1      42.408 -16.471   4.031  1.00  0.00    -0.048 A 
HETATM   22  C   UNL     1      41.521 -17.223   4.816  1.00  0.00     0.009 A 
HETATM   23  C   UNL     1      41.950 -18.372   5.495  1.00  0.00     0.019 A 
HETATM   24  C   UNL     1      43.275 -18.801   5.406  1.00  0.00    -0.000 A 
HETATM   25  C   UNL     1      44.166 -18.045   4.633  1.00  0.00     0.019 A 
HETATM   26  C   UNL     1      43.745 -16.889   3.964  1.00  0.00     0.009 A 
BRANCH  24  27
HETATM   27  S   UNL     1      43.935 -20.262   6.201  1.00  0.00    -0.134 SA
HETATM   28  C   UNL     1      44.842 -21.091   4.869  1.00  0.00     0.095 C 
ENDBRANCH  24  27
ENDBRANCH   1  21
BRANCH  16  29
HETATM   29  N   UNL     1      39.203 -11.634   6.685  1.00  0.00    -0.272 NA
HETATM   30  H   UNL     1      38.346 -12.048   7.042  1.00  0.00     0.127 HD
HETATM   31  H   UNL     1      39.058 -10.694   6.340  1.00  0.00     0.127 HD
ENDBRANCH  16  29
TORSDOF 3
ENDMDL
MODEL 8
REMARK VINA RESULT:      -7.9      3.460      5.361
REMARK  3 active torsions:
REMARK  status: ('A' for Active; 'I' for Inactive)
REMARK    1  A    between atoms: S_2  and  C_3 
REMARK    2  A    between atoms: C_6  and  C_7 
REMARK    3  A    between atoms: C_22  and  N_23 
ROOT
HETATM    1  C   UNL     1      41.222 -14.916   1.788  1.00  0.00     0.078 C 
HETATM    2  C   UNL     1      42.561 -15.491   2.246  1.00  0.00     0.127 C 
HETATM    3  C   UNL     1      42.537 -15.767   3.726  1.00  0.00     0.060 C 
HETATM    4  C   UNL     1      43.231 -17.020   3.992  1.00  0.00     0.003 A 
HETATM    5  C   UNL     1      43.435 -17.680   2.786  1.00  0.00     0.023 A 
HETATM    6  C   UNL     1      43.967 -18.954   2.739  1.00  0.00     0.016 A 
HETATM    7  C   UNL     1      44.299 -19.558   3.956  1.00  0.00     0.001 A 
HETATM    8  C   UNL     1      44.089 -18.889   5.178  1.00  0.00     0.001 A 
HETATM    9  C   UNL     1      43.538 -17.604   5.205  1.00  0.00     0.014 A 
HETATM   10  C   UNL     1      42.957 -16.844   1.678  1.00  0.00     0.171 C 
HETATM   11  O   UNL     1      42.926 -17.212   0.520  1.00  0.00    -0.291 OA
HETATM   12  N   UNL     1      41.923 -15.078   4.625  1.00  0.00    -0.231 NA
HETATM   13  C   UNL     1      41.038 -14.128   4.175  1.00  0.00     0.165 C 
HETATM   14  C   UNL     1      40.610 -14.085   2.899  1.00  0.00     0.067 C 
HETATM   15  N   UNL     1      40.531 -13.355   5.185  1.00  0.00    -0.200 NA
HETATM   16  C   UNL     1      39.553 -12.560   4.912  1.00  0.00     0.181 C 
HETATM   17  N   UNL     1      39.008 -12.471   3.675  1.00  0.00    -0.298 N 
HETATM   18  C   UNL     1      39.420 -13.252   2.639  1.00  0.00     0.258 C 
HETATM   19  O   UNL     1      38.795 -13.288   1.585  1.00  0.00    -0.267 OA
HETATM   20  H   UNL     1      38.218 -11.872   3.501  1.00  0.00     0.171 HD
ENDROOT
BRANCH   1  21
HETATM   21  C   UNL     1      41.461 -14.147   0.485  1.00  0.00    -0.048 A 
HETATM   22  C   UNL     1      42.109 -12.904   0.525  1.00  0.00     0.009 A 
HETATM   23  C   UNL     1      42.335 -12.166  -0.645  1.00  0.00     0.019 A 
HETATM   24  C   UNL     1      41.921 -12.652  -1.886  1.00  0.00    -0.000 A 
HETATM   25  C   UNL     1      41.263 -13.888  -1.928  1.00  0.00     0.019 A 
HETATM   26  C   UNL     1      41.023 -14.622  -0.760  1.00  0.00     0.009 A 
BRANCH  24  27
HETATM   27  S   UNL     1      42.176 -11.819  -3.449  1.00  0.00    -0.134 SA
HETATM   28  C   UNL     1      42.710 -10.158  -2.958  1.00  0.00     0.095 C 
ENDBRANCH  24  27
ENDBRANCH   1  21
BRANCH  16  29
HETATM   29  N   UNL     1      39.010 -11.783   5.881  1.00  0.00    -0.272 NA
HETATM   30  H   UNL     1      39.394 -12.015   6.793  1.00  0.00     0.127 HD
HETATM   31  H   UNL     1      38.000 -11.729   5.895  1.00  0.00     0.127 HD
ENDBRANCH  16  29
TORSDOF 3
ENDMDL
MODEL 9
REMARK VINA RESULT:      -7.6      2.809      6.407
REMARK  3 active torsions:
REMARK  status: ('A' for Active; 'I' for Inactive)
REMARK    1  A    between atoms: S_2  and  C_3 
REMARK    2  A    between atoms: C_6  and  C_7 
REMARK    3  A    between atoms: C_22  and  N_23 
ROOT
HETATM    1  C   UNL     1      41.383 -14.959   1.912  1.00  0.00     0.078 C 
HETATM    2  C   UNL     1      41.758 -14.223   3.197  1.00  0.00     0.127 C 
HETATM    3  C   UNL     1      41.602 -12.736   3.016  1.00  0.00     0.060 C 
HETATM    4  C   UNL     1      41.039 -12.162   4.230  1.00  0.00     0.003 A 
HETATM    5  C   UNL     1      40.575 -13.194   5.037  1.00  0.00     0.023 A 
HETATM    6  C   UNL     1      39.881 -12.944   6.205  1.00  0.00     0.016 A 
HETATM    7  C   UNL     1      39.664 -11.607   6.552  1.00  0.00     0.001 A 
HETATM    8  C   UNL     1      40.133 -10.561   5.732  1.00  0.00     0.001 A 
HETATM    9  C   UNL     1      40.823 -10.835   4.547  1.00  0.00     0.014 A 
HETATM   10  C   UNL     1      40.892 -14.487   4.417  1.00  0.00     0.171 C 
HETATM   11  O   UNL     1      40.520 -15.556   4.859  1.00  0.00    -0.291 OA
HETATM   12  N   UNL     1      41.826 -12.067   1.938  1.00  0.00    -0.231 NA
HETATM   13  C   UNL     1      42.022 -12.795   0.790  1.00  0.00     0.165 C 
HETATM   14  C   UNL     1      41.731 -14.108   0.708  1.00  0.00     0.067 C 
HETATM   15  N   UNL     1      42.384 -12.016  -0.276  1.00  0.00    -0.200 NA
HETATM   16  C   UNL     1      42.410 -12.559  -1.446  1.00  0.00     0.181 C 
HETATM   17  N   UNL     1      42.087 -13.858  -1.656  1.00  0.00    -0.298 N 
HETATM   18  C   UNL     1      41.661 -14.674  -0.653  1.00  0.00     0.258 C 
HETATM   19  O   UNL     1      41.200 -15.785  -0.893  1.00  0.00    -0.267 OA
HETATM   20  H   UNL     1      42.077 -14.244  -2.585  1.00  0.00     0.171 HD
ENDROOT
BRANCH   1  21
HETATM   21  C   UNL     1      42.070 -16.328   1.937  1.00  0.00    -0.048 A 
HETATM   22  C   UNL     1      43.469 -16.399   1.874  1.00  0.00     0.009 A 
HETATM   23  C   UNL     1      44.133 -17.633   1.881  1.00  0.00     0.019 A 
HETATM   24  C   UNL     1      43.417 -18.829   1.954  1.00  0.00    -0.000 A 
HETATM   25  C   UNL     1      42.018 -18.761   2.004  1.00  0.00     0.019 A 
HETATM   26  C   UNL     1      41.351 -17.531   1.983  1.00  0.00     0.009 A 
BRANCH  24  27
HETATM   27  S   UNL     1      44.149 -20.461   1.999  1.00  0.00    -0.134 SA
HETATM   28  C   UNL     1      44.772 -20.595   3.696  1.00  0.00     0.095 C 
ENDBRANCH  24  27
ENDBRANCH   1  21
BRANCH  16  29
HETATM   29  N   UNL     1      42.750 -11.826  -2.535  1.00  0.00    -0.272 NA
HETATM   30  H   UNL     1      42.056 -11.108  -2.722  1.00  0.00     0.127 HD
HETATM   31  H   UNL     1      42.993 -12.349  -3.366  1.00  0.00     0.127 HD
ENDBRANCH  16  29
TORSDOF 3
ENDMDL
MODEL 10
REMARK VINA RESULT:      -7.6      2.679      6.353
REMARK  3 active torsions:
REMARK  status: ('A' for Active; 'I' for Inactive)
REMARK    1  A    between atoms: S_2  and  C_3 
REMARK    2  A    between atoms: C_6  and  C_7 
REMARK    3  A    between atoms: C_22  and  N_23 
ROOT
HETATM    1  C   UNL     1      40.944 -15.367   3.241  1.00  0.00     0.078 C 
HETATM    2  C   UNL     1      41.369 -14.045   3.876  1.00  0.00     0.127 C 
HETATM    3  C   UNL     1      41.028 -12.892   2.969  1.00  0.00     0.060 C 
HETATM    4  C   UNL     1      40.536 -11.780   3.770  1.00  0.00     0.003 A 
HETATM    5  C   UNL     1      40.279 -12.239   5.057  1.00  0.00     0.023 A 
HETATM    6  C   UNL     1      39.690 -11.430   6.010  1.00  0.00     0.016 A 
HETATM    7  C   UNL     1      39.362 -10.124   5.632  1.00  0.00     0.001 A 
HETATM    8  C   UNL     1      39.621  -9.661   4.326  1.00  0.00     0.001 A 
HETATM    9  C   UNL     1      40.208 -10.499   3.373  1.00  0.00     0.014 A 
HETATM   10  C   UNL     1      40.673 -13.649   5.167  1.00  0.00     0.171 C 
HETATM   11  O   UNL     1      40.472 -14.330   6.154  1.00  0.00    -0.291 OA
HETATM   12  N   UNL     1      41.060 -12.894   1.681  1.00  0.00    -0.231 NA
HETATM   13  C   UNL     1      41.214 -14.115   1.070  1.00  0.00     0.165 C 
HETATM   14  C   UNL     1      41.065 -15.279   1.733  1.00  0.00     0.067 C 
HETATM   15  N   UNL     1      41.371 -14.014  -0.286  1.00  0.00    -0.200 NA
HETATM   16  C   UNL     1      41.333 -15.096  -0.987  1.00  0.00     0.181 C 
HETATM   17  N   UNL     1      41.138 -16.318  -0.433  1.00  0.00    -0.298 N 
HETATM   18  C   UNL     1      40.915 -16.487   0.899  1.00  0.00     0.258 C 
HETATM   19  O   UNL     1      40.559 -17.571   1.349  1.00  0.00    -0.267 OA
HETATM   20  H   UNL     1      41.073 -17.140  -1.009  1.00  0.00     0.171 HD
ENDROOT
BRANCH   1  21
HETATM   21  C   UNL     1      41.780 -16.484   3.876  1.00  0.00    -0.048 A 
HETATM   22  C   UNL     1      43.135 -16.610   3.537  1.00  0.00     0.009 A 
HETATM   23  C   UNL     1      43.928 -17.626   4.087  1.00  0.00     0.019 A 
HETATM   24  C   UNL     1      43.389 -18.541   4.993  1.00  0.00    -0.000 A 
HETATM   25  C   UNL     1      42.033 -18.425   5.323  1.00  0.00     0.019 A 
HETATM   26  C   UNL     1      41.234 -17.420   4.765  1.00  0.00     0.009 A 
BRANCH  24  27
HETATM   27  S   UNL     1      44.303 -19.860   5.783  1.00  0.00    -0.134 SA
HETATM   28  C   UNL     1      45.085 -20.721   4.392  1.00  0.00     0.095 C 
ENDBRANCH  24  27
ENDBRANCH   1  21
BRANCH  16  29
HETATM   29  N   UNL     1      41.471 -15.046  -2.334  1.00  0.00    -0.272 NA
HETATM   30  H   UNL     1      42.299 -15.553  -2.635  1.00  0.00     0.127 HD
HETATM   31  H   UNL     1      41.411 -14.128  -2.754  1.00  0.00     0.127 HD
ENDBRANCH  16  29
TORSDOF 3
ENDMDL
