MODEL 1
REMARK VINA RESULT:      -9.0      0.000      0.000
REMARK  4 active torsions:
REMARK  status: ('A' for Active; 'I' for Inactive)
REMARK    1  A    between atoms: C_5  and  C_6 
REMARK    2  A    between atoms: C_6  and  N_7 
REMARK    3  A    between atoms: C_13  and  C_14 
REMARK    4  A    between atoms: C_14  and  N_15 
ROOT
HETATM    1  N   UNL     1      44.178 -17.829   5.133  1.00  0.00    -0.060 N 
HETATM    2  H   UNL     1      44.797 -17.120   4.730  1.00  0.00     0.280 HD
HETATM    3  C   UNL     1      43.046 -18.058   4.136  1.00  0.00     0.274 C 
HETATM    4  C   UNL     1      43.548 -18.149   2.658  1.00  0.00     0.092 C 
HETATM    5  C   UNL     1      42.447 -18.727   1.733  1.00  0.00     0.041 C 
HETATM    6  C   UNL     1      41.281 -17.772   1.475  1.00  0.00     0.009 C 
HETATM    7  C   UNL     1      41.754 -16.437   0.874  1.00  0.00     0.012 C 
HETATM    8  C   UNL     1      42.792 -15.803   1.812  1.00  0.00     0.009 C 
HETATM    9  C   UNL     1      43.957 -16.757   2.105  1.00  0.00     0.041 C 
HETATM   10  O   UNL     1      44.751 -18.951   2.532  1.00  0.00    -0.338 OA
HETATM   11  C   UNL     1      44.681 -20.168   3.152  1.00  0.00     0.077 A 
HETATM   12  C   UNL     1      44.821 -20.250   4.539  1.00  0.00     0.001 A 
HETATM   13  C   UNL     1      45.106 -19.022   5.347  1.00  0.00     0.276 C 
HETATM   14  C   UNL     1      44.536 -21.312   2.371  1.00  0.00     0.037 A 
HETATM   15  C   UNL     1      44.469 -22.560   2.988  1.00  0.00     0.003 A 
HETATM   16  C   UNL     1      44.572 -22.660   4.374  1.00  0.00     0.001 A 
HETATM   17  C   UNL     1      44.759 -21.513   5.148  1.00  0.00     0.012 A 
ENDROOT
BRANCH   1  18
HETATM   18  C   UNL     1      43.696 -17.242   6.446  1.00  0.00     0.276 C 
BRANCH  18  19
HETATM   19  C   UNL     1      43.502 -15.773   6.437  1.00  0.00     0.004 A 
HETATM   20  C   UNL     1      44.356 -14.804   7.016  1.00  0.00     0.149 A 
HETATM   21  N   UNL     1      43.944 -13.561   6.790  1.00  0.00    -0.185 NA
HETATM   22  N   UNL     1      42.778 -13.710   6.142  1.00  0.00    -0.285 N 
HETATM   23  C   UNL     1      41.991 -12.549   5.794  1.00  0.00     0.179 C 
HETATM   24  C   UNL     1      42.478 -15.022   5.889  1.00  0.00     0.122 A 
ENDBRANCH  18  19
ENDBRANCH   1  18
BRANCH   7  25
HETATM   25  C   UNL     1      40.531 -15.534   0.600  1.00  0.00     0.238 C 
BRANCH  25  26
HETATM   26  N   UNL     1      40.667 -14.694  -0.652  1.00  0.00    -0.078 N 
HETATM   27  H   UNL     1      41.448 -14.036  -0.538  1.00  0.00     0.278 HD
HETATM   28  C   UNL     1      40.943 -15.495  -1.901  1.00  0.00     0.269 C 
HETATM   29  C   UNL     1      39.440 -13.829  -0.854  1.00  0.00     0.269 C 
ENDBRANCH  25  26
ENDBRANCH   7  25
TORSDOF 4
ENDMDL
MODEL 2
REMARK VINA RESULT:      -8.7      2.050      6.175
REMARK  4 active torsions:
REMARK  status: ('A' for Active; 'I' for Inactive)
REMARK    1  A    between atoms: C_5  and  C_6 
REMARK    2  A    between atoms: C_6  and  N_7 
REMARK    3  A    between atoms: C_13  and  C_14 
REMARK    4  A    between atoms: C_14  and  N_15 
ROOT
HETATM    1  N   UNL     1      42.258 -14.410   3.420  1.00  0.00    -0.060 N 
HETATM    2  H   UNL     1      41.563 -14.936   3.956  1.00  0.00     0.280 HD
HETATM    3  C   UNL     1      43.106 -15.425   2.660  1.00  0.00     0.274 C 
HETATM    4  C   UNL     1      42.251 -16.559   2.004  1.00  0.00     0.092 C 
HETATM    5  C   UNL     1      43.084 -17.351   0.965  1.00  0.00     0.041 C 
HETATM    6  C   UNL     1      44.155 -18.255   1.577  1.00  0.00     0.009 C 
HETATM    7  C   UNL     1      43.553 -19.263   2.572  1.00  0.00     0.012 C 
HETATM    8  C   UNL     1      42.785 -18.499   3.660  1.00  0.00     0.009 C 
HETATM    9  C   UNL     1      41.725 -17.564   3.063  1.00  0.00     0.041 C 
HETATM   10  O   UNL     1      41.051 -16.047   1.369  1.00  0.00    -0.338 OA
HETATM   11  C   UNL     1      41.267 -14.986   0.534  1.00  0.00     0.077 A 
HETATM   12  C   UNL     1      41.476 -13.713   1.069  1.00  0.00     0.001 A 
HETATM   13  C   UNL     1      41.407 -13.491   2.548  1.00  0.00     0.276 C 
HETATM   14  C   UNL     1      41.207 -15.191  -0.842  1.00  0.00     0.037 A 
HETATM   15  C   UNL     1      41.419 -14.118  -1.706  1.00  0.00     0.003 A 
HETATM   16  C   UNL     1      41.663 -12.846  -1.191  1.00  0.00     0.001 A 
HETATM   17  C   UNL     1      41.680 -12.639   0.190  1.00  0.00     0.012 A 
ENDROOT
BRANCH   1  18
HETATM   18  C   UNL     1      43.056 -13.634   4.452  1.00  0.00     0.276 C 
BRANCH  18  19
HETATM   19  C   UNL     1      43.408 -14.401   5.671  1.00  0.00     0.004 A 
HETATM   20  C   UNL     1      44.377 -14.048   6.640  1.00  0.00     0.149 A 
HETATM   21  N   UNL     1      44.422 -14.907   7.653  1.00  0.00    -0.185 NA
HETATM   22  N   UNL     1      43.550 -15.869   7.312  1.00  0.00    -0.285 N 
HETATM   23  C   UNL     1      43.387 -17.030   8.155  1.00  0.00     0.179 C 
HETATM   24  C   UNL     1      42.901 -15.600   6.136  1.00  0.00     0.122 A 
ENDBRANCH  18  19
ENDBRANCH   1  18
BRANCH   7  25
HETATM   25  C   UNL     1      44.674 -20.171   3.124  1.00  0.00     0.238 C 
BRANCH  25  26
HETATM   26  N   UNL     1      44.631 -21.584   2.583  1.00  0.00    -0.078 N 
HETATM   27  H   UNL     1      45.458 -21.751   1.999  1.00  0.00     0.278 HD
HETATM   28  C   UNL     1      44.623 -22.650   3.653  1.00  0.00     0.269 C 
HETATM   29  C   UNL     1      43.443 -21.769   1.661  1.00  0.00     0.269 C 
ENDBRANCH  25  26
ENDBRANCH   7  25
TORSDOF 4
ENDMDL
MODEL 3
REMARK VINA RESULT:      -8.3      1.485      1.991
REMARK  4 active torsions:
REMARK  status: ('A' for Active; 'I' for Inactive)
REMARK    1  A    between atoms: C_5  and  C_6 
REMARK    2  A    between atoms: C_6  and  N_7 
REMARK    3  A    between atoms: C_13  and  C_14 
REMARK    4  A    between atoms: C_14  and  N_15 
ROOT
HETATM    1  N   UNL     1      42.805 -16.814   5.521  1.00  0.00    -0.060 N 
HETATM    2  H   UNL     1      43.429 -16.062   5.218  1.00  0.00     0.280 HD
HETATM    3  C   UNL     1      42.220 -17.449   4.263  1.00  0.00     0.274 C 
HETATM    4  C   UNL     1      43.288 -17.670   3.142  1.00  0.00     0.092 C 
HETATM    5  C   UNL     1      42.750 -18.621   2.043  1.00  0.00     0.041 C 
HETATM    6  C   UNL     1      41.671 -18.004   1.153  1.00  0.00     0.009 C 
HETATM    7  C   UNL     1      42.159 -16.715   0.469  1.00  0.00     0.012 C 
HETATM    8  C   UNL     1      42.626 -15.722   1.542  1.00  0.00     0.009 C 
HETATM    9  C   UNL     1      43.690 -16.333   2.464  1.00  0.00     0.041 C 
HETATM   10  O   UNL     1      44.536 -18.195   3.665  1.00  0.00    -0.338 OA
HETATM   11  C   UNL     1      44.388 -19.278   4.486  1.00  0.00     0.077 A 
HETATM   12  C   UNL     1      43.961 -19.097   5.804  1.00  0.00     0.001 A 
HETATM   13  C   UNL     1      43.720 -17.720   6.341  1.00  0.00     0.276 C 
HETATM   14  C   UNL     1      44.733 -20.538   4.005  1.00  0.00     0.037 A 
HETATM   15  C   UNL     1      44.594 -21.651   4.833  1.00  0.00     0.003 A 
HETATM   16  C   UNL     1      44.136 -21.495   6.140  1.00  0.00     0.001 A 
HETATM   17  C   UNL     1      43.832 -20.223   6.630  1.00  0.00     0.012 A 
ENDROOT
BRANCH   1  18
HETATM   18  C   UNL     1      41.754 -16.140   6.383  1.00  0.00     0.276 C 
BRANCH  18  19
HETATM   19  C   UNL     1      41.278 -14.831   5.874  1.00  0.00     0.004 A 
HETATM   20  C   UNL     1      39.948 -14.491   5.532  1.00  0.00     0.149 A 
HETATM   21  N   UNL     1      39.825 -13.221   5.163  1.00  0.00    -0.185 NA
HETATM   22  N   UNL     1      41.081 -12.748   5.177  1.00  0.00    -0.285 N 
HETATM   23  C   UNL     1      41.349 -11.394   4.750  1.00  0.00     0.179 C 
HETATM   24  C   UNL     1      41.989 -13.674   5.616  1.00  0.00     0.122 A 
ENDBRANCH  18  19
ENDBRANCH   1  18
BRANCH   7  25
HETATM   25  C   UNL     1      41.042 -16.164  -0.445  1.00  0.00     0.238 C 
BRANCH  25  26
HETATM   26  N   UNL     1      41.559 -15.335  -1.601  1.00  0.00    -0.078 N 
HETATM   27  H   UNL     1      42.576 -15.457  -1.679  1.00  0.00     0.278 HD
HETATM   28  C   UNL     1      40.964 -15.709  -2.937  1.00  0.00     0.269 C 
HETATM   29  C   UNL     1      41.350 -13.858  -1.338  1.00  0.00     0.269 C 
ENDBRANCH  25  26
ENDBRANCH   7  25
TORSDOF 4
ENDMDL
MODEL 4
REMARK VINA RESULT:      -8.0      2.571      7.032
REMARK  4 active torsions:
REMARK  status: ('A' for Active; 'I' for Inactive)
REMARK    1  A    between atoms: C_5  and  C_6 
REMARK    2  A    between atoms: C_6  and  N_7 
REMARK    3  A    between atoms: C_13  and  C_14 
REMARK    4  A    between atoms: C_14  and  N_15 
ROOT
HETATM    1  N   UNL     1      41.369 -15.174   0.839  1.00  0.00    -0.060 N 
HETATM    2  H   UNL     1      40.351 -15.125   0.934  1.00  0.00     0.280 HD
HETATM    3  C   UNL     1      41.970 -14.693   2.156  1.00  0.00     0.274 C 
HETATM    4  C   UNL     1      41.233 -15.274   3.407  1.00  0.00     0.092 C 
HETATM    5  C   UNL     1      42.070 -15.059   4.693  1.00  0.00     0.041 C 
HETATM    6  C   UNL     1      42.126 -13.606   5.169  1.00  0.00     0.009 C 
HETATM    7  C   UNL     1      40.721 -13.028   5.414  1.00  0.00     0.012 C 
HETATM    8  C   UNL     1      39.893 -13.158   4.127  1.00  0.00     0.009 C 
HETATM    9  C   UNL     1      39.849 -14.605   3.618  1.00  0.00     0.041 C 
HETATM   10  O   UNL     1      40.930 -16.686   3.261  1.00  0.00    -0.338 OA
HETATM   11  C   UNL     1      41.991 -17.449   2.860  1.00  0.00     0.077 A 
HETATM   12  C   UNL     1      42.386 -17.439   1.520  1.00  0.00     0.001 A 
HETATM   13  C   UNL     1      41.620 -16.643   0.509  1.00  0.00     0.276 C 
HETATM   14  C   UNL     1      42.615 -18.275   3.791  1.00  0.00     0.037 A 
HETATM   15  C   UNL     1      43.694 -19.063   3.396  1.00  0.00     0.003 A 
HETATM   16  C   UNL     1      44.125 -19.041   2.071  1.00  0.00     0.001 A 
HETATM   17  C   UNL     1      43.469 -18.242   1.132  1.00  0.00     0.012 A 
ENDROOT
BRANCH   1  18
HETATM   18  C   UNL     1      41.707 -14.265  -0.328  1.00  0.00     0.276 C 
BRANCH  18  19
HETATM   19  C   UNL     1      40.876 -14.472  -1.539  1.00  0.00     0.004 A 
HETATM   20  C   UNL     1      41.333 -14.865  -2.819  1.00  0.00     0.149 A 
HETATM   21  N   UNL     1      40.340 -15.025  -3.688  1.00  0.00    -0.185 NA
HETATM   22  N   UNL     1      39.242 -14.654  -3.010  1.00  0.00    -0.285 N 
HETATM   23  C   UNL     1      37.958 -14.626  -3.671  1.00  0.00     0.179 C 
HETATM   24  C   UNL     1      39.511 -14.331  -1.706  1.00  0.00     0.122 A 
ENDBRANCH  18  19
ENDBRANCH   1  18
BRANCH   7  25
HETATM   25  C   UNL     1      40.845 -11.577   5.929  1.00  0.00     0.238 C 
BRANCH  25  26
HETATM   26  N   UNL     1      40.931 -11.475   7.437  1.00  0.00    -0.078 N 
HETATM   27  H   UNL     1      41.301 -12.354   7.817  1.00  0.00     0.278 HD
HETATM   28  C   UNL     1      41.832 -10.368   7.926  1.00  0.00     0.269 C 
HETATM   29  C   UNL     1      39.551 -11.325   8.043  1.00  0.00     0.269 C 
ENDBRANCH  25  26
ENDBRANCH   7  25
TORSDOF 4
ENDMDL
MODEL 5
REMARK VINA RESULT:      -8.0      1.815      5.900
REMARK  4 active torsions:
REMARK  status: ('A' for Active; 'I' for Inactive)
REMARK    1  A    between atoms: C_5  and  C_6 
REMARK    2  A    between atoms: C_6  and  N_7 
REMARK    3  A    between atoms: C_13  and  C_14 
REMARK    4  A    between atoms: C_14  and  N_15 
ROOT
HETATM    1  N   UNL     1      42.115 -16.930   1.917  1.00  0.00    -0.060 N 
HETATM    2  H   UNL     1      41.103 -16.872   2.060  1.00  0.00     0.280 HD
HETATM    3  C   UNL     1      42.776 -16.134   3.038  1.00  0.00     0.274 C 
HETATM    4  C   UNL     1      42.127 -16.402   4.436  1.00  0.00     0.092 C 
HETATM    5  C   UNL     1      43.030 -15.868   5.577  1.00  0.00     0.041 C 
HETATM    6  C   UNL     1      43.073 -14.343   5.681  1.00  0.00     0.009 C 
HETATM    7  C   UNL     1      41.669 -13.740   5.864  1.00  0.00     0.012 C 
HETATM    8  C   UNL     1      40.773 -14.191   4.701  1.00  0.00     0.009 C 
HETATM    9  C   UNL     1      40.739 -15.718   4.563  1.00  0.00     0.041 C 
HETATM   10  O   UNL     1      41.855 -17.810   4.657  1.00  0.00    -0.338 OA
HETATM   11  C   UNL     1      42.911 -18.635   4.388  1.00  0.00     0.077 A 
HETATM   12  C   UNL     1      43.229 -18.947   3.064  1.00  0.00     0.001 A 
HETATM   13  C   UNL     1      42.386 -18.432   1.939  1.00  0.00     0.276 C 
HETATM   14  C   UNL     1      43.610 -19.200   5.451  1.00  0.00     0.037 A 
HETATM   15  C   UNL     1      44.686 -20.048   5.194  1.00  0.00     0.003 A 
HETATM   16  C   UNL     1      45.040 -20.344   3.879  1.00  0.00     0.001 A 
HETATM   17  C   UNL     1      44.310 -19.807   2.817  1.00  0.00     0.012 A 
ENDROOT
BRANCH   1  18
HETATM   18  C   UNL     1      42.361 -16.330   0.545  1.00  0.00     0.276 C 
BRANCH  18  19
HETATM   19  C   UNL     1      41.255 -15.490   0.026  1.00  0.00     0.004 A 
HETATM   20  C   UNL     1      40.229 -14.881   0.786  1.00  0.00     0.149 A 
HETATM   21  N   UNL     1      39.416 -14.138   0.042  1.00  0.00    -0.185 NA
HETATM   22  N   UNL     1      39.850 -14.326  -1.214  1.00  0.00    -0.285 N 
HETATM   23  C   UNL     1      39.146 -13.721  -2.321  1.00  0.00     0.179 C 
HETATM   24  C   UNL     1      40.967 -15.116  -1.274  1.00  0.00     0.122 A 
ENDBRANCH  18  19
ENDBRANCH   1  18
BRANCH   7  25
HETATM   25  C   UNL     1      41.783 -12.206   6.002  1.00  0.00     0.238 C 
BRANCH  25  26
HETATM   26  N   UNL     1      41.199 -11.669   7.291  1.00  0.00    -0.078 N 
HETATM   27  H   UNL     1      41.217 -12.406   8.006  1.00  0.00     0.278 HD
HETATM   28  C   UNL     1      41.945 -10.485   7.856  1.00  0.00     0.269 C 
HETATM   29  C   UNL     1      39.735 -11.320   7.112  1.00  0.00     0.269 C 
ENDBRANCH  25  26
ENDBRANCH   7  25
TORSDOF 4
ENDMDL
MODEL 6
REMARK VINA RESULT:      -7.7      2.293      5.573
REMARK  4 active torsions:
REMARK  status: ('A' for Active; 'I' for Inactive)
REMARK    1  A    between atoms: C_5  and  C_6 
REMARK    2  A    between atoms: C_6  and  N_7 
REMARK    3  A    between atoms: C_13  and  C_14 
REMARK    4  A    between atoms: C_14  and  N_15 
ROOT
HETATM    1  N   UNL     1      42.709 -18.078   2.606  1.00  0.00    -0.060 N 
HETATM    2  H   UNL     1      41.738 -18.345   2.425  1.00  0.00     0.280 HD
HETATM    3  C   UNL     1      42.854 -16.610   2.216  1.00  0.00     0.274 C 
HETATM    4  C   UNL     1      41.657 -15.731   2.705  1.00  0.00     0.092 C 
HETATM    5  C   UNL     1      42.000 -14.223   2.610  1.00  0.00     0.041 C 
HETATM    6  C   UNL     1      42.056 -13.683   1.181  1.00  0.00     0.009 C 
HETATM    7  C   UNL     1      40.736 -13.918   0.426  1.00  0.00     0.012 C 
HETATM    8  C   UNL     1      40.410 -15.419   0.438  1.00  0.00     0.009 C 
HETATM    9  C   UNL     1      40.378 -15.986   1.863  1.00  0.00     0.041 C 
HETATM   10  O   UNL     1      41.259 -16.049   4.065  1.00  0.00    -0.338 OA
HETATM   11  C   UNL     1      42.294 -16.091   4.957  1.00  0.00     0.077 A 
HETATM   12  C   UNL     1      43.139 -17.203   4.988  1.00  0.00     0.001 A 
HETATM   13  C   UNL     1      42.884 -18.375   4.093  1.00  0.00     0.276 C 
HETATM   14  C   UNL     1      42.443 -15.044   5.863  1.00  0.00     0.037 A 
HETATM   15  C   UNL     1      43.490 -15.075   6.783  1.00  0.00     0.003 A 
HETATM   16  C   UNL     1      44.364 -16.160   6.807  1.00  0.00     0.001 A 
HETATM   17  C   UNL     1      44.185 -17.226   5.923  1.00  0.00     0.012 A 
ENDROOT
BRANCH   1  18
HETATM   18  C   UNL     1      43.546 -19.002   1.741  1.00  0.00     0.276 C 
BRANCH  18  19
HETATM   19  C   UNL     1      43.953 -20.269   2.395  1.00  0.00     0.004 A 
HETATM   20  C   UNL     1      43.833 -21.572   1.858  1.00  0.00     0.149 A 
HETATM   21  N   UNL     1      44.342 -22.503   2.659  1.00  0.00    -0.185 NA
HETATM   22  N   UNL     1      44.715 -21.827   3.758  1.00  0.00    -0.285 N 
HETATM   23  C   UNL     1      45.251 -22.537   4.896  1.00  0.00     0.179 C 
HETATM   24  C   UNL     1      44.519 -20.477   3.639  1.00  0.00     0.122 A 
ENDBRANCH  18  19
ENDBRANCH   1  18
BRANCH   7  25
HETATM   25  C   UNL     1      40.841 -13.316  -0.993  1.00  0.00     0.238 C 
BRANCH  25  26
HETATM   26  N   UNL     1      41.894 -13.978  -1.855  1.00  0.00    -0.078 N 
HETATM   27  H   UNL     1      42.486 -14.579  -1.269  1.00  0.00     0.278 HD
HETATM   28  C   UNL     1      41.330 -14.848  -2.952  1.00  0.00     0.269 C 
HETATM   29  C   UNL     1      42.831 -12.945  -2.445  1.00  0.00     0.269 C 
ENDBRANCH  25  26
ENDBRANCH   7  25
TORSDOF 4
ENDMDL
MODEL 7
REMARK VINA RESULT:      -7.6      2.320      3.697
REMARK  4 active torsions:
REMARK  status: ('A' for Active; 'I' for Inactive)
REMARK    1  A    between atoms: C_5  and  C_6 
REMARK    2  A    between atoms: C_6  and  N_7 
REMARK    3  A    between atoms: C_13  and  C_14 
REMARK    4  A    between atoms: C_14  and  N_15 
ROOT
HETATM    1  N   UNL     1      41.495 -15.159   4.480  1.00  0.00    -0.060 N 
HETATM    2  H   UNL     1      41.971 -14.254   4.428  1.00  0.00     0.280 HD
HETATM    3  C   UNL     1      41.095 -15.541   3.058  1.00  0.00     0.274 C 
HETATM    4  C   UNL     1      42.228 -15.267   2.014  1.00  0.00     0.092 C 
HETATM    5  C   UNL     1      41.930 -15.983   0.672  1.00  0.00     0.041 C 
HETATM    6  C   UNL     1      40.785 -15.361  -0.128  1.00  0.00     0.009 C 
HETATM    7  C   UNL     1      41.036 -13.873  -0.428  1.00  0.00     0.012 C 
HETATM    8  C   UNL     1      41.257 -13.124   0.894  1.00  0.00     0.009 C 
HETATM    9  C   UNL     1      42.384 -13.750   1.725  1.00  0.00     0.041 C 
HETATM   10  O   UNL     1      43.533 -15.676   2.498  1.00  0.00    -0.338 OA
HETATM   11  C   UNL     1      43.570 -16.943   3.011  1.00  0.00     0.077 A 
HETATM   12  C   UNL     1      43.066 -17.190   4.290  1.00  0.00     0.001 A 
HETATM   13  C   UNL     1      42.538 -16.066   5.127  1.00  0.00     0.276 C 
HETATM   14  C   UNL     1      44.174 -17.952   2.265  1.00  0.00     0.037 A 
HETATM   15  C   UNL     1      44.225 -19.248   2.777  1.00  0.00     0.003 A 
HETATM   16  C   UNL     1      43.696 -19.521   4.037  1.00  0.00     0.001 A 
HETATM   17  C   UNL     1      43.129 -18.496   4.797  1.00  0.00     0.012 A 
ENDROOT
BRANCH   1  18
HETATM   18  C   UNL     1      40.300 -14.933   5.386  1.00  0.00     0.276 C 
BRANCH  18  19
HETATM   19  C   UNL     1      39.776 -13.546   5.391  1.00  0.00     0.004 A 
HETATM   20  C   UNL     1      39.453 -12.769   6.528  1.00  0.00     0.149 A 
HETATM   21  N   UNL     1      39.063 -11.538   6.212  1.00  0.00    -0.185 NA
HETATM   22  N   UNL     1      39.043 -11.531   4.869  1.00  0.00    -0.285 N 
HETATM   23  C   UNL     1      38.586 -10.360   4.159  1.00  0.00     0.179 C 
HETATM   24  C   UNL     1      39.482 -12.710   4.328  1.00  0.00     0.122 A 
ENDBRANCH  18  19
ENDBRANCH   1  18
BRANCH   7  25
HETATM   25  C   UNL     1      39.868 -13.314  -1.271  1.00  0.00     0.238 C 
BRANCH  25  26
HETATM   26  N   UNL     1      38.601 -14.136  -1.169  1.00  0.00    -0.078 N 
HETATM   27  H   UNL     1      38.839 -15.098  -0.900  1.00  0.00     0.278 HD
HETATM   28  C   UNL     1      37.618 -13.622  -0.145  1.00  0.00     0.269 C 
HETATM   29  C   UNL     1      37.926 -14.252  -2.520  1.00  0.00     0.269 C 
ENDBRANCH  25  26
ENDBRANCH   7  25
TORSDOF 4
ENDMDL
MODEL 8
REMARK VINA RESULT:      -7.5      2.776      5.709
REMARK  4 active torsions:
REMARK  status: ('A' for Active; 'I' for Inactive)
REMARK    1  A    between atoms: C_5  and  C_6 
REMARK    2  A    between atoms: C_6  and  N_7 
REMARK    3  A    between atoms: C_13  and  C_14 
REMARK    4  A    between atoms: C_14  and  N_15 
ROOT
HETATM    1  N   UNL     1      40.980 -16.838   3.630  1.00  0.00    -0.060 N 
HETATM    2  H   UNL     1      40.076 -16.771   4.106  1.00  0.00     0.280 HD
HETATM    3  C   UNL     1      41.757 -15.567   3.956  1.00  0.00     0.274 C 
HETATM    4  C   UNL     1      41.651 -15.160   5.463  1.00  0.00     0.092 C 
HETATM    5  C   UNL     1      42.718 -14.097   5.827  1.00  0.00     0.041 C 
HETATM    6  C   UNL     1      42.446 -12.711   5.241  1.00  0.00     0.009 C 
HETATM    7  C   UNL     1      41.069 -12.168   5.665  1.00  0.00     0.012 C 
HETATM    8  C   UNL     1      39.983 -13.170   5.245  1.00  0.00     0.009 C 
HETATM    9  C   UNL     1      40.254 -14.574   5.801  1.00  0.00     0.041 C 
HETATM   10  O   UNL     1      41.786 -16.300   6.351  1.00  0.00    -0.338 OA
HETATM   11  C   UNL     1      42.865 -17.096   6.084  1.00  0.00     0.077 A 
HETATM   12  C   UNL     1      42.819 -17.990   5.012  1.00  0.00     0.001 A 
HETATM   13  C   UNL     1      41.576 -18.126   4.190  1.00  0.00     0.276 C 
HETATM   14  C   UNL     1      43.966 -17.041   6.934  1.00  0.00     0.037 A 
HETATM   15  C   UNL     1      45.072 -17.850   6.678  1.00  0.00     0.003 A 
HETATM   16  C   UNL     1      45.060 -18.725   5.593  1.00  0.00     0.001 A 
HETATM   17  C   UNL     1      43.935 -18.805   4.769  1.00  0.00     0.012 A 
ENDROOT
BRANCH   1  18
HETATM   18  C   UNL     1      40.647 -16.961   2.154  1.00  0.00     0.276 C 
BRANCH  18  19
HETATM   19  C   UNL     1      40.048 -15.748   1.548  1.00  0.00     0.004 A 
HETATM   20  C   UNL     1      40.594 -14.970   0.500  1.00  0.00     0.149 A 
HETATM   21  N   UNL     1      39.792 -13.976   0.131  1.00  0.00    -0.185 NA
HETATM   22  N   UNL     1      38.762 -14.044   0.991  1.00  0.00    -0.285 N 
HETATM   23  C   UNL     1      37.712 -13.054   0.940  1.00  0.00     0.179 C 
HETATM   24  C   UNL     1      38.861 -15.105   1.850  1.00  0.00     0.122 A 
ENDBRANCH  18  19
ENDBRANCH   1  18
BRANCH   7  25
HETATM   25  C   UNL     1      40.871 -10.754   5.077  1.00  0.00     0.238 C 
BRANCH  25  26
HETATM   26  N   UNL     1      39.759 -10.674   4.053  1.00  0.00    -0.078 N 
HETATM   27  H   UNL     1      39.285 -11.583   3.994  1.00  0.00     0.278 HD
HETATM   28  C   UNL     1      38.703  -9.644   4.374  1.00  0.00     0.269 C 
HETATM   29  C   UNL     1      40.321 -10.424   2.668  1.00  0.00     0.269 C 
ENDBRANCH  25  26
ENDBRANCH   7  25
TORSDOF 4
ENDMDL
MODEL 9
REMARK VINA RESULT:      -7.5      2.473      7.670
REMARK  4 active torsions:
REMARK  status: ('A' for Active; 'I' for Inactive)
REMARK    1  A    between atoms: C_5  and  C_6 
REMARK    2  A    between atoms: C_6  and  N_7 
REMARK    3  A    between atoms: C_13  and  C_14 
REMARK    4  A    between atoms: C_14  and  N_15 
ROOT
HETATM    1  N   UNL     1      41.177 -14.716   1.046  1.00  0.00    -0.060 N 
HETATM    2  H   UNL     1      42.104 -14.550   0.644  1.00  0.00     0.280 HD
HETATM    3  C   UNL     1      41.294 -15.931   1.961  1.00  0.00     0.274 C 
HETATM    4  C   UNL     1      42.582 -15.902   2.848  1.00  0.00     0.092 C 
HETATM    5  C   UNL     1      42.490 -16.941   3.994  1.00  0.00     0.041 C 
HETATM    6  C   UNL     1      42.615 -18.394   3.534  1.00  0.00     0.009 C 
HETATM    7  C   UNL     1      43.928 -18.643   2.770  1.00  0.00     0.012 C 
HETATM    8  C   UNL     1      44.008 -17.676   1.580  1.00  0.00     0.009 C 
HETATM    9  C   UNL     1      43.856 -16.214   2.019  1.00  0.00     0.041 C 
HETATM   10  O   UNL     1      42.834 -14.588   3.410  1.00  0.00    -0.338 OA
HETATM   11  C   UNL     1      41.749 -14.020   4.019  1.00  0.00     0.077 A 
HETATM   12  C   UNL     1      40.737 -13.449   3.243  1.00  0.00     0.001 A 
HETATM   13  C   UNL     1      40.861 -13.400   1.751  1.00  0.00     0.276 C 
HETATM   14  C   UNL     1      41.710 -13.967   5.409  1.00  0.00     0.037 A 
HETATM   15  C   UNL     1      40.613 -13.387   6.044  1.00  0.00     0.003 A 
HETATM   16  C   UNL     1      39.578 -12.842   5.288  1.00  0.00     0.001 A 
HETATM   17  C   UNL     1      39.642 -12.861   3.893  1.00  0.00     0.012 A 
ENDROOT
BRANCH   1  18
HETATM   18  C   UNL     1      40.262 -14.959  -0.140  1.00  0.00     0.276 C 
BRANCH  18  19
HETATM   19  C   UNL     1      40.771 -14.446  -1.434  1.00  0.00     0.004 A 
HETATM   20  C   UNL     1      41.012 -15.201  -2.606  1.00  0.00     0.149 A 
HETATM   21  N   UNL     1      41.411 -14.447  -3.626  1.00  0.00    -0.185 NA
HETATM   22  N   UNL     1      41.518 -13.214  -3.105  1.00  0.00    -0.285 N 
HETATM   23  C   UNL     1      42.010 -12.126  -3.918  1.00  0.00     0.179 C 
HETATM   24  C   UNL     1      41.126 -13.159  -1.794  1.00  0.00     0.122 A 
ENDBRANCH  18  19
ENDBRANCH   1  18
BRANCH   7  25
HETATM   25  C   UNL     1      44.013 -20.132   2.368  1.00  0.00     0.238 C 
BRANCH  25  26
HETATM   26  N   UNL     1      44.230 -21.064   3.541  1.00  0.00    -0.078 N 
HETATM   27  H   UNL     1      43.375 -21.101   4.109  1.00  0.00     0.278 HD
HETATM   28  C   UNL     1      44.557 -22.483   3.143  1.00  0.00     0.269 C 
HETATM   29  C   UNL     1      45.303 -20.525   4.464  1.00  0.00     0.269 C 
ENDBRANCH  25  26
ENDBRANCH   7  25
TORSDOF 4
ENDMDL
MODEL 10
REMARK VINA RESULT:      -7.4      2.667      6.636
REMARK  4 active torsions:
REMARK  status: ('A' for Active; 'I' for Inactive)
REMARK    1  A    between atoms: C_5  and  C_6 
REMARK    2  A    between atoms: C_6  and  N_7 
REMARK    3  A    between atoms: C_13  and  C_14 
REMARK    4  A    between atoms: C_14  and  N_15 
ROOT
HETATM    1  N   UNL     1      39.893 -15.553   2.366  1.00  0.00    -0.060 N 
HETATM    2  H   UNL     1      39.137 -15.662   3.049  1.00  0.00     0.280 HD
HETATM    3  C   UNL     1      41.021 -14.796   3.060  1.00  0.00     0.274 C 
HETATM    4  C   UNL     1      41.294 -15.308   4.512  1.00  0.00     0.092 C 
HETATM    5  C   UNL     1      42.649 -14.776   5.043  1.00  0.00     0.041 C 
HETATM    6  C   UNL     1      42.649 -13.282   5.370  1.00  0.00     0.009 C 
HETATM    7  C   UNL     1      41.561 -12.918   6.395  1.00  0.00     0.012 C 
HETATM    8  C   UNL     1      40.194 -13.367   5.857  1.00  0.00     0.009 C 
HETATM    9  C   UNL     1      40.182 -14.858   5.496  1.00  0.00     0.041 C 
HETATM   10  O   UNL     1      41.281 -16.757   4.596  1.00  0.00    -0.338 OA
HETATM   11  C   UNL     1      42.049 -17.381   3.653  1.00  0.00     0.077 A 
HETATM   12  C   UNL     1      41.582 -17.495   2.341  1.00  0.00     0.001 A 
HETATM   13  C   UNL     1      40.221 -16.991   1.974  1.00  0.00     0.276 C 
HETATM   14  C   UNL     1      43.259 -17.950   4.041  1.00  0.00     0.037 A 
HETATM   15  C   UNL     1      44.051 -18.595   3.092  1.00  0.00     0.003 A 
HETATM   16  C   UNL     1      43.618 -18.689   1.771  1.00  0.00     0.001 A 
HETATM   17  C   UNL     1      42.384 -18.153   1.397  1.00  0.00     0.012 A 
ENDROOT
BRANCH   1  18
HETATM   18  C   UNL     1      39.284 -14.775   1.215  1.00  0.00     0.276 C 
BRANCH  18  19
HETATM   19  C   UNL     1      40.265 -14.192   0.269  1.00  0.00     0.004 A 
HETATM   20  C   UNL     1      40.951 -14.874  -0.764  1.00  0.00     0.149 A 
HETATM   21  N   UNL     1      41.722 -14.066  -1.484  1.00  0.00    -0.185 NA
HETATM   22  N   UNL     1      41.615 -12.874  -0.875  1.00  0.00    -0.285 N 
HETATM   23  C   UNL     1      42.389 -11.749  -1.345  1.00  0.00     0.179 C 
HETATM   24  C   UNL     1      40.735 -12.895   0.174  1.00  0.00     0.122 A 
ENDBRANCH  18  19
ENDBRANCH   1  18
BRANCH   7  25
HETATM   25  C   UNL     1      41.639 -11.409   6.714  1.00  0.00     0.238 C 
BRANCH  25  26
HETATM   26  N   UNL     1      41.172 -11.060   8.111  1.00  0.00    -0.078 N 
HETATM   27  H   UNL     1      41.104 -11.918   8.671  1.00  0.00     0.278 HD
HETATM   28  C   UNL     1      42.095 -10.121   8.849  1.00  0.00     0.269 C 
HETATM   29  C   UNL     1      39.769 -10.487   8.080  1.00  0.00     0.269 C 
ENDBRANCH  25  26
ENDBRANCH   7  25
TORSDOF 4
ENDMDL
