MODEL 1
REMARK VINA RESULT:      -8.2      0.000      0.000
REMARK  5 active torsions:
REMARK  status: ('A' for Active; 'I' for Inactive)
REMARK    1  A    between atoms: C_2  and  O_3 
REMARK    2  A    between atoms: O_3  and  C_4 
REMARK    3  A    between atoms: C_5  and  C_6 
REMARK       I    between atoms: C_6  and  N_7 
REMARK    4  A    between atoms: N_7  and  N_8 
REMARK    5  A    between atoms: C_9  and  C_10 
ROOT
HETATM    1  C   UNL     1      44.976 -12.954   8.094  1.00  0.00     0.274 C 
HETATM    2  N   UNL     1      44.086 -13.953   7.735  1.00  0.00    -0.243 N 
HETATM    3  O   UNL     1      46.137 -12.873   7.696  1.00  0.00    -0.266 OA
HETATM    4  H   UNL     1      43.140 -13.938   8.108  1.00  0.00     0.192 HD
ENDROOT
BRANCH   2   5
HETATM    5  N   UNL     1      44.504 -14.988   6.951  1.00  0.00    -0.183 NA
HETATM    6  C   UNL     1      43.720 -16.015   6.904  1.00  0.00     0.152 C 
BRANCH   6   7
HETATM    7  C   UNL     1      44.117 -17.171   6.124  1.00  0.00     0.011 A 
HETATM    8  C   UNL     1      43.603 -17.594   4.856  1.00  0.00     0.005 A 
HETATM    9  C   UNL     1      44.266 -18.774   4.509  1.00  0.00     0.043 A 
HETATM   10  C   UNL     1      42.622 -17.093   3.974  1.00  0.00     0.033 A 
HETATM   11  C   UNL     1      43.999 -19.481   3.330  1.00  0.00     0.031 A 
HETATM   12  N   UNL     1      45.157 -19.052   5.520  1.00  0.00    -0.364 N 
HETATM   13  C   UNL     1      43.023 -18.967   2.473  1.00  0.00     0.021 A 
HETATM   14  C   UNL     1      42.347 -17.792   2.793  1.00  0.00     0.012 A 
HETATM   15 BR   UNL     1      41.026 -17.127   1.611  1.00  0.00    -0.051 Br
HETATM   16  H   UNL     1      45.773 -19.852   5.543  1.00  0.00     0.165 HD
HETATM   17  C   UNL     1      45.072 -18.100   6.496  1.00  0.00     0.102 A 
ENDBRANCH   6   7
ENDBRANCH   2   5
BRANCH   1  18
HETATM   18  C   UNL     1      44.477 -11.957   9.089  1.00  0.00     0.067 A 
HETATM   19  C   UNL     1      43.316 -11.183   8.918  1.00  0.00     0.084 A 
HETATM   20  C   UNL     1      42.902 -10.321   9.944  1.00  0.00     0.038 A 
HETATM   21  C   UNL     1      43.657 -10.193  11.111  1.00  0.00     0.003 A 
HETATM   22  C   UNL     1      44.829 -10.927  11.268  1.00  0.00     0.001 A 
HETATM   23  C   UNL     1      45.235 -11.805  10.264  1.00  0.00     0.020 A 
BRANCH  19  24
HETATM   24  O   UNL     1      42.581 -11.324   7.766  1.00  0.00    -0.350 OA
BRANCH  24  25
HETATM   25  C   UNL     1      41.516 -10.374   7.640  1.00  0.00     0.171 C 
HETATM   26  C   UNL     1      40.211 -11.141   7.524  1.00  0.00     0.034 C 
ENDBRANCH  24  25
ENDBRANCH  19  24
ENDBRANCH   1  18
TORSDOF 5
ENDMDL
MODEL 2
REMARK VINA RESULT:      -7.9      5.456      8.707
REMARK  5 active torsions:
REMARK  status: ('A' for Active; 'I' for Inactive)
REMARK    1  A    between atoms: C_2  and  O_3 
REMARK    2  A    between atoms: O_3  and  C_4 
REMARK    3  A    between atoms: C_5  and  C_6 
REMARK       I    between atoms: C_6  and  N_7 
REMARK    4  A    between atoms: N_7  and  N_8 
REMARK    5  A    between atoms: C_9  and  C_10 
ROOT
HETATM    1  C   UNL     1      43.774 -18.499   2.765  1.00  0.00     0.274 C 
HETATM    2  N   UNL     1      42.798 -17.897   3.543  1.00  0.00    -0.243 N 
HETATM    3  O   UNL     1      44.294 -17.990   1.774  1.00  0.00    -0.266 OA
HETATM    4  H   UNL     1      42.428 -18.390   4.351  1.00  0.00     0.192 HD
ENDROOT
BRANCH   2   5
HETATM    5  N   UNL     1      42.285 -16.688   3.175  1.00  0.00    -0.183 NA
HETATM    6  C   UNL     1      41.017 -16.664   2.926  1.00  0.00     0.152 C 
BRANCH   6   7
HETATM    7  C   UNL     1      40.407 -15.423   2.489  1.00  0.00     0.011 A 
HETATM    8  C   UNL     1      40.316 -14.909   1.156  1.00  0.00     0.005 A 
HETATM    9  C   UNL     1      39.671 -13.672   1.227  1.00  0.00     0.043 A 
HETATM   10  C   UNL     1      40.737 -15.372  -0.110  1.00  0.00     0.033 A 
HETATM   11  C   UNL     1      39.426 -12.873   0.104  1.00  0.00     0.031 A 
HETATM   12  N   UNL     1      39.370 -13.446   2.551  1.00  0.00    -0.364 N 
HETATM   13  C   UNL     1      39.853 -13.352  -1.138  1.00  0.00     0.021 A 
HETATM   14  C   UNL     1      40.498 -14.582  -1.239  1.00  0.00     0.012 A 
HETATM   15 BR   UNL     1      41.068 -15.196  -2.936  1.00  0.00    -0.051 Br
HETATM   16  H   UNL     1      38.903 -12.623   2.904  1.00  0.00     0.165 HD
HETATM   17  C   UNL     1      39.811 -14.488   3.316  1.00  0.00     0.102 A 
ENDBRANCH   6   7
ENDBRANCH   2   5
BRANCH   1  18
HETATM   18  C   UNL     1      44.152 -19.893   3.150  1.00  0.00     0.067 A 
HETATM   19  C   UNL     1      44.595 -20.267   4.430  1.00  0.00     0.084 A 
HETATM   20  C   UNL     1      44.863 -21.617   4.703  1.00  0.00     0.038 A 
HETATM   21  C   UNL     1      44.738 -22.581   3.702  1.00  0.00     0.003 A 
HETATM   22  C   UNL     1      44.338 -22.210   2.422  1.00  0.00     0.001 A 
HETATM   23  C   UNL     1      44.046 -20.875   2.148  1.00  0.00     0.020 A 
BRANCH  19  24
HETATM   24  O   UNL     1      44.709 -19.307   5.406  1.00  0.00    -0.350 OA
BRANCH  24  25
HETATM   25  C   UNL     1      43.943 -19.587   6.585  1.00  0.00     0.171 C 
HETATM   26  C   UNL     1      44.223 -18.495   7.601  1.00  0.00     0.034 C 
ENDBRANCH  24  25
ENDBRANCH  19  24
ENDBRANCH   1  18
TORSDOF 5
ENDMDL
MODEL 3
REMARK VINA RESULT:      -7.8      5.098      8.954
REMARK  5 active torsions:
REMARK  status: ('A' for Active; 'I' for Inactive)
REMARK    1  A    between atoms: C_2  and  O_3 
REMARK    2  A    between atoms: O_3  and  C_4 
REMARK    3  A    between atoms: C_5  and  C_6 
REMARK       I    between atoms: C_6  and  N_7 
REMARK    4  A    between atoms: N_7  and  N_8 
REMARK    5  A    between atoms: C_9  and  C_10 
ROOT
HETATM    1  C   UNL     1      43.567 -18.182   2.533  1.00  0.00     0.274 C 
HETATM    2  N   UNL     1      42.541 -17.663   3.304  1.00  0.00    -0.243 N 
HETATM    3  O   UNL     1      44.127 -17.584   1.615  1.00  0.00    -0.266 OA
HETATM    4  H   UNL     1      42.140 -18.227   4.049  1.00  0.00     0.192 HD
ENDROOT
BRANCH   2   5
HETATM    5  N   UNL     1      42.022 -16.435   3.010  1.00  0.00    -0.183 NA
HETATM    6  C   UNL     1      40.782 -16.418   2.648  1.00  0.00     0.152 C 
BRANCH   6   7
HETATM    7  C   UNL     1      40.172 -15.155   2.280  1.00  0.00     0.011 A 
HETATM    8  C   UNL     1      39.808 -14.071   3.142  1.00  0.00     0.005 A 
HETATM    9  C   UNL     1      39.227 -13.080   2.346  1.00  0.00     0.043 A 
HETATM   10  C   UNL     1      39.901 -13.843   4.532  1.00  0.00     0.033 A 
HETATM   11  C   UNL     1      38.734 -11.876   2.864  1.00  0.00     0.031 A 
HETATM   12  N   UNL     1      39.249 -13.538   1.048  1.00  0.00    -0.364 N 
HETATM   13  C   UNL     1      38.836 -11.674   4.243  1.00  0.00     0.021 A 
HETATM   14  C   UNL     1      39.411 -12.643   5.061  1.00  0.00     0.012 A 
HETATM   15 BR   UNL     1      39.527 -12.337   6.925  1.00  0.00    -0.051 Br
HETATM   16  H   UNL     1      38.889 -13.031   0.252  1.00  0.00     0.165 HD
HETATM   17  C   UNL     1      39.808 -14.782   0.999  1.00  0.00     0.102 A 
ENDBRANCH   6   7
ENDBRANCH   2   5
BRANCH   1  18
HETATM   18  C   UNL     1      43.954 -19.597   2.821  1.00  0.00     0.067 A 
HETATM   19  C   UNL     1      44.549 -20.024   4.020  1.00  0.00     0.084 A 
HETATM   20  C   UNL     1      44.814 -21.389   4.213  1.00  0.00     0.038 A 
HETATM   21  C   UNL     1      44.533 -22.315   3.207  1.00  0.00     0.003 A 
HETATM   22  C   UNL     1      43.980 -21.891   2.003  1.00  0.00     0.001 A 
HETATM   23  C   UNL     1      43.691 -20.540   1.812  1.00  0.00     0.020 A 
BRANCH  19  24
HETATM   24  O   UNL     1      44.815 -19.101   5.002  1.00  0.00    -0.350 OA
BRANCH  24  25
HETATM   25  C   UNL     1      44.146 -19.367   6.242  1.00  0.00     0.171 C 
HETATM   26  C   UNL     1      44.617 -18.344   7.260  1.00  0.00     0.034 C 
ENDBRANCH  24  25
ENDBRANCH  19  24
ENDBRANCH   1  18
TORSDOF 5
ENDMDL
MODEL 4
REMARK VINA RESULT:      -7.8      4.517      8.557
REMARK  5 active torsions:
REMARK  status: ('A' for Active; 'I' for Inactive)
REMARK    1  A    between atoms: C_2  and  O_3 
REMARK    2  A    between atoms: O_3  and  C_4 
REMARK    3  A    between atoms: C_5  and  C_6 
REMARK       I    between atoms: C_6  and  N_7 
REMARK    4  A    between atoms: N_7  and  N_8 
REMARK    5  A    between atoms: C_9  and  C_10 
ROOT
HETATM    1  C   UNL     1      43.601 -17.843   3.005  1.00  0.00     0.274 C 
HETATM    2  N   UNL     1      42.676 -17.437   3.953  1.00  0.00    -0.243 N 
HETATM    3  O   UNL     1      44.117 -17.105   2.167  1.00  0.00    -0.266 OA
HETATM    4  H   UNL     1      42.306 -18.115   4.613  1.00  0.00     0.192 HD
ENDROOT
BRANCH   2   5
HETATM    5  N   UNL     1      42.212 -16.154   3.945  1.00  0.00    -0.183 NA
HETATM    6  C   UNL     1      41.206 -15.912   4.720  1.00  0.00     0.152 C 
BRANCH   6   7
HETATM    7  C   UNL     1      40.631 -14.581   4.735  1.00  0.00     0.011 A 
HETATM    8  C   UNL     1      39.879 -13.936   3.701  1.00  0.00     0.005 A 
HETATM    9  C   UNL     1      39.559 -12.654   4.153  1.00  0.00     0.043 A 
HETATM   10  C   UNL     1      39.451 -14.317   2.410  1.00  0.00     0.033 A 
HETATM   11  C   UNL     1      38.837 -11.731   3.385  1.00  0.00     0.031 A 
HETATM   12  N   UNL     1      40.086 -12.526   5.418  1.00  0.00    -0.364 N 
HETATM   13  C   UNL     1      38.426 -12.130   2.111  1.00  0.00     0.021 A 
HETATM   14  C   UNL     1      38.729 -13.403   1.634  1.00  0.00     0.012 A 
HETATM   15 BR   UNL     1      38.161 -13.907  -0.099  1.00  0.00    -0.051 Br
HETATM   16  H   UNL     1      40.014 -11.698   5.992  1.00  0.00     0.165 HD
HETATM   17  C   UNL     1      40.734 -13.674   5.774  1.00  0.00     0.102 A 
ENDBRANCH   6   7
ENDBRANCH   2   5
BRANCH   1  18
HETATM   18  C   UNL     1      43.922 -19.303   2.985  1.00  0.00     0.067 A 
HETATM   19  C   UNL     1      44.559 -19.985   4.035  1.00  0.00     0.084 A 
HETATM   20  C   UNL     1      44.757 -21.371   3.941  1.00  0.00     0.038 A 
HETATM   21  C   UNL     1      44.367 -22.066   2.794  1.00  0.00     0.003 A 
HETATM   22  C   UNL     1      43.772 -21.388   1.736  1.00  0.00     0.001 A 
HETATM   23  C   UNL     1      43.550 -20.015   1.831  1.00  0.00     0.020 A 
BRANCH  19  24
HETATM   24  O   UNL     1      44.933 -19.288   5.158  1.00  0.00    -0.350 OA
BRANCH  24  25
HETATM   25  C   UNL     1      44.187 -19.639   6.331  1.00  0.00     0.171 C 
HETATM   26  C   UNL     1      44.340 -18.517   7.341  1.00  0.00     0.034 C 
ENDBRANCH  24  25
ENDBRANCH  19  24
ENDBRANCH   1  18
TORSDOF 5
ENDMDL
MODEL 5
REMARK VINA RESULT:      -7.6      5.959      8.164
REMARK  5 active torsions:
REMARK  status: ('A' for Active; 'I' for Inactive)
REMARK    1  A    between atoms: C_2  and  O_3 
REMARK    2  A    between atoms: O_3  and  C_4 
REMARK    3  A    between atoms: C_5  and  C_6 
REMARK       I    between atoms: C_6  and  N_7 
REMARK    4  A    between atoms: N_7  and  N_8 
REMARK    5  A    between atoms: C_9  and  C_10 
ROOT
HETATM    1  C   UNL     1      40.024 -15.449   1.597  1.00  0.00     0.274 C 
HETATM    2  N   UNL     1      40.608 -16.487   0.890  1.00  0.00    -0.243 N 
HETATM    3  O   UNL     1      40.042 -15.337   2.822  1.00  0.00    -0.266 OA
HETATM    4  H   UNL     1      40.549 -16.496  -0.125  1.00  0.00     0.192 HD
ENDROOT
BRANCH   2   5
HETATM    5  N   UNL     1      41.186 -17.526   1.559  1.00  0.00    -0.183 NA
HETATM    6  C   UNL     1      42.454 -17.416   1.786  1.00  0.00     0.152 C 
BRANCH   6   7
HETATM    7  C   UNL     1      43.147 -18.498   2.457  1.00  0.00     0.011 A 
HETATM    8  C   UNL     1      43.419 -18.634   3.857  1.00  0.00     0.005 A 
HETATM    9  C   UNL     1      44.135 -19.822   4.030  1.00  0.00     0.043 A 
HETATM   10  C   UNL     1      43.138 -17.850   4.996  1.00  0.00     0.033 A 
HETATM   11  C   UNL     1      44.586 -20.265   5.279  1.00  0.00     0.031 A 
HETATM   12  N   UNL     1      44.282 -20.392   2.787  1.00  0.00    -0.364 N 
HETATM   13  C   UNL     1      44.297 -19.471   6.392  1.00  0.00     0.021 A 
HETATM   14  C   UNL     1      43.585 -18.283   6.249  1.00  0.00     0.012 A 
HETATM   15 BR   UNL     1      43.216 -17.230   7.778  1.00  0.00    -0.051 Br
HETATM   16  H   UNL     1      44.765 -21.261   2.604  1.00  0.00     0.165 HD
HETATM   17  C   UNL     1      43.698 -19.605   1.837  1.00  0.00     0.102 A 
ENDBRANCH   6   7
ENDBRANCH   2   5
BRANCH   1  18
HETATM   18  C   UNL     1      39.269 -14.446   0.786  1.00  0.00     0.067 A 
HETATM   19  C   UNL     1      39.721 -13.914  -0.434  1.00  0.00     0.084 A 
HETATM   20  C   UNL     1      38.903 -13.025  -1.147  1.00  0.00     0.038 A 
HETATM   21  C   UNL     1      37.667 -12.630  -0.632  1.00  0.00     0.003 A 
HETATM   22  C   UNL     1      37.233 -13.123   0.595  1.00  0.00     0.001 A 
HETATM   23  C   UNL     1      38.028 -14.026   1.299  1.00  0.00     0.020 A 
BRANCH  19  24
HETATM   24  O   UNL     1      40.937 -14.317  -0.929  1.00  0.00    -0.350 OA
BRANCH  24  25
HETATM   25  C   UNL     1      41.039 -14.225  -2.356  1.00  0.00     0.171 C 
HETATM   26  C   UNL     1      41.007 -15.632  -2.923  1.00  0.00     0.034 C 
ENDBRANCH  24  25
ENDBRANCH  19  24
ENDBRANCH   1  18
TORSDOF 5
ENDMDL
MODEL 6
REMARK VINA RESULT:      -7.5      5.670      9.072
REMARK  5 active torsions:
REMARK  status: ('A' for Active; 'I' for Inactive)
REMARK    1  A    between atoms: C_2  and  O_3 
REMARK    2  A    between atoms: O_3  and  C_4 
REMARK    3  A    between atoms: C_5  and  C_6 
REMARK       I    between atoms: C_6  and  N_7 
REMARK    4  A    between atoms: N_7  and  N_8 
REMARK    5  A    between atoms: C_9  and  C_10 
ROOT
HETATM    1  C   UNL     1      43.107 -18.006   2.032  1.00  0.00     0.274 C 
HETATM    2  N   UNL     1      42.181 -17.423   2.881  1.00  0.00    -0.243 N 
HETATM    3  O   UNL     1      43.458 -17.539   0.949  1.00  0.00    -0.266 OA
HETATM    4  H   UNL     1      41.956 -17.877   3.762  1.00  0.00     0.192 HD
ENDROOT
BRANCH   2   5
HETATM    5  N   UNL     1      41.523 -16.292   2.496  1.00  0.00    -0.183 NA
HETATM    6  C   UNL     1      40.442 -16.473   1.810  1.00  0.00     0.152 C 
BRANCH   6   7
HETATM    7  C   UNL     1      39.709 -15.318   1.330  1.00  0.00     0.011 A 
HETATM    8  C   UNL     1      40.092 -14.398   0.302  1.00  0.00     0.005 A 
HETATM    9  C   UNL     1      39.087 -13.433   0.207  1.00  0.00     0.043 A 
HETATM   10  C   UNL     1      41.212 -14.284  -0.551  1.00  0.00     0.033 A 
HETATM   11  C   UNL     1      39.140 -12.360  -0.691  1.00  0.00     0.031 A 
HETATM   12  N   UNL     1      38.123 -13.759   1.134  1.00  0.00    -0.364 N 
HETATM   13  C   UNL     1      40.258 -12.267  -1.523  1.00  0.00     0.021 A 
HETATM   14  C   UNL     1      41.276 -13.216  -1.452  1.00  0.00     0.012 A 
HETATM   15 BR   UNL     1      42.778 -13.055  -2.592  1.00  0.00    -0.051 Br
HETATM   16  H   UNL     1      37.276 -13.233   1.295  1.00  0.00     0.165 HD
HETATM   17  C   UNL     1      38.489 -14.884   1.816  1.00  0.00     0.102 A 
ENDBRANCH   6   7
ENDBRANCH   2   5
BRANCH   1  18
HETATM   18  C   UNL     1      43.651 -19.330   2.463  1.00  0.00     0.067 A 
HETATM   19  C   UNL     1      44.333 -19.548   3.672  1.00  0.00     0.084 A 
HETATM   20  C   UNL     1      44.747 -20.845   4.010  1.00  0.00     0.038 A 
HETATM   21  C   UNL     1      44.527 -21.910   3.134  1.00  0.00     0.003 A 
HETATM   22  C   UNL     1      43.887 -21.692   1.918  1.00  0.00     0.001 A 
HETATM   23  C   UNL     1      43.451 -20.411   1.585  1.00  0.00     0.020 A 
BRANCH  19  24
HETATM   24  O   UNL     1      44.538 -18.491   4.525  1.00  0.00    -0.350 OA
BRANCH  24  25
HETATM   25  C   UNL     1      44.288 -18.803   5.902  1.00  0.00     0.171 C 
HETATM   26  C   UNL     1      45.274 -18.019   6.749  1.00  0.00     0.034 C 
ENDBRANCH  24  25
ENDBRANCH  19  24
ENDBRANCH   1  18
TORSDOF 5
ENDMDL
MODEL 7
REMARK VINA RESULT:      -7.5      6.211      9.279
REMARK  5 active torsions:
REMARK  status: ('A' for Active; 'I' for Inactive)
REMARK    1  A    between atoms: C_2  and  O_3 
REMARK    2  A    between atoms: O_3  and  C_4 
REMARK    3  A    between atoms: C_5  and  C_6 
REMARK       I    between atoms: C_6  and  N_7 
REMARK    4  A    between atoms: N_7  and  N_8 
REMARK    5  A    between atoms: C_9  and  C_10 
ROOT
HETATM    1  C   UNL     1      43.350 -17.357   1.969  1.00  0.00     0.274 C 
HETATM    2  N   UNL     1      42.093 -17.063   1.467  1.00  0.00    -0.243 N 
HETATM    3  O   UNL     1      44.407 -17.166   1.371  1.00  0.00    -0.266 OA
HETATM    4  H   UNL     1      41.271 -17.249   2.036  1.00  0.00     0.192 HD
ENDROOT
BRANCH   2   5
HETATM    5  N   UNL     1      41.961 -16.601   0.190  1.00  0.00    -0.183 NA
HETATM    6  C   UNL     1      41.593 -15.368   0.070  1.00  0.00     0.152 C 
BRANCH   6   7
HETATM    7  C   UNL     1      41.392 -14.817  -1.256  1.00  0.00     0.011 A 
HETATM    8  C   UNL     1      41.817 -13.543  -1.753  1.00  0.00     0.005 A 
HETATM    9  C   UNL     1      41.374 -13.439  -3.073  1.00  0.00     0.043 A 
HETATM   10  C   UNL     1      42.525 -12.456  -1.197  1.00  0.00     0.033 A 
HETATM   11  C   UNL     1      41.599 -12.309  -3.868  1.00  0.00     0.031 A 
HETATM   12  N   UNL     1      40.716 -14.610  -3.374  1.00  0.00    -0.364 N 
HETATM   13  C   UNL     1      42.300 -11.244  -3.296  1.00  0.00     0.021 A 
HETATM   14  C   UNL     1      42.755 -11.320  -1.982  1.00  0.00     0.012 A 
HETATM   15 BR   UNL     1      43.698  -9.857  -1.238  1.00  0.00    -0.051 Br
HETATM   16  H   UNL     1      40.283 -14.817  -4.263  1.00  0.00     0.165 HD
HETATM   17  C   UNL     1      40.717 -15.441  -2.290  1.00  0.00     0.102 A 
ENDBRANCH   6   7
ENDBRANCH   2   5
BRANCH   1  18
HETATM   18  C   UNL     1      43.383 -18.016   3.311  1.00  0.00     0.067 A 
HETATM   19  C   UNL     1      44.083 -19.201   3.593  1.00  0.00     0.084 A 
HETATM   20  C   UNL     1      44.100 -19.700   4.904  1.00  0.00     0.038 A 
HETATM   21  C   UNL     1      43.390 -19.054   5.918  1.00  0.00     0.003 A 
HETATM   22  C   UNL     1      42.664 -17.901   5.635  1.00  0.00     0.001 A 
HETATM   23  C   UNL     1      42.661 -17.385   4.340  1.00  0.00     0.020 A 
BRANCH  19  24
HETATM   24  O   UNL     1      44.780 -19.823   2.585  1.00  0.00    -0.350 OA
BRANCH  24  25
HETATM   25  C   UNL     1      44.678 -21.252   2.609  1.00  0.00     0.171 C 
HETATM   26  C   UNL     1      43.518 -21.657   1.717  1.00  0.00     0.034 C 
ENDBRANCH  24  25
ENDBRANCH  19  24
ENDBRANCH   1  18
TORSDOF 5
ENDMDL
MODEL 8
REMARK VINA RESULT:      -7.5      5.200      8.259
REMARK  5 active torsions:
REMARK  status: ('A' for Active; 'I' for Inactive)
REMARK    1  A    between atoms: C_2  and  O_3 
REMARK    2  A    between atoms: O_3  and  C_4 
REMARK    3  A    between atoms: C_5  and  C_6 
REMARK       I    between atoms: C_6  and  N_7 
REMARK    4  A    between atoms: N_7  and  N_8 
REMARK    5  A    between atoms: C_9  and  C_10 
ROOT
HETATM    1  C   UNL     1      41.339 -15.783  -0.002  1.00  0.00     0.274 C 
HETATM    2  N   UNL     1      42.169 -15.115   0.883  1.00  0.00    -0.243 N 
HETATM    3  O   UNL     1      41.125 -16.994   0.013  1.00  0.00    -0.266 OA
HETATM    4  H   UNL     1      42.282 -14.108   0.801  1.00  0.00     0.192 HD
ENDROOT
BRANCH   2   5
HETATM    5  N   UNL     1      42.888 -15.820   1.804  1.00  0.00    -0.183 NA
HETATM    6  C   UNL     1      42.316 -16.002   2.949  1.00  0.00     0.152 C 
BRANCH   6   7
HETATM    7  C   UNL     1      43.034 -16.706   3.993  1.00  0.00     0.011 A 
HETATM    8  C   UNL     1      43.567 -18.035   3.950  1.00  0.00     0.005 A 
HETATM    9  C   UNL     1      44.148 -18.293   5.195  1.00  0.00     0.043 A 
HETATM   10  C   UNL     1      43.597 -19.054   2.974  1.00  0.00     0.033 A 
HETATM   11  C   UNL     1      44.754 -19.513   5.516  1.00  0.00     0.031 A 
HETATM   12  N   UNL     1      43.986 -17.161   5.961  1.00  0.00    -0.364 N 
HETATM   13  C   UNL     1      44.770 -20.507   4.534  1.00  0.00     0.021 A 
HETATM   14  C   UNL     1      44.200 -20.278   3.284  1.00  0.00     0.012 A 
HETATM   15 BR   UNL     1      44.235 -21.649   1.980  1.00  0.00    -0.051 Br
HETATM   16  H   UNL     1      44.305 -17.059   6.914  1.00  0.00     0.165 HD
HETATM   17  C   UNL     1      43.315 -16.206   5.251  1.00  0.00     0.102 A 
ENDBRANCH   6   7
ENDBRANCH   2   5
BRANCH   1  18
HETATM   18  C   UNL     1      40.725 -14.949  -1.081  1.00  0.00     0.067 A 
HETATM   19  C   UNL     1      39.946 -13.803  -0.847  1.00  0.00     0.084 A 
HETATM   20  C   UNL     1      39.470 -13.056  -1.936  1.00  0.00     0.038 A 
HETATM   21  C   UNL     1      39.725 -13.469  -3.245  1.00  0.00     0.003 A 
HETATM   22  C   UNL     1      40.463 -14.625  -3.480  1.00  0.00     0.001 A 
HETATM   23  C   UNL     1      40.960 -15.360  -2.406  1.00  0.00     0.020 A 
BRANCH  19  24
HETATM   24  O   UNL     1      39.708 -13.408   0.447  1.00  0.00    -0.350 OA
BRANCH  24  25
HETATM   25  C   UNL     1      38.365 -12.962   0.676  1.00  0.00     0.171 C 
HETATM   26  C   UNL     1      37.483 -14.186   0.842  1.00  0.00     0.034 C 
ENDBRANCH  24  25
ENDBRANCH  19  24
ENDBRANCH   1  18
TORSDOF 5
ENDMDL
MODEL 9
REMARK VINA RESULT:      -7.3      5.342      8.448
REMARK  5 active torsions:
REMARK  status: ('A' for Active; 'I' for Inactive)
REMARK    1  A    between atoms: C_2  and  O_3 
REMARK    2  A    between atoms: O_3  and  C_4 
REMARK    3  A    between atoms: C_5  and  C_6 
REMARK       I    between atoms: C_6  and  N_7 
REMARK    4  A    between atoms: N_7  and  N_8 
REMARK    5  A    between atoms: C_9  and  C_10 
ROOT
HETATM    1  C   UNL     1      41.823 -17.470   4.060  1.00  0.00     0.274 C 
HETATM    2  N   UNL     1      41.996 -17.184   2.716  1.00  0.00    -0.243 N 
HETATM    3  O   UNL     1      40.750 -17.411   4.658  1.00  0.00    -0.266 OA
HETATM    4  H   UNL     1      42.920 -17.266   2.302  1.00  0.00     0.192 HD
ENDROOT
BRANCH   2   5
HETATM    5  N   UNL     1      40.945 -16.720   1.979  1.00  0.00    -0.183 NA
HETATM    6  C   UNL     1      40.861 -15.435   1.862  1.00  0.00     0.152 C 
BRANCH   6   7
HETATM    7  C   UNL     1      39.749 -14.865   1.127  1.00  0.00     0.011 A 
HETATM    8  C   UNL     1      39.784 -14.183  -0.132  1.00  0.00     0.005 A 
HETATM    9  C   UNL     1      38.478 -13.787  -0.430  1.00  0.00     0.043 A 
HETATM   10  C   UNL     1      40.810 -13.848  -1.043  1.00  0.00     0.033 A 
HETATM   11  C   UNL     1      38.142 -13.074  -1.587  1.00  0.00     0.031 A 
HETATM   12  N   UNL     1      37.677 -14.222   0.601  1.00  0.00    -0.364 N 
HETATM   13  C   UNL     1      39.174 -12.752  -2.472  1.00  0.00     0.021 A 
HETATM   14  C   UNL     1      40.485 -13.135  -2.202  1.00  0.00     0.012 A 
HETATM   15 BR   UNL     1      41.858 -12.677  -3.422  1.00  0.00    -0.051 Br
HETATM   16  H   UNL     1      36.679 -14.074   0.659  1.00  0.00     0.165 HD
HETATM   17  C   UNL     1      38.430 -14.865   1.542  1.00  0.00     0.102 A 
ENDBRANCH   6   7
ENDBRANCH   2   5
BRANCH   1  18
HETATM   18  C   UNL     1      43.063 -17.809   4.824  1.00  0.00     0.067 A 
HETATM   19  C   UNL     1      43.933 -18.861   4.490  1.00  0.00     0.084 A 
HETATM   20  C   UNL     1      45.106 -19.052   5.237  1.00  0.00     0.038 A 
HETATM   21  C   UNL     1      45.389 -18.236   6.334  1.00  0.00     0.003 A 
HETATM   22  C   UNL     1      44.510 -17.219   6.692  1.00  0.00     0.001 A 
HETATM   23  C   UNL     1      43.355 -17.006   5.941  1.00  0.00     0.020 A 
BRANCH  19  24
HETATM   24  O   UNL     1      43.643 -19.652   3.405  1.00  0.00    -0.350 OA
BRANCH  24  25
HETATM   25  C   UNL     1      44.729 -20.494   2.997  1.00  0.00     0.171 C 
HETATM   26  C   UNL     1      44.173 -21.568   2.079  1.00  0.00     0.034 C 
ENDBRANCH  24  25
ENDBRANCH  19  24
ENDBRANCH   1  18
TORSDOF 5
ENDMDL
MODEL 10
REMARK VINA RESULT:      -7.2      5.850      8.595
REMARK  5 active torsions:
REMARK  status: ('A' for Active; 'I' for Inactive)
REMARK    1  A    between atoms: C_2  and  O_3 
REMARK    2  A    between atoms: O_3  and  C_4 
REMARK    3  A    between atoms: C_5  and  C_6 
REMARK       I    between atoms: C_6  and  N_7 
REMARK    4  A    between atoms: N_7  and  N_8 
REMARK    5  A    between atoms: C_9  and  C_10 
ROOT
HETATM    1  C   UNL     1      43.474 -17.267   1.886  1.00  0.00     0.274 C 
HETATM    2  N   UNL     1      42.187 -17.005   1.447  1.00  0.00    -0.243 N 
HETATM    3  O   UNL     1      44.496 -17.042   1.238  1.00  0.00    -0.266 OA
HETATM    4  H   UNL     1      41.399 -17.217   2.053  1.00  0.00     0.192 HD
ENDROOT
BRANCH   2   5
HETATM    5  N   UNL     1      41.981 -16.541   0.180  1.00  0.00    -0.183 NA
HETATM    6  C   UNL     1      41.733 -15.277   0.074  1.00  0.00     0.152 C 
BRANCH   6   7
HETATM    7  C   UNL     1      41.464 -14.718  -1.236  1.00  0.00     0.011 A 
HETATM    8  C   UNL     1      41.859 -13.439  -1.744  1.00  0.00     0.005 A 
HETATM    9  C   UNL     1      41.349 -13.327  -3.040  1.00  0.00     0.043 A 
HETATM   10  C   UNL     1      42.590 -12.352  -1.217  1.00  0.00     0.033 A 
HETATM   11  C   UNL     1      41.529 -12.190  -3.836  1.00  0.00     0.031 A 
HETATM   12  N   UNL     1      40.680 -14.498  -3.315  1.00  0.00    -0.364 N 
HETATM   13  C   UNL     1      42.255 -11.127  -3.293  1.00  0.00     0.021 A 
HETATM   14  C   UNL     1      42.776 -11.210  -2.004  1.00  0.00     0.012 A 
HETATM   15 BR   UNL     1      43.750  -9.749  -1.299  1.00  0.00    -0.051 Br
HETATM   16  H   UNL     1      40.204 -14.701  -4.183  1.00  0.00     0.165 HD
HETATM   17  C   UNL     1      40.739 -15.336  -2.238  1.00  0.00     0.102 A 
ENDBRANCH   6   7
ENDBRANCH   2   5
BRANCH   1  18
HETATM   18  C   UNL     1      43.590 -17.930   3.220  1.00  0.00     0.067 A 
HETATM   19  C   UNL     1      43.110 -17.379   4.421  1.00  0.00     0.084 A 
HETATM   20  C   UNL     1      43.214 -18.115   5.610  1.00  0.00     0.038 A 
HETATM   21  C   UNL     1      43.830 -19.368   5.618  1.00  0.00     0.003 A 
HETATM   22  C   UNL     1      44.342 -19.901   4.439  1.00  0.00     0.001 A 
HETATM   23  C   UNL     1      44.222 -19.187   3.247  1.00  0.00     0.020 A 
BRANCH  19  24
HETATM   24  O   UNL     1      42.502 -16.147   4.396  1.00  0.00    -0.350 OA
BRANCH  24  25
HETATM   25  C   UNL     1      41.099 -16.190   4.684  1.00  0.00     0.171 C 
HETATM   26  C   UNL     1      40.837 -15.302   5.887  1.00  0.00     0.034 C 
ENDBRANCH  24  25
ENDBRANCH  19  24
ENDBRANCH   1  18
TORSDOF 5
ENDMDL
