MODEL 1
REMARK VINA RESULT:      -9.4      0.000      0.000
REMARK  4 active torsions:
REMARK  status: ('A' for Active; 'I' for Inactive)
REMARK    1  A    between atoms: C_6  and  C_7 
REMARK    2  A    between atoms: C_14  and  C_15 
REMARK       I    between atoms: C_15  and  N_16 
REMARK    3  A    between atoms: N_16  and  N_17 
REMARK       I    between atoms: N_17  and  C_18 
REMARK       I    between atoms: C_18  and  N_19 
REMARK    4  A    between atoms: N_19  and  C_20 
ROOT
HETATM    1  C   UNL     1      41.618 -17.489   1.254  1.00  0.00     0.271 C 
HETATM    2  N   UNL     1      42.146 -16.648   0.301  1.00  0.00    -0.262 N 
HETATM    3  O   UNL     1      40.517 -18.019   1.156  1.00  0.00    -0.266 OA
HETATM    4  H   UNL     1      43.063 -16.205   0.359  1.00  0.00     0.190 HD
ENDROOT
BRANCH   1   5
HETATM    5  C   UNL     1      42.487 -17.713   2.432  1.00  0.00     0.048 A 
HETATM    6  C   UNL     1      43.162 -18.937   2.618  1.00  0.00     0.009 A 
HETATM    7  C   UNL     1      43.085 -20.054   1.746  1.00  0.00     0.015 A 
HETATM    8  C   UNL     1      43.987 -19.015   3.754  1.00  0.00     0.068 A 
HETATM    9  C   UNL     1      43.810 -21.217   2.002  1.00  0.00     0.001 A 
HETATM   10  C   UNL     1      44.620 -21.282   3.126  1.00  0.00     0.002 A 
HETATM   11  C   UNL     1      44.699 -20.184   3.985  1.00  0.00     0.032 A 
HETATM   12  N   UNL     1      44.127 -18.000   4.625  1.00  0.00    -0.248 NA
HETATM   13  C   UNL     1      43.449 -16.840   4.440  1.00  0.00     0.070 A 
HETATM   14  C   UNL     1      42.623 -16.662   3.343  1.00  0.00     0.050 A 
BRANCH  13  15
HETATM   15  C   UNL     1      43.677 -15.803   5.463  1.00  0.00     0.010 A 
HETATM   16  C   UNL     1      44.231 -16.077   6.715  1.00  0.00     0.130 A 
HETATM   17  N   UNL     1      44.445 -15.163   7.695  1.00  0.00    -0.272 NA
HETATM   18  C   UNL     1      44.102 -13.889   7.418  1.00  0.00     0.116 A 
HETATM   19  C   UNL     1      43.558 -13.490   6.211  1.00  0.00     0.020 A 
HETATM   20  C   UNL     1      43.349 -14.457   5.231  1.00  0.00     0.017 A 
ENDBRANCH  13  15
ENDBRANCH   1   5
BRANCH   2  21
HETATM   21  N   UNL     1      41.401 -16.386  -0.857  1.00  0.00    -0.249 N 
HETATM   22  C   UNL     1      40.903 -15.099  -0.994  1.00  0.00     0.339 C 
HETATM   23  N   UNL     1      40.133 -14.971  -2.129  1.00  0.00    -0.308 N 
HETATM   24  O   UNL     1      41.192 -14.216  -0.192  1.00  0.00    -0.245 OA
HETATM   25  H   UNL     1      40.156 -15.762  -2.757  1.00  0.00     0.170 HD
HETATM   26  H   UNL     1      40.856 -17.179  -1.192  1.00  0.00     0.192 HD
BRANCH  23  27
HETATM   27  C   UNL     1      39.470 -13.814  -2.586  1.00  0.00     0.038 A 
HETATM   28  C   UNL     1      40.047 -12.870  -3.439  1.00  0.00     0.055 A 
HETATM   29  C   UNL     1      39.319 -11.749  -3.860  1.00  0.00     0.058 A 
HETATM   30 CL   UNL     1      40.103 -10.628  -4.918  1.00  0.00    -0.082 Cl
HETATM   31  C   UNL     1      38.003 -11.564  -3.424  1.00  0.00     0.055 A 
HETATM   32 CL   UNL     1      37.043 -10.213  -3.906  1.00  0.00    -0.083 Cl
HETATM   33  C   UNL     1      37.426 -12.498  -2.563  1.00  0.00     0.028 A 
HETATM   34  C   UNL     1      38.157 -13.614  -2.144  1.00  0.00     0.031 A 
ENDBRANCH  23  27
ENDBRANCH   2  21
TORSDOF 4
ENDMDL
MODEL 2
REMARK VINA RESULT:      -9.1      4.668     10.383
REMARK  4 active torsions:
REMARK  status: ('A' for Active; 'I' for Inactive)
REMARK    1  A    between atoms: C_6  and  C_7 
REMARK    2  A    between atoms: C_14  and  C_15 
REMARK       I    between atoms: C_15  and  N_16 
REMARK    3  A    between atoms: N_16  and  N_17 
REMARK       I    between atoms: N_17  and  C_18 
REMARK       I    between atoms: C_18  and  N_19 
REMARK    4  A    between atoms: N_19  and  C_20 
ROOT
HETATM    1  C   UNL     1      41.036 -14.528  -0.604  1.00  0.00     0.271 C 
HETATM    2  N   UNL     1      40.951 -15.822  -0.146  1.00  0.00    -0.262 N 
HETATM    3  O   UNL     1      42.096 -13.970  -0.867  1.00  0.00    -0.266 OA
HETATM    4  H   UNL     1      40.080 -16.308   0.070  1.00  0.00     0.190 HD
ENDROOT
BRANCH   1   5
HETATM    5  C   UNL     1      39.735 -13.839  -0.760  1.00  0.00     0.048 A 
HETATM    6  C   UNL     1      39.191 -13.062   0.284  1.00  0.00     0.009 A 
HETATM    7  C   UNL     1      39.791 -12.865   1.554  1.00  0.00     0.015 A 
HETATM    8  C   UNL     1      37.969 -12.426   0.001  1.00  0.00     0.068 A 
HETATM    9  C   UNL     1      39.188 -12.057   2.517  1.00  0.00     0.001 A 
HETATM   10  C   UNL     1      37.982 -11.436   2.227  1.00  0.00     0.002 A 
HETATM   11  C   UNL     1      37.389 -11.627   0.977  1.00  0.00     0.032 A 
HETATM   12  N   UNL     1      37.338 -12.549  -1.180  1.00  0.00    -0.248 NA
HETATM   13  C   UNL     1      37.866 -13.322  -2.161  1.00  0.00     0.070 A 
HETATM   14  C   UNL     1      39.074 -13.976  -1.984  1.00  0.00     0.050 A 
BRANCH  13  15
HETATM   15  C   UNL     1      37.083 -13.386  -3.408  1.00  0.00     0.010 A 
HETATM   16  C   UNL     1      36.865 -14.574  -4.110  1.00  0.00     0.130 A 
HETATM   17  N   UNL     1      36.168 -14.683  -5.269  1.00  0.00    -0.272 NA
HETATM   18  C   UNL     1      35.637 -13.548  -5.765  1.00  0.00     0.116 A 
HETATM   19  C   UNL     1      35.771 -12.313  -5.156  1.00  0.00     0.020 A 
HETATM   20  C   UNL     1      36.498 -12.239  -3.969  1.00  0.00     0.017 A 
ENDBRANCH  13  15
ENDBRANCH   1   5
BRANCH   2  21
HETATM   21  N   UNL     1      42.131 -16.560   0.020  1.00  0.00    -0.249 N 
HETATM   22  C   UNL     1      42.185 -17.400   1.122  1.00  0.00     0.339 C 
HETATM   23  N   UNL     1      43.409 -18.024   1.226  1.00  0.00    -0.308 N 
HETATM   24  O   UNL     1      41.209 -17.562   1.848  1.00  0.00    -0.245 OA
HETATM   25  H   UNL     1      44.025 -17.899   0.434  1.00  0.00     0.170 HD
HETATM   26  H   UNL     1      42.973 -16.079  -0.292  1.00  0.00     0.192 HD
BRANCH  23  27
HETATM   27  C   UNL     1      43.821 -18.939   2.215  1.00  0.00     0.038 A 
HETATM   28  C   UNL     1      44.092 -18.586   3.540  1.00  0.00     0.055 A 
HETATM   29  C   UNL     1      44.486 -19.557   4.471  1.00  0.00     0.058 A 
HETATM   30 CL   UNL     1      44.800 -19.039   6.091  1.00  0.00    -0.082 Cl
HETATM   31  C   UNL     1      44.616 -20.892   4.078  1.00  0.00     0.055 A 
HETATM   32 CL   UNL     1      45.090 -22.143   5.170  1.00  0.00    -0.083 Cl
HETATM   33  C   UNL     1      44.357 -21.249   2.753  1.00  0.00     0.028 A 
HETATM   34  C   UNL     1      43.966 -20.276   1.827  1.00  0.00     0.031 A 
ENDBRANCH  23  27
ENDBRANCH   2  21
TORSDOF 4
ENDMDL
MODEL 3
REMARK VINA RESULT:      -9.0      1.382      4.309
REMARK  4 active torsions:
REMARK  status: ('A' for Active; 'I' for Inactive)
REMARK    1  A    between atoms: C_6  and  C_7 
REMARK    2  A    between atoms: C_14  and  C_15 
REMARK       I    between atoms: C_15  and  N_16 
REMARK    3  A    between atoms: N_16  and  N_17 
REMARK       I    between atoms: N_17  and  C_18 
REMARK       I    between atoms: C_18  and  N_19 
REMARK    4  A    between atoms: N_19  and  C_20 
ROOT
HETATM    1  C   UNL     1      41.320 -16.807   1.380  1.00  0.00     0.271 C 
HETATM    2  N   UNL     1      41.972 -16.520   0.203  1.00  0.00    -0.262 N 
HETATM    3  O   UNL     1      40.103 -16.741   1.515  1.00  0.00    -0.266 OA
HETATM    4  H   UNL     1      42.982 -16.578   0.067  1.00  0.00     0.190 HD
ENDROOT
BRANCH   1   5
HETATM    5  C   UNL     1      42.205 -17.208   2.497  1.00  0.00     0.048 A 
HETATM    6  C   UNL     1      42.548 -16.298   3.519  1.00  0.00     0.009 A 
HETATM    7  C   UNL     1      42.115 -14.949   3.592  1.00  0.00     0.015 A 
HETATM    8  C   UNL     1      43.364 -16.808   4.544  1.00  0.00     0.068 A 
HETATM    9  C   UNL     1      42.489 -14.131   4.657  1.00  0.00     0.001 A 
HETATM   10  C   UNL     1      43.294 -14.645   5.662  1.00  0.00     0.002 A 
HETATM   11  C   UNL     1      43.721 -15.973   5.594  1.00  0.00     0.032 A 
HETATM   12  N   UNL     1      43.809 -18.078   4.561  1.00  0.00    -0.248 NA
HETATM   13  C   UNL     1      43.488 -18.928   3.554  1.00  0.00     0.070 A 
HETATM   14  C   UNL     1      42.677 -18.524   2.507  1.00  0.00     0.050 A 
BRANCH  13  15
HETATM   15  C   UNL     1      44.038 -20.291   3.676  1.00  0.00     0.010 A 
HETATM   16  C   UNL     1      44.083 -21.191   2.610  1.00  0.00     0.130 A 
HETATM   17  N   UNL     1      44.562 -22.459   2.674  1.00  0.00    -0.272 NA
HETATM   18  C   UNL     1      45.042 -22.865   3.867  1.00  0.00     0.116 A 
HETATM   19  C   UNL     1      45.066 -22.062   4.992  1.00  0.00     0.020 A 
HETATM   20  C   UNL     1      44.560 -20.767   4.889  1.00  0.00     0.017 A 
ENDBRANCH  13  15
ENDBRANCH   1   5
BRANCH   2  21
HETATM   21  N   UNL     1      41.215 -16.144  -0.915  1.00  0.00    -0.249 N 
HETATM   22  C   UNL     1      41.277 -14.808  -1.282  1.00  0.00     0.339 C 
HETATM   23  N   UNL     1      40.446 -14.536  -2.348  1.00  0.00    -0.308 N 
HETATM   24  O   UNL     1      42.037 -14.028  -0.719  1.00  0.00    -0.245 OA
HETATM   25  H   UNL     1      40.033 -15.345  -2.790  1.00  0.00     0.170 HD
HETATM   26  H   UNL     1      40.343 -16.660  -1.023  1.00  0.00     0.192 HD
BRANCH  23  27
HETATM   27  C   UNL     1      40.252 -13.294  -2.984  1.00  0.00     0.038 A 
HETATM   28  C   UNL     1      41.253 -12.604  -3.672  1.00  0.00     0.055 A 
HETATM   29  C   UNL     1      40.979 -11.377  -4.291  1.00  0.00     0.058 A 
HETATM   30 CL   UNL     1      42.273 -10.588  -5.125  1.00  0.00    -0.082 Cl
HETATM   31  C   UNL     1      39.695 -10.828  -4.220  1.00  0.00     0.055 A 
HETATM   32 CL   UNL     1      39.282  -9.325  -4.962  1.00  0.00    -0.083 Cl
HETATM   33  C   UNL     1      38.694 -11.507  -3.524  1.00  0.00     0.028 A 
HETATM   34  C   UNL     1      38.972 -12.731  -2.907  1.00  0.00     0.031 A 
ENDBRANCH  23  27
ENDBRANCH   2  21
TORSDOF 4
ENDMDL
MODEL 4
REMARK VINA RESULT:      -9.0      5.373      9.140
REMARK  4 active torsions:
REMARK  status: ('A' for Active; 'I' for Inactive)
REMARK    1  A    between atoms: C_6  and  C_7 
REMARK    2  A    between atoms: C_14  and  C_15 
REMARK       I    between atoms: C_15  and  N_16 
REMARK    3  A    between atoms: N_16  and  N_17 
REMARK       I    between atoms: N_17  and  C_18 
REMARK       I    between atoms: C_18  and  N_19 
REMARK    4  A    between atoms: N_19  and  C_20 
ROOT
HETATM    1  C   UNL     1      40.933 -14.381   4.084  1.00  0.00     0.271 C 
HETATM    2  N   UNL     1      41.832 -13.368   4.327  1.00  0.00    -0.262 N 
HETATM    3  O   UNL     1      39.843 -14.468   4.640  1.00  0.00    -0.266 OA
HETATM    4  H   UNL     1      42.739 -13.271   3.869  1.00  0.00     0.190 HD
ENDROOT
BRANCH   1   5
HETATM    5  C   UNL     1      41.380 -15.380   3.088  1.00  0.00     0.048 A 
HETATM    6  C   UNL     1      41.124 -15.205   1.712  1.00  0.00     0.009 A 
HETATM    7  C   UNL     1      40.428 -14.107   1.144  1.00  0.00     0.015 A 
HETATM    8  C   UNL     1      41.632 -16.204   0.863  1.00  0.00     0.068 A 
HETATM    9  C   UNL     1      40.243 -14.009  -0.234  1.00  0.00     0.001 A 
HETATM   10  C   UNL     1      40.749 -15.000  -1.062  1.00  0.00     0.002 A 
HETATM   11  C   UNL     1      41.435 -16.082  -0.506  1.00  0.00     0.032 A 
HETATM   12  N   UNL     1      42.313 -17.271   1.316  1.00  0.00    -0.248 NA
HETATM   13  C   UNL     1      42.527 -17.433   2.646  1.00  0.00     0.070 A 
HETATM   14  C   UNL     1      42.078 -16.496   3.561  1.00  0.00     0.050 A 
BRANCH  13  15
HETATM   15  C   UNL     1      43.278 -18.643   3.025  1.00  0.00     0.010 A 
HETATM   16  C   UNL     1      43.724 -18.886   4.326  1.00  0.00     0.130 A 
HETATM   17  N   UNL     1      44.433 -19.973   4.722  1.00  0.00    -0.272 NA
HETATM   18  C   UNL     1      44.710 -20.892   3.775  1.00  0.00     0.116 A 
HETATM   19  C   UNL     1      44.311 -20.773   2.456  1.00  0.00     0.020 A 
HETATM   20  C   UNL     1      43.589 -19.640   2.086  1.00  0.00     0.017 A 
ENDBRANCH  13  15
ENDBRANCH   1   5
BRANCH   2  21
HETATM   21  N   UNL     1      41.490 -12.366   5.246  1.00  0.00    -0.249 N 
HETATM   22  C   UNL     1      42.225 -12.329   6.421  1.00  0.00     0.339 C 
HETATM   23  N   UNL     1      41.764 -11.353   7.278  1.00  0.00    -0.308 N 
HETATM   24  O   UNL     1      43.189 -13.068   6.593  1.00  0.00    -0.245 OA
HETATM   25  H   UNL     1      41.073 -10.727   6.887  1.00  0.00     0.170 HD
HETATM   26  H   UNL     1      40.499 -12.131   5.260  1.00  0.00     0.192 HD
BRANCH  23  27
HETATM   27  C   UNL     1      42.264 -11.031   8.555  1.00  0.00     0.038 A 
HETATM   28  C   UNL     1      43.599 -11.196   8.935  1.00  0.00     0.055 A 
HETATM   29  C   UNL     1      44.024 -10.841  10.221  1.00  0.00     0.058 A 
HETATM   30 CL   UNL     1      45.693 -11.074  10.613  1.00  0.00    -0.082 Cl
HETATM   31  C   UNL     1      43.111 -10.319  11.142  1.00  0.00     0.055 A 
HETATM   32 CL   UNL     1      43.563  -9.853  12.742  1.00  0.00    -0.083 Cl
HETATM   33  C   UNL     1      41.774 -10.161  10.772  1.00  0.00     0.028 A 
HETATM   34  C   UNL     1      41.353 -10.519   9.487  1.00  0.00     0.031 A 
ENDBRANCH  23  27
ENDBRANCH   2  21
TORSDOF 4
ENDMDL
MODEL 5
REMARK VINA RESULT:      -8.7      2.332      4.692
REMARK  4 active torsions:
REMARK  status: ('A' for Active; 'I' for Inactive)
REMARK    1  A    between atoms: C_6  and  C_7 
REMARK    2  A    between atoms: C_14  and  C_15 
REMARK       I    between atoms: C_15  and  N_16 
REMARK    3  A    between atoms: N_16  and  N_17 
REMARK       I    between atoms: N_17  and  C_18 
REMARK       I    between atoms: C_18  and  N_19 
REMARK    4  A    between atoms: N_19  and  C_20 
ROOT
HETATM    1  C   UNL     1      41.546 -15.313   0.313  1.00  0.00     0.271 C 
HETATM    2  N   UNL     1      40.597 -15.854  -0.523  1.00  0.00    -0.262 N 
HETATM    3  O   UNL     1      42.202 -14.314   0.038  1.00  0.00    -0.266 OA
HETATM    4  H   UNL     1      40.034 -16.678  -0.310  1.00  0.00     0.190 HD
ENDROOT
BRANCH   1   5
HETATM    5  C   UNL     1      41.728 -16.035   1.593  1.00  0.00     0.048 A 
HETATM    6  C   UNL     1      41.199 -15.528   2.798  1.00  0.00     0.009 A 
HETATM    7  C   UNL     1      40.471 -14.317   2.926  1.00  0.00     0.015 A 
HETATM    8  C   UNL     1      41.404 -16.323   3.939  1.00  0.00     0.068 A 
HETATM    9  C   UNL     1      39.966 -13.909   4.159  1.00  0.00     0.001 A 
HETATM   10  C   UNL     1      40.175 -14.702   5.278  1.00  0.00     0.002 A 
HETATM   11  C   UNL     1      40.890 -15.895   5.155  1.00  0.00     0.032 A 
HETATM   12  N   UNL     1      42.071 -17.491   3.905  1.00  0.00    -0.248 NA
HETATM   13  C   UNL     1      42.594 -17.947   2.740  1.00  0.00     0.070 A 
HETATM   14  C   UNL     1      42.432 -17.242   1.560  1.00  0.00     0.050 A 
BRANCH  13  15
HETATM   15  C   UNL     1      43.309 -19.233   2.827  1.00  0.00     0.010 A 
HETATM   16  C   UNL     1      44.153 -19.565   3.889  1.00  0.00     0.130 A 
HETATM   17  N   UNL     1      44.845 -20.726   4.007  1.00  0.00    -0.272 NA
HETATM   18  C   UNL     1      44.686 -21.628   3.018  1.00  0.00     0.116 A 
HETATM   19  C   UNL     1      43.869 -21.423   1.922  1.00  0.00     0.020 A 
HETATM   20  C   UNL     1      43.177 -20.216   1.833  1.00  0.00     0.017 A 
ENDBRANCH  13  15
ENDBRANCH   1   5
BRANCH   2  21
HETATM   21  N   UNL     1      40.345 -15.231  -1.753  1.00  0.00    -0.249 N 
HETATM   22  C   UNL     1      39.266 -14.361  -1.794  1.00  0.00     0.339 C 
HETATM   23  N   UNL     1      39.068 -13.857  -3.062  1.00  0.00    -0.308 N 
HETATM   24  O   UNL     1      38.636 -14.077  -0.780  1.00  0.00    -0.245 OA
HETATM   25  H   UNL     1      39.797 -14.070  -3.729  1.00  0.00     0.170 HD
HETATM   26  H   UNL     1      40.566 -15.803  -2.566  1.00  0.00     0.192 HD
BRANCH  23  27
HETATM   27  C   UNL     1      38.071 -12.952  -3.476  1.00  0.00     0.038 A 
HETATM   28  C   UNL     1      36.807 -13.337  -3.930  1.00  0.00     0.055 A 
HETATM   29  C   UNL     1      35.862 -12.376  -4.314  1.00  0.00     0.058 A 
HETATM   30 CL   UNL     1      34.320 -12.935  -4.862  1.00  0.00    -0.082 Cl
HETATM   31  C   UNL     1      36.181 -11.016  -4.250  1.00  0.00     0.055 A 
HETATM   32 CL   UNL     1      35.067  -9.776  -4.699  1.00  0.00    -0.083 Cl
HETATM   33  C   UNL     1      37.446 -10.625  -3.808  1.00  0.00     0.028 A 
HETATM   34  C   UNL     1      38.386 -11.588  -3.427  1.00  0.00     0.031 A 
ENDBRANCH  23  27
ENDBRANCH   2  21
TORSDOF 4
ENDMDL
MODEL 6
REMARK VINA RESULT:      -8.6      2.384      4.861
REMARK  4 active torsions:
REMARK  status: ('A' for Active; 'I' for Inactive)
REMARK    1  A    between atoms: C_6  and  C_7 
REMARK    2  A    between atoms: C_14  and  C_15 
REMARK       I    between atoms: C_15  and  N_16 
REMARK    3  A    between atoms: N_16  and  N_17 
REMARK       I    between atoms: N_17  and  C_18 
REMARK       I    between atoms: C_18  and  N_19 
REMARK    4  A    between atoms: N_19  and  C_20 
ROOT
HETATM    1  C   UNL     1      41.242 -14.811   0.178  1.00  0.00     0.271 C 
HETATM    2  N   UNL     1      40.176 -15.319  -0.529  1.00  0.00    -0.262 N 
HETATM    3  O   UNL     1      41.964 -13.911  -0.237  1.00  0.00    -0.266 OA
HETATM    4  H   UNL     1      39.558 -16.060  -0.198  1.00  0.00     0.190 HD
ENDROOT
BRANCH   1   5
HETATM    5  C   UNL     1      41.464 -15.439   1.500  1.00  0.00     0.048 A 
HETATM    6  C   UNL     1      40.933 -14.871   2.677  1.00  0.00     0.009 A 
HETATM    7  C   UNL     1      40.167 -13.679   2.735  1.00  0.00     0.015 A 
HETATM    8  C   UNL     1      41.179 -15.581   3.865  1.00  0.00     0.068 A 
HETATM    9  C   UNL     1      39.663 -13.206   3.946  1.00  0.00     0.001 A 
HETATM   10  C   UNL     1      39.913 -13.915   5.111  1.00  0.00     0.002 A 
HETATM   11  C   UNL     1      40.666 -15.090   5.057  1.00  0.00     0.032 A 
HETATM   12  N   UNL     1      41.885 -16.726   3.899  1.00  0.00    -0.248 NA
HETATM   13  C   UNL     1      42.408 -17.241   2.759  1.00  0.00     0.070 A 
HETATM   14  C   UNL     1      42.208 -16.623   1.537  1.00  0.00     0.050 A 
BRANCH  13  15
HETATM   15  C   UNL     1      43.167 -18.495   2.920  1.00  0.00     0.010 A 
HETATM   16  C   UNL     1      43.972 -18.760   4.030  1.00  0.00     0.130 A 
HETATM   17  N   UNL     1      44.703 -19.888   4.218  1.00  0.00    -0.272 NA
HETATM   18  C   UNL     1      44.626 -20.826   3.252  1.00  0.00     0.116 A 
HETATM   19  C   UNL     1      43.853 -20.687   2.114  1.00  0.00     0.020 A 
HETATM   20  C   UNL     1      43.120 -19.512   1.954  1.00  0.00     0.017 A 
ENDBRANCH  13  15
ENDBRANCH   1   5
BRANCH   2  21
HETATM   21  N   UNL     1      39.880 -14.777  -1.787  1.00  0.00    -0.249 N 
HETATM   22  C   UNL     1      38.588 -14.306  -1.967  1.00  0.00     0.339 C 
HETATM   23  N   UNL     1      38.386 -13.858  -3.255  1.00  0.00    -0.308 N 
HETATM   24  O   UNL     1      37.787 -14.273  -1.039  1.00  0.00    -0.245 OA
HETATM   25  H   UNL     1      39.217 -13.803  -3.827  1.00  0.00     0.170 HD
HETATM   26  H   UNL     1      40.370 -15.222  -2.561  1.00  0.00     0.192 HD
BRANCH  23  27
HETATM   27  C   UNL     1      37.203 -13.316  -3.795  1.00  0.00     0.038 A 
HETATM   28  C   UNL     1      36.853 -11.966  -3.709  1.00  0.00     0.055 A 
HETATM   29  C   UNL     1      35.663 -11.499  -4.284  1.00  0.00     0.058 A 
HETATM   30 CL   UNL     1      35.302  -9.814  -4.135  1.00  0.00    -0.082 Cl
HETATM   31  C   UNL     1      34.811 -12.387  -4.948  1.00  0.00     0.055 A 
HETATM   32 CL   UNL     1      33.333 -11.883  -5.686  1.00  0.00    -0.083 Cl
HETATM   33  C   UNL     1      35.150 -13.738  -5.028  1.00  0.00     0.028 A 
HETATM   34  C   UNL     1      36.338 -14.200  -4.452  1.00  0.00     0.031 A 
ENDBRANCH  23  27
ENDBRANCH   2  21
TORSDOF 4
ENDMDL
MODEL 7
REMARK VINA RESULT:      -8.5      2.493      5.135
REMARK  4 active torsions:
REMARK  status: ('A' for Active; 'I' for Inactive)
REMARK    1  A    between atoms: C_6  and  C_7 
REMARK    2  A    between atoms: C_14  and  C_15 
REMARK       I    between atoms: C_15  and  N_16 
REMARK    3  A    between atoms: N_16  and  N_17 
REMARK       I    between atoms: N_17  and  C_18 
REMARK       I    between atoms: C_18  and  N_19 
REMARK    4  A    between atoms: N_19  and  C_20 
ROOT
HETATM    1  C   UNL     1      41.470 -15.409   1.140  1.00  0.00     0.271 C 
HETATM    2  N   UNL     1      40.101 -15.514   1.236  1.00  0.00    -0.262 N 
HETATM    3  O   UNL     1      42.044 -14.817   0.232  1.00  0.00    -0.266 OA
HETATM    4  H   UNL     1      39.605 -15.993   1.987  1.00  0.00     0.190 HD
ENDROOT
BRANCH   1   5
HETATM    5  C   UNL     1      42.220 -16.075   2.230  1.00  0.00     0.048 A 
HETATM    6  C   UNL     1      42.548 -15.388   3.416  1.00  0.00     0.009 A 
HETATM    7  C   UNL     1      42.225 -14.035   3.693  1.00  0.00     0.015 A 
HETATM    8  C   UNL     1      43.227 -16.139   4.392  1.00  0.00     0.068 A 
HETATM    9  C   UNL     1      42.572 -13.447   4.908  1.00  0.00     0.001 A 
HETATM   10  C   UNL     1      43.242 -14.198   5.863  1.00  0.00     0.002 A 
HETATM   11  C   UNL     1      43.561 -15.531   5.594  1.00  0.00     0.032 A 
HETATM   12  N   UNL     1      43.561 -17.431   4.217  1.00  0.00    -0.248 NA
HETATM   13  C   UNL     1      43.258 -18.065   3.057  1.00  0.00     0.070 A 
HETATM   14  C   UNL     1      42.577 -17.414   2.043  1.00  0.00     0.050 A 
BRANCH  13  15
HETATM   15  C   UNL     1      43.679 -19.476   2.978  1.00  0.00     0.010 A 
HETATM   16  C   UNL     1      44.410 -20.110   3.984  1.00  0.00     0.130 A 
HETATM   17  N   UNL     1      44.836 -21.398   3.952  1.00  0.00    -0.272 NA
HETATM   18  C   UNL     1      44.508 -22.116   2.859  1.00  0.00     0.116 A 
HETATM   19  C   UNL     1      43.776 -21.606   1.803  1.00  0.00     0.020 A 
HETATM   20  C   UNL     1      43.360 -20.277   1.869  1.00  0.00     0.017 A 
ENDBRANCH  13  15
ENDBRANCH   1   5
BRANCH   2  21
HETATM   21  N   UNL     1      39.307 -14.902   0.257  1.00  0.00    -0.249 N 
HETATM   22  C   UNL     1      38.722 -13.693   0.602  1.00  0.00     0.339 C 
HETATM   23  N   UNL     1      37.912 -13.215  -0.405  1.00  0.00    -0.308 N 
HETATM   24  O   UNL     1      38.976 -13.145   1.670  1.00  0.00    -0.245 OA
HETATM   25  H   UNL     1      37.968 -13.718  -1.279  1.00  0.00     0.170 HD
HETATM   26  H   UNL     1      38.806 -15.554  -0.344  1.00  0.00     0.192 HD
BRANCH  23  27
HETATM   27  C   UNL     1      37.161 -12.022  -0.404  1.00  0.00     0.038 A 
HETATM   28  C   UNL     1      36.078 -11.783   0.446  1.00  0.00     0.055 A 
HETATM   29  C   UNL     1      35.387 -10.565   0.396  1.00  0.00     0.058 A 
HETATM   30 CL   UNL     1      34.060 -10.345   1.483  1.00  0.00    -0.082 Cl
HETATM   31  C   UNL     1      35.775  -9.576  -0.513  1.00  0.00     0.055 A 
HETATM   32 CL   UNL     1      34.976  -8.049  -0.627  1.00  0.00    -0.083 Cl
HETATM   33  C   UNL     1      36.849  -9.814  -1.372  1.00  0.00     0.028 A 
HETATM   34  C   UNL     1      37.535 -11.031  -1.320  1.00  0.00     0.031 A 
ENDBRANCH  23  27
ENDBRANCH   2  21
TORSDOF 4
ENDMDL
MODEL 8
REMARK VINA RESULT:      -8.5      4.717      9.685
REMARK  4 active torsions:
REMARK  status: ('A' for Active; 'I' for Inactive)
REMARK    1  A    between atoms: C_6  and  C_7 
REMARK    2  A    between atoms: C_14  and  C_15 
REMARK       I    between atoms: C_15  and  N_16 
REMARK    3  A    between atoms: N_16  and  N_17 
REMARK       I    between atoms: N_17  and  C_18 
REMARK       I    between atoms: C_18  and  N_19 
REMARK    4  A    between atoms: N_19  and  C_20 
ROOT
HETATM    1  C   UNL     1      41.222 -14.364  -0.621  1.00  0.00     0.271 C 
HETATM    2  N   UNL     1      41.230 -15.506   0.147  1.00  0.00    -0.262 N 
HETATM    3  O   UNL     1      42.232 -13.730  -0.904  1.00  0.00    -0.266 OA
HETATM    4  H   UNL     1      40.403 -16.054   0.387  1.00  0.00     0.190 HD
ENDROOT
BRANCH   1   5
HETATM    5  C   UNL     1      39.882 -13.943  -1.089  1.00  0.00     0.048 A 
HETATM    6  C   UNL     1      39.303 -14.507  -2.245  1.00  0.00     0.009 A 
HETATM    7  C   UNL     1      39.910 -15.491  -3.067  1.00  0.00     0.015 A 
HETATM    8  C   UNL     1      38.011 -14.053  -2.566  1.00  0.00     0.068 A 
HETATM    9  C   UNL     1      39.247 -16.007  -4.179  1.00  0.00     0.001 A 
HETATM   10  C   UNL     1      37.973 -15.552  -4.486  1.00  0.00     0.002 A 
HETATM   11  C   UNL     1      37.373 -14.583  -3.679  1.00  0.00     0.032 A 
HETATM   12  N   UNL     1      37.358 -13.132  -1.835  1.00  0.00    -0.248 NA
HETATM   13  C   UNL     1      37.944 -12.584  -0.742  1.00  0.00     0.070 A 
HETATM   14  C   UNL     1      39.208 -12.977  -0.336  1.00  0.00     0.050 A 
BRANCH  13  15
HETATM   15  C   UNL     1      37.136 -11.581  -0.025  1.00  0.00     0.010 A 
HETATM   16  C   UNL     1      35.996 -10.989  -0.573  1.00  0.00     0.130 A 
HETATM   17  N   UNL     1      35.229 -10.051   0.038  1.00  0.00    -0.272 NA
HETATM   18  C   UNL     1      35.602  -9.679   1.279  1.00  0.00     0.116 A 
HETATM   19  C   UNL     1      36.702 -10.203   1.934  1.00  0.00     0.020 A 
HETATM   20  C   UNL     1      37.468 -11.161   1.273  1.00  0.00     0.017 A 
ENDBRANCH  13  15
ENDBRANCH   1   5
BRANCH   2  21
HETATM   21  N   UNL     1      42.456 -15.990   0.625  1.00  0.00    -0.249 N 
HETATM   22  C   UNL     1      42.400 -17.094   1.462  1.00  0.00     0.339 C 
HETATM   23  N   UNL     1      43.649 -17.444   1.926  1.00  0.00    -0.308 N 
HETATM   24  O   UNL     1      41.341 -17.673   1.682  1.00  0.00    -0.245 OA
HETATM   25  H   UNL     1      44.421 -16.956   1.494  1.00  0.00     0.170 HD
HETATM   26  H   UNL     1      43.158 -15.269   0.784  1.00  0.00     0.192 HD
BRANCH  23  27
HETATM   27  C   UNL     1      43.973 -18.507   2.792  1.00  0.00     0.038 A 
HETATM   28  C   UNL     1      43.996 -18.399   4.185  1.00  0.00     0.055 A 
HETATM   29  C   UNL     1      44.316 -19.506   4.982  1.00  0.00     0.058 A 
HETATM   30 CL   UNL     1      44.321 -19.291   6.698  1.00  0.00    -0.082 Cl
HETATM   31  C   UNL     1      44.620 -20.734   4.386  1.00  0.00     0.055 A 
HETATM   32 CL   UNL     1      45.017 -22.142   5.302  1.00  0.00    -0.083 Cl
HETATM   33  C   UNL     1      44.609 -20.845   2.994  1.00  0.00     0.028 A 
HETATM   34  C   UNL     1      44.291 -19.737   2.203  1.00  0.00     0.031 A 
ENDBRANCH  23  27
ENDBRANCH   2  21
TORSDOF 4
ENDMDL
MODEL 9
REMARK VINA RESULT:      -8.3      4.865     10.277
REMARK  4 active torsions:
REMARK  status: ('A' for Active; 'I' for Inactive)
REMARK    1  A    between atoms: C_6  and  C_7 
REMARK    2  A    between atoms: C_14  and  C_15 
REMARK       I    between atoms: C_15  and  N_16 
REMARK    3  A    between atoms: N_16  and  N_17 
REMARK       I    between atoms: N_17  and  C_18 
REMARK       I    between atoms: C_18  and  N_19 
REMARK    4  A    between atoms: N_19  and  C_20 
ROOT
HETATM    1  C   UNL     1      41.406 -13.446   1.406  1.00  0.00     0.271 C 
HETATM    2  N   UNL     1      41.356 -14.670   2.034  1.00  0.00    -0.262 N 
HETATM    3  O   UNL     1      42.444 -12.821   1.221  1.00  0.00    -0.266 OA
HETATM    4  H   UNL     1      40.506 -15.211   2.189  1.00  0.00     0.190 HD
ENDROOT
BRANCH   1   5
HETATM    5  C   UNL     1      40.094 -12.925   0.962  1.00  0.00     0.048 A 
HETATM    6  C   UNL     1      39.358 -12.024   1.760  1.00  0.00     0.009 A 
HETATM    7  C   UNL     1      39.762 -11.541   3.031  1.00  0.00     0.015 A 
HETATM    8  C   UNL     1      38.145 -11.571   1.212  1.00  0.00     0.068 A 
HETATM    9  C   UNL     1      38.976 -10.632   3.737  1.00  0.00     0.001 A 
HETATM   10  C   UNL     1      37.781 -10.192   3.187  1.00  0.00     0.002 A 
HETATM   11  C   UNL     1      37.381 -10.665   1.935  1.00  0.00     0.032 A 
HETATM   12  N   UNL     1      37.693 -11.968   0.009  1.00  0.00    -0.248 NA
HETATM   13  C   UNL     1      38.405 -12.854  -0.731  1.00  0.00     0.070 A 
HETATM   14  C   UNL     1      39.619 -13.347  -0.284  1.00  0.00     0.050 A 
BRANCH  13  15
HETATM   15  C   UNL     1      37.807 -13.220  -2.028  1.00  0.00     0.010 A 
HETATM   16  C   UNL     1      37.060 -12.329  -2.800  1.00  0.00     0.130 A 
HETATM   17  N   UNL     1      36.476 -12.621  -3.990  1.00  0.00    -0.272 NA
HETATM   18  C   UNL     1      36.651 -13.873  -4.458  1.00  0.00     0.116 A 
HETATM   19  C   UNL     1      37.382 -14.841  -3.794  1.00  0.00     0.020 A 
HETATM   20  C   UNL     1      37.963 -14.505  -2.572  1.00  0.00     0.017 A 
ENDBRANCH  13  15
ENDBRANCH   1   5
BRANCH   2  21
HETATM   21  N   UNL     1      42.552 -15.251   2.478  1.00  0.00    -0.249 N 
HETATM   22  C   UNL     1      42.524 -16.617   2.717  1.00  0.00     0.339 C 
HETATM   23  N   UNL     1      43.727 -17.071   3.211  1.00  0.00    -0.308 N 
HETATM   24  O   UNL     1      41.533 -17.289   2.451  1.00  0.00    -0.245 OA
HETATM   25  H   UNL     1      44.481 -16.398   3.195  1.00  0.00     0.170 HD
HETATM   26  H   UNL     1      43.118 -14.645   3.068  1.00  0.00     0.192 HD
BRANCH  23  27
HETATM   27  C   UNL     1      44.061 -18.393   3.567  1.00  0.00     0.038 A 
HETATM   28  C   UNL     1      44.132 -19.452   2.658  1.00  0.00     0.055 A 
HETATM   29  C   UNL     1      44.483 -20.738   3.087  1.00  0.00     0.058 A 
HETATM   30 CL   UNL     1      44.551 -21.994   1.899  1.00  0.00    -0.082 Cl
HETATM   31  C   UNL     1      44.763 -20.975   4.437  1.00  0.00     0.055 A 
HETATM   32 CL   UNL     1      45.208 -22.531   5.037  1.00  0.00    -0.083 Cl
HETATM   33  C   UNL     1      44.683 -19.924   5.351  1.00  0.00     0.028 A 
HETATM   34  C   UNL     1      44.330 -18.641   4.919  1.00  0.00     0.031 A 
ENDBRANCH  23  27
ENDBRANCH   2  21
TORSDOF 4
ENDMDL
MODEL 10
REMARK VINA RESULT:      -8.2      5.406      8.857
REMARK  4 active torsions:
REMARK  status: ('A' for Active; 'I' for Inactive)
REMARK    1  A    between atoms: C_6  and  C_7 
REMARK    2  A    between atoms: C_14  and  C_15 
REMARK       I    between atoms: C_15  and  N_16 
REMARK    3  A    between atoms: N_16  and  N_17 
REMARK       I    between atoms: N_17  and  C_18 
REMARK       I    between atoms: C_18  and  N_19 
REMARK    4  A    between atoms: N_19  and  C_20 
ROOT
HETATM    1  C   UNL     1      40.678 -15.465   5.512  1.00  0.00     0.271 C 
HETATM    2  N   UNL     1      40.023 -14.260   5.394  1.00  0.00    -0.262 N 
HETATM    3  O   UNL     1      40.820 -16.058   6.576  1.00  0.00    -0.266 OA
HETATM    4  H   UNL     1      39.885 -13.755   4.519  1.00  0.00     0.190 HD
ENDROOT
BRANCH   1   5
HETATM    5  C   UNL     1      41.212 -16.006   4.242  1.00  0.00     0.048 A 
HETATM    6  C   UNL     1      42.133 -17.074   4.234  1.00  0.00     0.009 A 
HETATM    7  C   UNL     1      42.644 -17.722   5.388  1.00  0.00     0.015 A 
HETATM    8  C   UNL     1      42.536 -17.525   2.965  1.00  0.00     0.068 A 
HETATM    9  C   UNL     1      43.535 -18.788   5.279  1.00  0.00     0.001 A 
HETATM   10  C   UNL     1      43.926 -19.224   4.022  1.00  0.00     0.002 A 
HETATM   11  C   UNL     1      43.424 -18.589   2.884  1.00  0.00     0.032 A 
HETATM   12  N   UNL     1      42.092 -16.977   1.820  1.00  0.00    -0.248 NA
HETATM   13  C   UNL     1      41.226 -15.934   1.851  1.00  0.00     0.070 A 
HETATM   14  C   UNL     1      40.759 -15.429   3.052  1.00  0.00     0.050 A 
BRANCH  13  15
HETATM   15  C   UNL     1      40.814 -15.412   0.535  1.00  0.00     0.010 A 
HETATM   16  C   UNL     1      39.935 -14.338   0.384  1.00  0.00     0.130 A 
HETATM   17  N   UNL     1      39.512 -13.831  -0.802  1.00  0.00    -0.272 NA
HETATM   18  C   UNL     1      39.999 -14.414  -1.916  1.00  0.00     0.116 A 
HETATM   19  C   UNL     1      40.886 -15.474  -1.897  1.00  0.00     0.020 A 
HETATM   20  C   UNL     1      41.294 -15.971  -0.660  1.00  0.00     0.017 A 
ENDBRANCH  13  15
ENDBRANCH   1   5
BRANCH   2  21
HETATM   21  N   UNL     1      39.471 -13.675   6.542  1.00  0.00    -0.249 N 
HETATM   22  C   UNL     1      40.045 -12.486   6.966  1.00  0.00     0.339 C 
HETATM   23  N   UNL     1      39.472 -12.035   8.136  1.00  0.00    -0.308 N 
HETATM   24  O   UNL     1      40.917 -11.929   6.308  1.00  0.00    -0.245 OA
HETATM   25  H   UNL     1      38.648 -12.538   8.434  1.00  0.00     0.170 HD
HETATM   26  H   UNL     1      39.125 -14.344   7.228  1.00  0.00     0.192 HD
BRANCH  23  27
HETATM   27  C   UNL     1      39.801 -10.868   8.854  1.00  0.00     0.038 A 
HETATM   28  C   UNL     1      38.962  -9.755   8.960  1.00  0.00     0.055 A 
HETATM   29  C   UNL     1      39.354  -8.634   9.703  1.00  0.00     0.058 A 
HETATM   30 CL   UNL     1      38.259  -7.298   9.787  1.00  0.00    -0.082 Cl
HETATM   31  C   UNL     1      40.597  -8.618  10.345  1.00  0.00     0.055 A 
HETATM   32 CL   UNL     1      41.145  -7.276  11.283  1.00  0.00    -0.083 Cl
HETATM   33  C   UNL     1      41.443  -9.723  10.233  1.00  0.00     0.028 A 
HETATM   34  C   UNL     1      41.048 -10.839   9.489  1.00  0.00     0.031 A 
ENDBRANCH  23  27
ENDBRANCH   2  21
TORSDOF 4
ENDMDL
