MODEL 1
REMARK VINA RESULT:      -9.0      0.000      0.000
REMARK  9 active torsions:
REMARK  status: ('A' for Active; 'I' for Inactive)
REMARK    1  A    between atoms: C_7  and  C_8 
REMARK    2  A    between atoms: C_9  and  O_10 
REMARK    3  A    between atoms: C_13  and  N_14 
REMARK    4  A    between atoms: N_14  and  C_15 
REMARK    5  A    between atoms: C_15  and  N_16 
REMARK       I    between atoms: N_16  and  C_17 
REMARK    6  A    between atoms: C_17  and  C_18 
REMARK    7  A    between atoms: C_21  and  O_22 
REMARK    8  A    between atoms: O_22  and  C_23 
REMARK    9  A    between atoms: C_23  and  C_24 
ROOT
HETATM    1  N   UNL     1      39.801 -14.858   4.418  1.00  0.00    -0.337 N 
HETATM    2  H   UNL     1      38.829 -15.045   4.633  1.00  0.00     0.168 HD
ENDROOT
BRANCH   1   3
HETATM    3  C   UNL     1      40.195 -15.083   3.079  1.00  0.00     0.035 A 
HETATM    4  C   UNL     1      40.233 -16.400   2.616  1.00  0.00     0.032 A 
HETATM    5  C   UNL     1      40.675 -16.678   1.321  1.00  0.00     0.040 A 
HETATM    6  C   UNL     1      41.113 -15.643   0.497  1.00  0.00     0.080 A 
HETATM    7  C   UNL     1      41.115 -14.314   0.944  1.00  0.00     0.052 A 
HETATM    8  C   UNL     1      40.647 -14.053   2.245  1.00  0.00     0.048 A 
BRANCH   6   9
HETATM    9  O   UNL     1      41.552 -16.012  -0.750  1.00  0.00    -0.360 OA
HETATM   10  H   UNL     1      40.769 -16.176  -1.319  1.00  0.00     0.217 HD
ENDBRANCH   6   9
BRANCH   7  11
HETATM   11  C   UNL     1      41.629 -13.241   0.097  1.00  0.00     0.183 A 
HETATM   12  N   UNL     1      42.366 -12.200   0.458  1.00  0.00    -0.221 NA
HETATM   13  C   UNL     1      42.522 -11.497  -0.714  1.00  0.00     0.093 A 
HETATM   14  C   UNL     1      41.879 -12.156  -1.748  1.00  0.00     0.107 A 
HETATM   15  C   UNL     1      43.180 -10.293  -0.987  1.00  0.00     0.035 A 
HETATM   16  C   UNL     1      41.839 -11.718  -3.067  1.00  0.00     0.046 A 
HETATM   17  O   UNL     1      41.302 -13.279  -1.235  1.00  0.00    -0.289 OA
HETATM   18  C   UNL     1      42.514 -10.515  -3.340  1.00  0.00    -0.059 A 
HETATM   19  C   UNL     1      42.492  -9.947  -4.731  1.00  0.00     0.048 C 
HETATM   20  C   UNL     1      43.161  -9.811  -2.306  1.00  0.00     0.009 A 
ENDBRANCH   7  11
ENDBRANCH   1   3
BRANCH   1  21
HETATM   21  C   UNL     1      40.535 -14.278   5.424  1.00  0.00     0.157 C 
HETATM   22  S   UNL     1      40.522 -12.659   5.855  1.00  0.00    -0.047 SA
BRANCH  21  23
HETATM   23  N   UNL     1      41.338 -15.121   6.164  1.00  0.00    -0.201 NA
HETATM   24  C   UNL     1      42.660 -15.329   5.838  1.00  0.00     0.237 C 
HETATM   25  O   UNL     1      43.572 -14.733   6.402  1.00  0.00    -0.274 OA
HETATM   26  H   UNL     1      41.265 -14.804   7.126  1.00  0.00     0.139 HD
BRANCH  24  27
HETATM   27  C   UNL     1      42.955 -16.379   4.838  1.00  0.00     0.026 A 
HETATM   28  C   UNL     1      43.567 -16.014   3.635  1.00  0.00     0.019 A 
HETATM   29  C   UNL     1      43.955 -16.999   2.720  1.00  0.00     0.038 A 
HETATM   30  C   UNL     1      43.761 -18.349   3.021  1.00  0.00     0.068 A 
HETATM   31  C   UNL     1      43.120 -18.705   4.212  1.00  0.00     0.038 A 
HETATM   32  C   UNL     1      42.713 -17.725   5.123  1.00  0.00     0.019 A 
BRANCH  30  33
HETATM   33  O   UNL     1      44.156 -19.403   2.243  1.00  0.00    -0.351 OA
BRANCH  33  34
HETATM   34  C   UNL     1      45.032 -20.354   2.853  1.00  0.00     0.179 C 
BRANCH  34  35
HETATM   35  C   UNL     1      44.628 -21.769   2.411  1.00  0.00     0.002 C 
HETATM   36  C   UNL     1      44.523 -22.693   3.623  1.00  0.00     0.011 C 
HETATM   37  C   UNL     1      43.305 -21.753   1.643  1.00  0.00     0.011 C 
ENDBRANCH  34  35
ENDBRANCH  33  34
ENDBRANCH  30  33
ENDBRANCH  24  27
ENDBRANCH  21  23
ENDBRANCH   1  21
TORSDOF 9
ENDMDL
MODEL 2
REMARK VINA RESULT:      -8.6      3.181      5.380
REMARK  9 active torsions:
REMARK  status: ('A' for Active; 'I' for Inactive)
REMARK    1  A    between atoms: C_7  and  C_8 
REMARK    2  A    between atoms: C_9  and  O_10 
REMARK    3  A    between atoms: C_13  and  N_14 
REMARK    4  A    between atoms: N_14  and  C_15 
REMARK    5  A    between atoms: C_15  and  N_16 
REMARK       I    between atoms: N_16  and  C_17 
REMARK    6  A    between atoms: C_17  and  C_18 
REMARK    7  A    between atoms: C_21  and  O_22 
REMARK    8  A    between atoms: O_22  and  C_23 
REMARK    9  A    between atoms: C_23  and  C_24 
ROOT
HETATM    1  N   UNL     1      37.880 -11.278   2.899  1.00  0.00    -0.337 N 
HETATM    2  H   UNL     1      37.057 -10.732   2.674  1.00  0.00     0.168 HD
ENDROOT
BRANCH   1   3
HETATM    3  C   UNL     1      38.332 -12.162   1.892  1.00  0.00     0.035 A 
HETATM    4  C   UNL     1      37.636 -12.193   0.681  1.00  0.00     0.032 A 
HETATM    5  C   UNL     1      38.006 -13.092  -0.320  1.00  0.00     0.040 A 
HETATM    6  C   UNL     1      39.051 -13.988  -0.101  1.00  0.00     0.080 A 
HETATM    7  C   UNL     1      39.749 -14.001   1.114  1.00  0.00     0.052 A 
HETATM    8  C   UNL     1      39.374 -13.073   2.103  1.00  0.00     0.048 A 
BRANCH   6   9
HETATM    9  O   UNL     1      39.329 -14.851  -1.131  1.00  0.00    -0.360 OA
HETATM   10  H   UNL     1      38.622 -15.531  -1.167  1.00  0.00     0.217 HD
ENDBRANCH   6   9
BRANCH   7  11
HETATM   11  C   UNL     1      40.805 -14.980   1.360  1.00  0.00     0.183 A 
HETATM   12  N   UNL     1      42.099 -14.755   1.542  1.00  0.00    -0.221 NA
HETATM   13  C   UNL     1      42.627 -16.016   1.682  1.00  0.00     0.093 A 
HETATM   14  C   UNL     1      41.619 -16.962   1.593  1.00  0.00     0.107 A 
HETATM   15  C   UNL     1      43.943 -16.450   1.876  1.00  0.00     0.035 A 
HETATM   16  C   UNL     1      41.806 -18.336   1.693  1.00  0.00     0.046 A 
HETATM   17  O   UNL     1      40.444 -16.303   1.387  1.00  0.00    -0.289 OA
HETATM   18  C   UNL     1      43.128 -18.766   1.902  1.00  0.00    -0.059 A 
HETATM   19  C   UNL     1      43.430 -20.236   1.985  1.00  0.00     0.048 C 
HETATM   20  C   UNL     1      44.179 -17.831   1.977  1.00  0.00     0.009 A 
ENDBRANCH   7  11
ENDBRANCH   1   3
BRANCH   1  21
HETATM   21  C   UNL     1      38.503 -10.962   4.082  1.00  0.00     0.157 C 
HETATM   22  S   UNL     1      39.449  -9.611   4.374  1.00  0.00    -0.047 SA
BRANCH  21  23
HETATM   23  N   UNL     1      38.304 -11.832   5.133  1.00  0.00    -0.201 NA
HETATM   24  C   UNL     1      39.302 -12.104   6.043  1.00  0.00     0.237 C 
HETATM   25  O   UNL     1      39.361 -11.544   7.133  1.00  0.00    -0.274 OA
HETATM   26  H   UNL     1      37.476 -11.501   5.617  1.00  0.00     0.139 HD
BRANCH  24  27
HETATM   27  C   UNL     1      40.261 -13.178   5.699  1.00  0.00     0.026 A 
HETATM   28  C   UNL     1      41.601 -12.844   5.483  1.00  0.00     0.019 A 
HETATM   29  C   UNL     1      42.546 -13.852   5.263  1.00  0.00     0.038 A 
HETATM   30  C   UNL     1      42.159 -15.193   5.292  1.00  0.00     0.068 A 
HETATM   31  C   UNL     1      40.811 -15.518   5.478  1.00  0.00     0.038 A 
HETATM   32  C   UNL     1      39.858 -14.516   5.679  1.00  0.00     0.019 A 
BRANCH  30  33
HETATM   33  O   UNL     1      42.996 -16.268   5.159  1.00  0.00    -0.351 OA
BRANCH  33  34
HETATM   34  C   UNL     1      42.395 -17.561   5.261  1.00  0.00     0.179 C 
BRANCH  34  35
HETATM   35  C   UNL     1      43.259 -18.448   6.171  1.00  0.00     0.002 C 
HETATM   36  C   UNL     1      44.698 -18.490   5.659  1.00  0.00     0.011 C 
HETATM   37  C   UNL     1      43.230 -17.953   7.619  1.00  0.00     0.011 C 
ENDBRANCH  34  35
ENDBRANCH  33  34
ENDBRANCH  30  33
ENDBRANCH  24  27
ENDBRANCH  21  23
ENDBRANCH   1  21
TORSDOF 9
ENDMDL
MODEL 3
REMARK VINA RESULT:      -8.4      4.426      7.927
REMARK  9 active torsions:
REMARK  status: ('A' for Active; 'I' for Inactive)
REMARK    1  A    between atoms: C_7  and  C_8 
REMARK    2  A    between atoms: C_9  and  O_10 
REMARK    3  A    between atoms: C_13  and  N_14 
REMARK    4  A    between atoms: N_14  and  C_15 
REMARK    5  A    between atoms: C_15  and  N_16 
REMARK       I    between atoms: N_16  and  C_17 
REMARK    6  A    between atoms: C_17  and  C_18 
REMARK    7  A    between atoms: C_21  and  O_22 
REMARK    8  A    between atoms: O_22  and  C_23 
REMARK    9  A    between atoms: C_23  and  C_24 
ROOT
HETATM    1  N   UNL     1      41.415 -13.332   4.031  1.00  0.00    -0.337 N 
HETATM    2  H   UNL     1      42.396 -13.256   3.791  1.00  0.00     0.168 HD
ENDROOT
BRANCH   1   3
HETATM    3  C   UNL     1      40.923 -12.366   4.939  1.00  0.00     0.035 A 
HETATM    4  C   UNL     1      39.881 -11.537   4.519  1.00  0.00     0.032 A 
HETATM    5  C   UNL     1      39.403 -10.528   5.356  1.00  0.00     0.040 A 
HETATM    6  C   UNL     1      39.988 -10.322   6.605  1.00  0.00     0.080 A 
HETATM    7  C   UNL     1      41.055 -11.120   7.043  1.00  0.00     0.052 A 
HETATM    8  C   UNL     1      41.509 -12.144   6.192  1.00  0.00     0.048 A 
BRANCH   6   9
HETATM    9  O   UNL     1      39.470  -9.294   7.351  1.00  0.00    -0.360 OA
HETATM   10  H   UNL     1      39.315  -8.528   6.757  1.00  0.00     0.217 HD
ENDBRANCH   6   9
BRANCH   7  11
HETATM   11  C   UNL     1      41.702 -10.864   8.327  1.00  0.00     0.183 A 
HETATM   12  N   UNL     1      42.985 -10.625   8.560  1.00  0.00    -0.221 NA
HETATM   13  C   UNL     1      43.044 -10.504   9.928  1.00  0.00     0.093 A 
HETATM   14  C   UNL     1      41.780 -10.661  10.471  1.00  0.00     0.107 A 
HETATM   15  C   UNL     1      44.123 -10.272  10.789  1.00  0.00     0.035 A 
HETATM   16  C   UNL     1      41.483 -10.597  11.828  1.00  0.00     0.046 A 
HETATM   17  O   UNL     1      40.911 -10.892   9.447  1.00  0.00    -0.289 OA
HETATM   18  C   UNL     1      42.568 -10.350  12.687  1.00  0.00    -0.059 A 
HETATM   19  C   UNL     1      42.346 -10.301  14.172  1.00  0.00     0.048 C 
HETATM   20  C   UNL     1      43.869 -10.205  12.169  1.00  0.00     0.009 A 
ENDBRANCH   7  11
ENDBRANCH   1   3
BRANCH   1  21
HETATM   21  C   UNL     1      40.695 -14.264   3.324  1.00  0.00     0.157 C 
HETATM   22  S   UNL     1      40.392 -14.241   1.676  1.00  0.00    -0.047 SA
BRANCH  21  23
HETATM   23  N   UNL     1      40.201 -15.333   4.041  1.00  0.00    -0.201 NA
HETATM   24  C   UNL     1      40.883 -15.857   5.118  1.00  0.00     0.237 C 
HETATM   25  O   UNL     1      40.604 -15.557   6.274  1.00  0.00    -0.274 OA
HETATM   26  H   UNL     1      39.261 -15.072   4.321  1.00  0.00     0.139 HD
BRANCH  24  27
HETATM   27  C   UNL     1      41.915 -16.879   4.836  1.00  0.00     0.026 A 
HETATM   28  C   UNL     1      42.825 -17.216   5.841  1.00  0.00     0.019 A 
HETATM   29  C   UNL     1      43.741 -18.255   5.637  1.00  0.00     0.038 A 
HETATM   30  C   UNL     1      43.724 -18.978   4.443  1.00  0.00     0.068 A 
HETATM   31  C   UNL     1      42.830 -18.615   3.429  1.00  0.00     0.038 A 
HETATM   32  C   UNL     1      41.926 -17.566   3.619  1.00  0.00     0.019 A 
BRANCH  30  33
HETATM   33  O   UNL     1      44.518 -20.053   4.151  1.00  0.00    -0.351 OA
BRANCH  33  34
HETATM   34  C   UNL     1      44.866 -20.235   2.775  1.00  0.00     0.179 C 
BRANCH  34  35
HETATM   35  C   UNL     1      44.628 -21.702   2.385  1.00  0.00     0.002 C 
HETATM   36  C   UNL     1      44.577 -22.581   3.634  1.00  0.00     0.011 C 
HETATM   37  C   UNL     1      43.338 -21.859   1.577  1.00  0.00     0.011 C 
ENDBRANCH  34  35
ENDBRANCH  33  34
ENDBRANCH  30  33
ENDBRANCH  24  27
ENDBRANCH  21  23
ENDBRANCH   1  21
TORSDOF 9
ENDMDL
MODEL 4
REMARK VINA RESULT:      -8.4      4.258      8.953
REMARK  9 active torsions:
REMARK  status: ('A' for Active; 'I' for Inactive)
REMARK    1  A    between atoms: C_7  and  C_8 
REMARK    2  A    between atoms: C_9  and  O_10 
REMARK    3  A    between atoms: C_13  and  N_14 
REMARK    4  A    between atoms: N_14  and  C_15 
REMARK    5  A    between atoms: C_15  and  N_16 
REMARK       I    between atoms: N_16  and  C_17 
REMARK    6  A    between atoms: C_17  and  C_18 
REMARK    7  A    between atoms: C_21  and  O_22 
REMARK    8  A    between atoms: O_22  and  C_23 
REMARK    9  A    between atoms: C_23  and  C_24 
ROOT
HETATM    1  N   UNL     1      40.521 -13.004   4.242  1.00  0.00    -0.337 N 
HETATM    2  H   UNL     1      40.082 -13.486   3.466  1.00  0.00     0.168 HD
ENDROOT
BRANCH   1   3
HETATM    3  C   UNL     1      41.560 -13.702   4.898  1.00  0.00     0.035 A 
HETATM    4  C   UNL     1      42.332 -13.009   5.833  1.00  0.00     0.032 A 
HETATM    5  C   UNL     1      43.408 -13.637   6.461  1.00  0.00     0.040 A 
HETATM    6  C   UNL     1      43.738 -14.951   6.133  1.00  0.00     0.080 A 
HETATM    7  C   UNL     1      43.000 -15.663   5.177  1.00  0.00     0.052 A 
HETATM    8  C   UNL     1      41.907 -15.019   4.569  1.00  0.00     0.048 A 
BRANCH   6   9
HETATM    9  O   UNL     1      44.824 -15.480   6.783  1.00  0.00    -0.360 OA
HETATM   10  H   UNL     1      44.763 -15.243   7.733  1.00  0.00     0.217 HD
ENDBRANCH   6   9
BRANCH   7  11
HETATM   11  C   UNL     1      43.383 -17.020   4.795  1.00  0.00     0.183 A 
HETATM   12  N   UNL     1      44.094 -17.893   5.493  1.00  0.00    -0.221 NA
HETATM   13  C   UNL     1      44.191 -18.975   4.650  1.00  0.00     0.093 A 
HETATM   14  C   UNL     1      43.514 -18.714   3.470  1.00  0.00     0.107 A 
HETATM   15  C   UNL     1      44.838 -20.206   4.798  1.00  0.00     0.035 A 
HETATM   16  C   UNL     1      43.412 -19.597   2.401  1.00  0.00     0.046 A 
HETATM   17  O   UNL     1      42.991 -17.459   3.555  1.00  0.00    -0.289 OA
HETATM   18  C   UNL     1      44.051 -20.838   2.560  1.00  0.00    -0.059 A 
HETATM   19  C   UNL     1      44.024 -21.840   1.440  1.00  0.00     0.048 C 
HETATM   20  C   UNL     1      44.764 -21.127   3.740  1.00  0.00     0.009 A 
ENDBRANCH   7  11
ENDBRANCH   1   3
BRANCH   1  21
HETATM   21  C   UNL     1      40.135 -11.698   4.430  1.00  0.00     0.157 C 
HETATM   22  S   UNL     1      40.728 -10.361   3.613  1.00  0.00    -0.047 SA
BRANCH  21  23
HETATM   23  N   UNL     1      39.145 -11.479   5.364  1.00  0.00    -0.201 NA
HETATM   24  C   UNL     1      39.137 -10.350   6.155  1.00  0.00     0.237 C 
HETATM   25  O   UNL     1      38.448  -9.372   5.887  1.00  0.00    -0.274 OA
HETATM   26  H   UNL     1      38.265 -11.556   4.864  1.00  0.00     0.139 HD
BRANCH  24  27
HETATM   27  C   UNL     1      39.925 -10.393   7.407  1.00  0.00     0.026 A 
HETATM   28  C   UNL     1      39.325 -10.892   8.567  1.00  0.00     0.019 A 
HETATM   29  C   UNL     1      40.079 -11.043   9.736  1.00  0.00     0.038 A 
HETATM   30  C   UNL     1      41.440 -10.729   9.736  1.00  0.00     0.068 A 
HETATM   31  C   UNL     1      42.026 -10.202   8.580  1.00  0.00     0.038 A 
HETATM   32  C   UNL     1      41.274 -10.029   7.415  1.00  0.00     0.019 A 
BRANCH  30  33
HETATM   33  O   UNL     1      42.296 -10.896  10.790  1.00  0.00    -0.351 OA
BRANCH  33  34
HETATM   34  C   UNL     1      43.478 -10.091  10.786  1.00  0.00     0.179 C 
BRANCH  34  35
HETATM   35  C   UNL     1      44.700 -10.988  11.033  1.00  0.00     0.002 C 
HETATM   36  C   UNL     1      44.257 -12.425  11.305  1.00  0.00     0.011 C 
HETATM   37  C   UNL     1      45.666 -10.950   9.846  1.00  0.00     0.011 C 
ENDBRANCH  34  35
ENDBRANCH  33  34
ENDBRANCH  30  33
ENDBRANCH  24  27
ENDBRANCH  21  23
ENDBRANCH   1  21
TORSDOF 9
ENDMDL
MODEL 5
REMARK VINA RESULT:      -8.4      2.530      7.163
REMARK  9 active torsions:
REMARK  status: ('A' for Active; 'I' for Inactive)
REMARK    1  A    between atoms: C_7  and  C_8 
REMARK    2  A    between atoms: C_9  and  O_10 
REMARK    3  A    between atoms: C_13  and  N_14 
REMARK    4  A    between atoms: N_14  and  C_15 
REMARK    5  A    between atoms: C_15  and  N_16 
REMARK       I    between atoms: N_16  and  C_17 
REMARK    6  A    between atoms: C_17  and  C_18 
REMARK    7  A    between atoms: C_21  and  O_22 
REMARK    8  A    between atoms: O_22  and  C_23 
REMARK    9  A    between atoms: C_23  and  C_24 
ROOT
HETATM    1  N   UNL     1      42.153 -12.394   1.830  1.00  0.00    -0.337 N 
HETATM    2  H   UNL     1      43.131 -12.130   1.862  1.00  0.00     0.168 HD
ENDROOT
BRANCH   1   3
HETATM    3  C   UNL     1      41.599 -12.872   3.040  1.00  0.00     0.035 A 
HETATM    4  C   UNL     1      40.575 -12.131   3.633  1.00  0.00     0.032 A 
HETATM    5  C   UNL     1      40.039 -12.528   4.859  1.00  0.00     0.040 A 
HETATM    6  C   UNL     1      40.548 -13.649   5.513  1.00  0.00     0.080 A 
HETATM    7  C   UNL     1      41.596 -14.396   4.956  1.00  0.00     0.052 A 
HETATM    8  C   UNL     1      42.109 -13.991   3.710  1.00  0.00     0.048 A 
BRANCH   6   9
HETATM    9  O   UNL     1      39.976 -13.952   6.723  1.00  0.00    -0.360 OA
HETATM   10  H   UNL     1      39.467 -13.171   7.030  1.00  0.00     0.217 HD
ENDBRANCH   6   9
BRANCH   7  11
HETATM   11  C   UNL     1      42.164 -15.536   5.671  1.00  0.00     0.183 A 
HETATM   12  N   UNL     1      42.786 -15.536   6.842  1.00  0.00    -0.221 NA
HETATM   13  C   UNL     1      43.147 -16.851   7.012  1.00  0.00     0.093 A 
HETATM   14  C   UNL     1      42.710 -17.604   5.935  1.00  0.00     0.107 A 
HETATM   15  C   UNL     1      43.851 -17.489   8.040  1.00  0.00     0.035 A 
HETATM   16  C   UNL     1      42.908 -18.972   5.788  1.00  0.00     0.046 A 
HETATM   17  O   UNL     1      42.077 -16.765   5.068  1.00  0.00    -0.289 OA
HETATM   18  C   UNL     1      43.603 -19.611   6.829  1.00  0.00    -0.059 A 
HETATM   19  C   UNL     1      43.895 -21.082   6.738  1.00  0.00     0.048 C 
HETATM   20  C   UNL     1      44.077 -18.871   7.930  1.00  0.00     0.009 A 
ENDBRANCH   7  11
ENDBRANCH   1   3
BRANCH   1  21
HETATM   21  C   UNL     1      41.494 -12.104   0.660  1.00  0.00     0.157 C 
HETATM   22  S   UNL     1      40.705 -10.672   0.295  1.00  0.00    -0.047 SA
BRANCH  21  23
HETATM   23  N   UNL     1      41.511 -13.080  -0.314  1.00  0.00    -0.201 NA
HETATM   24  C   UNL     1      40.672 -14.171  -0.257  1.00  0.00     0.237 C 
HETATM   25  O   UNL     1      39.623 -14.220  -0.890  1.00  0.00    -0.274 OA
HETATM   26  H   UNL     1      41.389 -12.597  -1.198  1.00  0.00     0.139 HD
BRANCH  24  27
HETATM   27  C   UNL     1      41.129 -15.338   0.531  1.00  0.00     0.026 A 
HETATM   28  C   UNL     1      40.221 -15.980   1.378  1.00  0.00     0.019 A 
HETATM   29  C   UNL     1      40.596 -17.149   2.050  1.00  0.00     0.038 A 
HETATM   30  C   UNL     1      41.866 -17.694   1.849  1.00  0.00     0.068 A 
HETATM   31  C   UNL     1      42.779 -17.030   1.024  1.00  0.00     0.038 A 
HETATM   32  C   UNL     1      42.418 -15.852   0.364  1.00  0.00     0.019 A 
BRANCH  30  33
HETATM   33  O   UNL     1      42.326 -18.863   2.393  1.00  0.00    -0.351 OA
BRANCH  33  34
HETATM   34  C   UNL     1      43.580 -19.344   1.903  1.00  0.00     0.179 C 
BRANCH  34  35
HETATM   35  C   UNL     1      43.891 -20.699   2.557  1.00  0.00     0.002 C 
HETATM   36  C   UNL     1      43.980 -21.793   1.494  1.00  0.00     0.011 C 
HETATM   37  C   UNL     1      45.189 -20.641   3.365  1.00  0.00     0.011 C 
ENDBRANCH  34  35
ENDBRANCH  33  34
ENDBRANCH  30  33
ENDBRANCH  24  27
ENDBRANCH  21  23
ENDBRANCH   1  21
TORSDOF 9
ENDMDL
MODEL 6
REMARK VINA RESULT:      -8.3      2.893      6.805
REMARK  9 active torsions:
REMARK  status: ('A' for Active; 'I' for Inactive)
REMARK    1  A    between atoms: C_7  and  C_8 
REMARK    2  A    between atoms: C_9  and  O_10 
REMARK    3  A    between atoms: C_13  and  N_14 
REMARK    4  A    between atoms: N_14  and  C_15 
REMARK    5  A    between atoms: C_15  and  N_16 
REMARK       I    between atoms: N_16  and  C_17 
REMARK    6  A    between atoms: C_17  and  C_18 
REMARK    7  A    between atoms: C_21  and  O_22 
REMARK    8  A    between atoms: O_22  and  C_23 
REMARK    9  A    between atoms: C_23  and  C_24 
ROOT
HETATM    1  N   UNL     1      38.516 -12.166   2.366  1.00  0.00    -0.337 N 
HETATM    2  H   UNL     1      37.773 -11.494   2.221  1.00  0.00     0.168 HD
ENDROOT
BRANCH   1   3
HETATM    3  C   UNL     1      39.129 -12.148   3.640  1.00  0.00     0.035 A 
HETATM    4  C   UNL     1      38.926 -11.031   4.453  1.00  0.00     0.032 A 
HETATM    5  C   UNL     1      39.560 -10.939   5.693  1.00  0.00     0.040 A 
HETATM    6  C   UNL     1      40.426 -11.949   6.111  1.00  0.00     0.080 A 
HETATM    7  C   UNL     1      40.671 -13.069   5.304  1.00  0.00     0.052 A 
HETATM    8  C   UNL     1      40.008 -13.152   4.066  1.00  0.00     0.048 A 
BRANCH   6   9
HETATM    9  O   UNL     1      41.022 -11.764   7.332  1.00  0.00    -0.360 OA
HETATM   10  H   UNL     1      41.755 -12.411   7.421  1.00  0.00     0.217 HD
ENDBRANCH   6   9
BRANCH   7  11
HETATM   11  C   UNL     1      41.622 -14.097   5.720  1.00  0.00     0.183 A 
HETATM   12  N   UNL     1      42.936 -13.986   5.853  1.00  0.00    -0.221 NA
HETATM   13  C   UNL     1      43.329 -15.251   6.219  1.00  0.00     0.093 A 
HETATM   14  C   UNL     1      42.224 -16.081   6.310  1.00  0.00     0.107 A 
HETATM   15  C   UNL     1      44.595 -15.784   6.484  1.00  0.00     0.035 A 
HETATM   16  C   UNL     1      42.265 -17.425   6.659  1.00  0.00     0.046 A 
HETATM   17  O   UNL     1      41.122 -15.345   5.991  1.00  0.00    -0.289 OA
HETATM   18  C   UNL     1      43.538 -17.953   6.938  1.00  0.00    -0.059 A 
HETATM   19  C   UNL     1      43.682 -19.407   7.288  1.00  0.00     0.048 C 
HETATM   20  C   UNL     1      44.684 -17.141   6.836  1.00  0.00     0.009 A 
ENDBRANCH   7  11
ENDBRANCH   1   3
BRANCH   1  21
HETATM   21  C   UNL     1      38.703 -13.079   1.356  1.00  0.00     0.157 C 
HETATM   22  S   UNL     1      37.571 -14.176   0.789  1.00  0.00    -0.047 SA
BRANCH  21  23
HETATM   23  N   UNL     1      39.935 -13.065   0.736  1.00  0.00    -0.201 NA
HETATM   24  C   UNL     1      40.468 -14.200   0.166  1.00  0.00     0.237 C 
HETATM   25  O   UNL     1      40.389 -14.424  -1.037  1.00  0.00    -0.274 OA
HETATM   26  H   UNL     1      39.894 -12.320   0.047  1.00  0.00     0.139 HD
BRANCH  24  27
HETATM   27  C   UNL     1      41.233 -15.109   1.050  1.00  0.00     0.026 A 
HETATM   28  C   UNL     1      40.944 -16.476   1.027  1.00  0.00     0.019 A 
HETATM   29  C   UNL     1      41.724 -17.368   1.772  1.00  0.00     0.038 A 
HETATM   30  C   UNL     1      42.811 -16.898   2.511  1.00  0.00     0.068 A 
HETATM   31  C   UNL     1      43.075 -15.525   2.553  1.00  0.00     0.038 A 
HETATM   32  C   UNL     1      42.289 -14.626   1.827  1.00  0.00     0.019 A 
BRANCH  30  33
HETATM   33  O   UNL     1      43.686 -17.674   3.223  1.00  0.00    -0.351 OA
BRANCH  33  34
HETATM   34  C   UNL     1      43.291 -19.029   3.458  1.00  0.00     0.179 C 
BRANCH  34  35
HETATM   35  C   UNL     1      44.406 -19.970   2.979  1.00  0.00     0.002 C 
HETATM   36  C   UNL     1      45.158 -20.554   4.174  1.00  0.00     0.011 C 
HETATM   37  C   UNL     1      43.846 -21.095   2.107  1.00  0.00     0.011 C 
ENDBRANCH  34  35
ENDBRANCH  33  34
ENDBRANCH  30  33
ENDBRANCH  24  27
ENDBRANCH  21  23
ENDBRANCH   1  21
TORSDOF 9
ENDMDL
MODEL 7
REMARK VINA RESULT:      -8.3      2.897      7.133
REMARK  9 active torsions:
REMARK  status: ('A' for Active; 'I' for Inactive)
REMARK    1  A    between atoms: C_7  and  C_8 
REMARK    2  A    between atoms: C_9  and  O_10 
REMARK    3  A    between atoms: C_13  and  N_14 
REMARK    4  A    between atoms: N_14  and  C_15 
REMARK    5  A    between atoms: C_15  and  N_16 
REMARK       I    between atoms: N_16  and  C_17 
REMARK    6  A    between atoms: C_17  and  C_18 
REMARK    7  A    between atoms: C_21  and  O_22 
REMARK    8  A    between atoms: O_22  and  C_23 
REMARK    9  A    between atoms: C_23  and  C_24 
ROOT
HETATM    1  N   UNL     1      41.112 -10.966   2.146  1.00  0.00    -0.337 N 
HETATM    2  H   UNL     1      42.063 -10.616   2.128  1.00  0.00     0.168 HD
ENDROOT
BRANCH   1   3
HETATM    3  C   UNL     1      40.769 -11.775   3.253  1.00  0.00     0.035 A 
HETATM    4  C   UNL     1      39.665 -11.405   4.023  1.00  0.00     0.032 A 
HETATM    5  C   UNL     1      39.324 -12.137   5.162  1.00  0.00     0.040 A 
HETATM    6  C   UNL     1      40.107 -13.221   5.554  1.00  0.00     0.080 A 
HETATM    7  C   UNL     1      41.238 -13.600   4.818  1.00  0.00     0.052 A 
HETATM    8  C   UNL     1      41.554 -12.861   3.662  1.00  0.00     0.048 A 
BRANCH   6   9
HETATM    9  O   UNL     1      39.711 -13.867   6.698  1.00  0.00    -0.360 OA
HETATM   10  H   UNL     1      38.893 -13.438   7.030  1.00  0.00     0.217 HD
ENDBRANCH   6   9
BRANCH   7  11
HETATM   11  C   UNL     1      42.087 -14.701   5.264  1.00  0.00     0.183 A 
HETATM   12  N   UNL     1      43.320 -14.636   5.748  1.00  0.00    -0.221 NA
HETATM   13  C   UNL     1      43.651 -15.954   5.959  1.00  0.00     0.093 A 
HETATM   14  C   UNL     1      42.588 -16.769   5.606  1.00  0.00     0.107 A 
HETATM   15  C   UNL     1      44.825 -16.545   6.435  1.00  0.00     0.035 A 
HETATM   16  C   UNL     1      42.587 -18.156   5.695  1.00  0.00     0.046 A 
HETATM   17  O   UNL     1      41.579 -15.971   5.158  1.00  0.00    -0.289 OA
HETATM   18  C   UNL     1      43.764 -18.745   6.188  1.00  0.00    -0.059 A 
HETATM   19  C   UNL     1      43.865 -20.242   6.284  1.00  0.00     0.048 C 
HETATM   20  C   UNL     1      44.869 -17.946   6.537  1.00  0.00     0.009 A 
ENDBRANCH   7  11
ENDBRANCH   1   3
BRANCH   1  21
HETATM   21  C   UNL     1      40.276 -10.476   1.171  1.00  0.00     0.157 C 
HETATM   22  S   UNL     1      39.419  -9.037   1.232  1.00  0.00    -0.047 SA
BRANCH  21  23
HETATM   23  N   UNL     1      40.157 -11.233   0.025  1.00  0.00    -0.201 NA
HETATM   24  C   UNL     1      39.236 -12.252  -0.074  1.00  0.00     0.237 C 
HETATM   25  O   UNL     1      38.152 -12.100  -0.626  1.00  0.00    -0.274 OA
HETATM   26  H   UNL     1      40.024 -10.572  -0.734  1.00  0.00     0.139 HD
BRANCH  24  27
HETATM   27  C   UNL     1      39.641 -13.584   0.431  1.00  0.00     0.026 A 
HETATM   28  C   UNL     1      40.864 -14.120   0.020  1.00  0.00     0.019 A 
HETATM   29  C   UNL     1      41.318 -15.326   0.566  1.00  0.00     0.038 A 
HETATM   30  C   UNL     1      40.567 -15.977   1.547  1.00  0.00     0.068 A 
HETATM   31  C   UNL     1      39.330 -15.450   1.931  1.00  0.00     0.038 A 
HETATM   32  C   UNL     1      38.860 -14.256   1.376  1.00  0.00     0.019 A 
BRANCH  30  33
HETATM   33  O   UNL     1      40.934 -17.121   2.203  1.00  0.00    -0.351 OA
BRANCH  33  34
HETATM   34  C   UNL     1      41.731 -18.052   1.465  1.00  0.00     0.179 C 
BRANCH  34  35
HETATM   35  C   UNL     1      43.082 -18.230   2.174  1.00  0.00     0.002 C 
HETATM   36  C   UNL     1      43.485 -19.704   2.185  1.00  0.00     0.011 C 
HETATM   37  C   UNL     1      44.174 -17.390   1.508  1.00  0.00     0.011 C 
ENDBRANCH  34  35
ENDBRANCH  33  34
ENDBRANCH  30  33
ENDBRANCH  24  27
ENDBRANCH  21  23
ENDBRANCH   1  21
TORSDOF 9
ENDMDL
MODEL 8
REMARK VINA RESULT:      -8.2      4.956      9.406
REMARK  9 active torsions:
REMARK  status: ('A' for Active; 'I' for Inactive)
REMARK    1  A    between atoms: C_7  and  C_8 
REMARK    2  A    between atoms: C_9  and  O_10 
REMARK    3  A    between atoms: C_13  and  N_14 
REMARK    4  A    between atoms: N_14  and  C_15 
REMARK    5  A    between atoms: C_15  and  N_16 
REMARK       I    between atoms: N_16  and  C_17 
REMARK    6  A    between atoms: C_17  and  C_18 
REMARK    7  A    between atoms: C_21  and  O_22 
REMARK    8  A    between atoms: O_22  and  C_23 
REMARK    9  A    between atoms: C_23  and  C_24 
ROOT
HETATM    1  N   UNL     1      40.972 -12.789   5.817  1.00  0.00    -0.337 N 
HETATM    2  H   UNL     1      41.596 -13.040   6.574  1.00  0.00     0.168 HD
ENDROOT
BRANCH   1   3
HETATM    3  C   UNL     1      40.831 -13.747   4.787  1.00  0.00     0.035 A 
HETATM    4  C   UNL     1      39.799 -13.574   3.863  1.00  0.00     0.032 A 
HETATM    5  C   UNL     1      39.581 -14.525   2.865  1.00  0.00     0.040 A 
HETATM    6  C   UNL     1      40.373 -15.670   2.808  1.00  0.00     0.080 A 
HETATM    7  C   UNL     1      41.399 -15.886   3.739  1.00  0.00     0.052 A 
HETATM    8  C   UNL     1      41.615 -14.906   4.725  1.00  0.00     0.048 A 
BRANCH   6   9
HETATM    9  O   UNL     1      40.072 -16.562   1.809  1.00  0.00    -0.360 OA
HETATM   10  H   UNL     1      40.753 -17.269   1.808  1.00  0.00     0.217 HD
ENDBRANCH   6   9
BRANCH   7  11
HETATM   11  C   UNL     1      42.189 -17.114   3.710  1.00  0.00     0.183 A 
HETATM   12  N   UNL     1      43.019 -17.572   4.637  1.00  0.00    -0.221 NA
HETATM   13  C   UNL     1      43.519 -18.724   4.078  1.00  0.00     0.093 A 
HETATM   14  C   UNL     1      42.953 -18.928   2.830  1.00  0.00     0.107 A 
HETATM   15  C   UNL     1      44.457 -19.648   4.551  1.00  0.00     0.035 A 
HETATM   16  C   UNL     1      43.237 -20.000   1.994  1.00  0.00     0.046 A 
HETATM   17  O   UNL     1      42.096 -17.896   2.586  1.00  0.00    -0.289 OA
HETATM   18  C   UNL     1      44.169 -20.933   2.479  1.00  0.00    -0.059 A 
HETATM   19  C   UNL     1      44.565 -22.106   1.626  1.00  0.00     0.048 C 
HETATM   20  C   UNL     1      44.778 -20.746   3.736  1.00  0.00     0.009 A 
ENDBRANCH   7  11
ENDBRANCH   1   3
BRANCH   1  21
HETATM   21  C   UNL     1      40.256 -11.630   5.991  1.00  0.00     0.157 C 
HETATM   22  S   UNL     1      40.349 -10.254   5.038  1.00  0.00    -0.047 SA
BRANCH  21  23
HETATM   23  N   UNL     1      39.356 -11.613   7.035  1.00  0.00    -0.201 NA
HETATM   24  C   UNL     1      39.385 -10.628   7.997  1.00  0.00     0.237 C 
HETATM   25  O   UNL     1      38.638  -9.655   7.957  1.00  0.00    -0.274 OA
HETATM   26  H   UNL     1      38.434 -11.655   6.612  1.00  0.00     0.139 HD
BRANCH  24  27
HETATM   27  C   UNL     1      40.294 -10.829   9.148  1.00  0.00     0.026 A 
HETATM   28  C   UNL     1      41.656 -10.560   8.989  1.00  0.00     0.019 A 
HETATM   29  C   UNL     1      42.518 -10.638  10.089  1.00  0.00     0.038 A 
HETATM   30  C   UNL     1      42.013 -10.951  11.352  1.00  0.00     0.068 A 
HETATM   31  C   UNL     1      40.655 -11.249  11.498  1.00  0.00     0.038 A 
HETATM   32  C   UNL     1      39.791 -11.192  10.400  1.00  0.00     0.019 A 
BRANCH  30  33
HETATM   33  O   UNL     1      42.739 -10.993  12.512  1.00  0.00    -0.351 OA
BRANCH  33  34
HETATM   34  C   UNL     1      43.661  -9.920  12.727  1.00  0.00     0.179 C 
BRANCH  34  35
HETATM   35  C   UNL     1      43.181  -9.074  13.916  1.00  0.00     0.002 C 
HETATM   36  C   UNL     1      42.397  -7.860  13.421  1.00  0.00     0.011 C 
HETATM   37  C   UNL     1      42.323  -9.901  14.875  1.00  0.00     0.011 C 
ENDBRANCH  34  35
ENDBRANCH  33  34
ENDBRANCH  30  33
ENDBRANCH  24  27
ENDBRANCH  21  23
ENDBRANCH   1  21
TORSDOF 9
ENDMDL
MODEL 9
REMARK VINA RESULT:      -8.1      3.057      6.634
REMARK  9 active torsions:
REMARK  status: ('A' for Active; 'I' for Inactive)
REMARK    1  A    between atoms: C_7  and  C_8 
REMARK    2  A    between atoms: C_9  and  O_10 
REMARK    3  A    between atoms: C_13  and  N_14 
REMARK    4  A    between atoms: N_14  and  C_15 
REMARK    5  A    between atoms: C_15  and  N_16 
REMARK       I    between atoms: N_16  and  C_17 
REMARK    6  A    between atoms: C_17  and  C_18 
REMARK    7  A    between atoms: C_21  and  O_22 
REMARK    8  A    between atoms: O_22  and  C_23 
REMARK    9  A    between atoms: C_23  and  C_24 
ROOT
HETATM    1  N   UNL     1      38.011 -14.136   0.012  1.00  0.00    -0.337 N 
HETATM    2  H   UNL     1      37.312 -14.866   0.090  1.00  0.00     0.168 HD
ENDROOT
BRANCH   1   3
HETATM    3  C   UNL     1      38.354 -13.476   1.214  1.00  0.00     0.035 A 
HETATM    4  C   UNL     1      37.859 -12.187   1.423  1.00  0.00     0.032 A 
HETATM    5  C   UNL     1      38.221 -11.471   2.565  1.00  0.00     0.040 A 
HETATM    6  C   UNL     1      39.107 -12.027   3.486  1.00  0.00     0.080 A 
HETATM    7  C   UNL     1      39.644 -13.307   3.289  1.00  0.00     0.052 A 
HETATM    8  C   UNL     1      39.251 -14.021   2.142  1.00  0.00     0.048 A 
BRANCH   6   9
HETATM    9  O   UNL     1      39.424 -11.242   4.566  1.00  0.00    -0.360 OA
HETATM   10  H   UNL     1      38.818 -10.471   4.578  1.00  0.00     0.217 HD
ENDBRANCH   6   9
BRANCH   7  11
HETATM   11  C   UNL     1      40.616 -13.863   4.227  1.00  0.00     0.183 A 
HETATM   12  N   UNL     1      41.741 -13.311   4.658  1.00  0.00    -0.221 NA
HETATM   13  C   UNL     1      42.278 -14.276   5.476  1.00  0.00     0.093 A 
HETATM   14  C   UNL     1      41.440 -15.377   5.520  1.00  0.00     0.107 A 
HETATM   15  C   UNL     1      43.470 -14.306   6.209  1.00  0.00     0.035 A 
HETATM   16  C   UNL     1      41.682 -16.532   6.255  1.00  0.00     0.046 A 
HETATM   17  O   UNL     1      40.368 -15.119   4.719  1.00  0.00    -0.289 OA
HETATM   18  C   UNL     1      42.873 -16.552   7.001  1.00  0.00    -0.059 A 
HETATM   19  C   UNL     1      43.235 -17.775   7.796  1.00  0.00     0.048 C 
HETATM   20  C   UNL     1      43.757 -15.456   6.963  1.00  0.00     0.009 A 
ENDBRANCH   7  11
ENDBRANCH   1   3
BRANCH   1  21
HETATM   21  C   UNL     1      38.612 -14.012  -1.217  1.00  0.00     0.157 C 
HETATM   22  S   UNL     1      37.887 -14.270  -2.705  1.00  0.00    -0.047 SA
BRANCH  21  23
HETATM   23  N   UNL     1      39.931 -13.610  -1.219  1.00  0.00    -0.201 NA
HETATM   24  C   UNL     1      40.960 -14.513  -1.376  1.00  0.00     0.237 C 
HETATM   25  O   UNL     1      41.505 -14.697  -2.459  1.00  0.00    -0.274 OA
HETATM   26  H   UNL     1      40.001 -12.881  -1.922  1.00  0.00     0.139 HD
BRANCH  24  27
HETATM   27  C   UNL     1      41.458 -15.193  -0.160  1.00  0.00     0.026 A 
HETATM   28  C   UNL     1      41.211 -16.560  -0.001  1.00  0.00     0.019 A 
HETATM   29  C   UNL     1      41.763 -17.249   1.086  1.00  0.00     0.038 A 
HETATM   30  C   UNL     1      42.587 -16.580   1.993  1.00  0.00     0.068 A 
HETATM   31  C   UNL     1      42.804 -15.206   1.844  1.00  0.00     0.038 A 
HETATM   32  C   UNL     1      42.241 -14.507   0.772  1.00  0.00     0.019 A 
BRANCH  30  33
HETATM   33  O   UNL     1      43.237 -17.153   3.052  1.00  0.00    -0.351 OA
BRANCH  33  34
HETATM   34  C   UNL     1      42.877 -18.501   3.367  1.00  0.00     0.179 C 
BRANCH  34  35
HETATM   35  C   UNL     1      44.068 -19.424   3.067  1.00  0.00     0.002 C 
HETATM   36  C   UNL     1      44.566 -20.083   4.354  1.00  0.00     0.011 C 
HETATM   37  C   UNL     1      43.696 -20.493   2.038  1.00  0.00     0.011 C 
ENDBRANCH  34  35
ENDBRANCH  33  34
ENDBRANCH  30  33
ENDBRANCH  24  27
ENDBRANCH  21  23
ENDBRANCH   1  21
TORSDOF 9
ENDMDL
MODEL 10
REMARK VINA RESULT:      -7.8      2.545      6.286
REMARK  9 active torsions:
REMARK  status: ('A' for Active; 'I' for Inactive)
REMARK    1  A    between atoms: C_7  and  C_8 
REMARK    2  A    between atoms: C_9  and  O_10 
REMARK    3  A    between atoms: C_13  and  N_14 
REMARK    4  A    between atoms: N_14  and  C_15 
REMARK    5  A    between atoms: C_15  and  N_16 
REMARK       I    between atoms: N_16  and  C_17 
REMARK    6  A    between atoms: C_17  and  C_18 
REMARK    7  A    between atoms: C_21  and  O_22 
REMARK    8  A    between atoms: O_22  and  C_23 
REMARK    9  A    between atoms: C_23  and  C_24 
ROOT
HETATM    1  N   UNL     1      39.774 -11.261   1.311  1.00  0.00    -0.337 N 
HETATM    2  H   UNL     1      40.410 -10.481   1.428  1.00  0.00     0.168 HD
ENDROOT
BRANCH   1   3
HETATM    3  C   UNL     1      40.303 -12.403   0.667  1.00  0.00     0.035 A 
HETATM    4  C   UNL     1      40.219 -12.472  -0.725  1.00  0.00     0.032 A 
HETATM    5  C   UNL     1      40.671 -13.606  -1.402  1.00  0.00     0.040 A 
HETATM    6  C   UNL     1      41.178 -14.689  -0.687  1.00  0.00     0.080 A 
HETATM    7  C   UNL     1      41.249 -14.661   0.713  1.00  0.00     0.052 A 
HETATM    8  C   UNL     1      40.806 -13.501   1.375  1.00  0.00     0.048 A 
BRANCH   6   9
HETATM    9  O   UNL     1      41.577 -15.770  -1.433  1.00  0.00    -0.360 OA
HETATM   10  H   UNL     1      40.829 -16.047  -2.003  1.00  0.00     0.217 HD
ENDBRANCH   6   9
BRANCH   7  11
HETATM   11  C   UNL     1      41.728 -15.820   1.462  1.00  0.00     0.183 A 
HETATM   12  N   UNL     1      41.382 -16.202   2.682  1.00  0.00    -0.221 NA
HETATM   13  C   UNL     1      42.161 -17.314   2.903  1.00  0.00     0.093 A 
HETATM   14  C   UNL     1      42.943 -17.570   1.789  1.00  0.00     0.107 A 
HETATM   15  C   UNL     1      42.275 -18.154   4.015  1.00  0.00     0.035 A 
HETATM   16  C   UNL     1      43.845 -18.621   1.676  1.00  0.00     0.046 A 
HETATM   17  O   UNL     1      42.670 -16.614   0.857  1.00  0.00    -0.289 OA
HETATM   18  C   UNL     1      43.947 -19.472   2.791  1.00  0.00    -0.059 A 
HETATM   19  C   UNL     1      44.924 -20.613   2.772  1.00  0.00     0.048 C 
HETATM   20  C   UNL     1      43.180 -19.227   3.946  1.00  0.00     0.009 A 
ENDBRANCH   7  11
ENDBRANCH   1   3
BRANCH   1  21
HETATM   21  C   UNL     1      38.553 -11.135   1.929  1.00  0.00     0.157 C 
HETATM   22  S   UNL     1      37.053 -11.257   1.193  1.00  0.00    -0.047 SA
BRANCH  21  23
HETATM   23  N   UNL     1      38.572 -10.913   3.289  1.00  0.00    -0.201 NA
HETATM   24  C   UNL     1      39.755 -10.781   3.982  1.00  0.00     0.237 C 
HETATM   25  O   UNL     1      40.222  -9.684   4.272  1.00  0.00    -0.274 OA
HETATM   26  H   UNL     1      37.986 -10.100   3.449  1.00  0.00     0.139 HD
BRANCH  24  27
HETATM   27  C   UNL     1      40.407 -12.023   4.456  1.00  0.00     0.026 A 
HETATM   28  C   UNL     1      41.802 -12.072   4.519  1.00  0.00     0.019 A 
HETATM   29  C   UNL     1      42.439 -13.193   5.064  1.00  0.00     0.038 A 
HETATM   30  C   UNL     1      41.681 -14.248   5.575  1.00  0.00     0.068 A 
HETATM   31  C   UNL     1      40.286 -14.205   5.480  1.00  0.00     0.038 A 
HETATM   32  C   UNL     1      39.643 -13.097   4.920  1.00  0.00     0.019 A 
BRANCH  30  33
HETATM   33  O   UNL     1      42.181 -15.364   6.191  1.00  0.00    -0.351 OA
BRANCH  33  34
HETATM   34  C   UNL     1      43.595 -15.559   6.107  1.00  0.00     0.179 C 
BRANCH  34  35
HETATM   35  C   UNL     1      44.020 -16.620   7.133  1.00  0.00     0.002 C 
HETATM   36  C   UNL     1      42.797 -17.374   7.653  1.00  0.00     0.011 C 
HETATM   37  C   UNL     1      45.027 -17.602   6.531  1.00  0.00     0.011 C 
ENDBRANCH  34  35
ENDBRANCH  33  34
ENDBRANCH  30  33
ENDBRANCH  24  27
ENDBRANCH  21  23
ENDBRANCH   1  21
TORSDOF 9
ENDMDL
