MODEL 1
REMARK VINA RESULT:      -8.5      0.000      0.000
REMARK  3 active torsions:
REMARK  status: ('A' for Active; 'I' for Inactive)
REMARK    1  A    between atoms: C_4  and  C_5 
REMARK       I    between atoms: C_5  and  N_6 
REMARK    2  A    between atoms: C_16  and  C_17 
REMARK    3  A    between atoms: C_27  and  O_28 
ROOT
HETATM    1  C   UNL     1      39.936 -13.364   0.403  1.00  0.00     0.275 C 
HETATM    2  N   UNL     1      40.226 -14.155   1.524  1.00  0.00    -0.339 N 
HETATM    3  C   UNL     1      40.388 -13.509   2.815  1.00  0.00     0.123 C 
HETATM    4  C   UNL     1      40.486 -14.667   3.838  1.00  0.00     0.221 C 
HETATM    5  N   UNL     1      41.745 -14.482   4.690  1.00  0.00    -0.064 N 
HETATM    6  H   UNL     1      41.816 -15.250   5.370  1.00  0.00     0.280 HD
HETATM    7  C   UNL     1      43.055 -14.401   3.920  1.00  0.00     0.236 C 
HETATM    8  C   UNL     1      42.906 -13.383   2.797  1.00  0.00     0.034 C 
HETATM    9  C   UNL     1      41.610 -12.577   2.975  1.00  0.00     0.014 C 
HETATM   10  C   UNL     1      41.589 -12.022   4.420  1.00  0.00     0.034 C 
HETATM   11  C   UNL     1      41.599 -13.162   5.451  1.00  0.00     0.236 C 
HETATM   12  C   UNL     1      40.292 -15.991   3.047  1.00  0.00     0.070 C 
HETATM   13  C   UNL     1      39.683 -15.497   1.721  1.00  0.00     0.138 C 
HETATM   14  O   UNL     1      39.855 -12.137   0.502  1.00  0.00    -0.266 OA
ENDROOT
BRANCH   1  15
HETATM   15  C   UNL     1      39.702 -13.984  -0.942  1.00  0.00     0.157 A 
HETATM   16  N   UNL     1      38.439 -13.924  -1.443  1.00  0.00    -0.253 NA
HETATM   17  C   UNL     1      38.244 -14.491  -2.657  1.00  0.00     0.117 A 
HETATM   18  C   UNL     1      39.242 -15.111  -3.392  1.00  0.00     0.022 A 
HETATM   19  C   UNL     1      40.523 -15.176  -2.851  1.00  0.00     0.040 A 
HETATM   20  C   UNL     1      40.760 -14.618  -1.601  1.00  0.00     0.100 A 
BRANCH  20  21
HETATM   21  O   UNL     1      42.028 -14.732  -1.103  1.00  0.00    -0.358 OA
HETATM   22  H   UNL     1      41.972 -15.080  -0.186  1.00  0.00     0.218 HD
ENDBRANCH  20  21
ENDBRANCH   1  15
BRANCH  12  23
HETATM   23  C   UNL     1      41.461 -16.944   2.896  1.00  0.00    -0.044 A 
HETATM   24  C   UNL     1      42.137 -17.005   1.664  1.00  0.00     0.050 A 
HETATM   25  C   UNL     1      43.224 -17.866   1.492  1.00  0.00     0.119 A 
HETATM   26  F   UNL     1      43.832 -17.911   0.301  1.00  0.00    -0.206 F 
HETATM   27  C   UNL     1      43.671 -18.677   2.522  1.00  0.00     0.084 A 
HETATM   28  C   UNL     1      43.019 -18.611   3.743  1.00  0.00     0.119 A 
HETATM   29  F   UNL     1      43.425 -19.394   4.750  1.00  0.00    -0.206 F 
HETATM   30  C   UNL     1      41.930 -17.760   3.941  1.00  0.00     0.050 A 
ENDBRANCH  12  23
TORSDOF 3
ENDMDL
MODEL 2
REMARK VINA RESULT:      -8.0      3.250      6.063
REMARK  3 active torsions:
REMARK  status: ('A' for Active; 'I' for Inactive)
REMARK    1  A    between atoms: C_4  and  C_5 
REMARK       I    between atoms: C_5  and  N_6 
REMARK    2  A    between atoms: C_16  and  C_17 
REMARK    3  A    between atoms: C_27  and  O_28 
ROOT
HETATM    1  C   UNL     1      41.468 -14.488   4.998  1.00  0.00     0.275 C 
HETATM    2  N   UNL     1      41.229 -15.144   3.783  1.00  0.00    -0.339 N 
HETATM    3  C   UNL     1      41.580 -16.549   3.663  1.00  0.00     0.123 C 
HETATM    4  C   UNL     1      41.000 -16.995   2.298  1.00  0.00     0.221 C 
HETATM    5  N   UNL     1      42.106 -17.662   1.476  1.00  0.00    -0.064 N 
HETATM    6  H   UNL     1      41.727 -17.958   0.566  1.00  0.00     0.280 HD
HETATM    7  C   UNL     1      43.343 -16.813   1.224  1.00  0.00     0.236 C 
HETATM    8  C   UNL     1      43.818 -16.227   2.548  1.00  0.00     0.034 C 
HETATM    9  C   UNL     1      43.084 -16.895   3.720  1.00  0.00     0.014 C 
HETATM   10  C   UNL     1      43.217 -18.428   3.555  1.00  0.00     0.034 C 
HETATM   11  C   UNL     1      42.570 -18.902   2.243  1.00  0.00     0.236 C 
HETATM   12  C   UNL     1      40.243 -15.774   1.703  1.00  0.00     0.070 C 
HETATM   13  C   UNL     1      40.076 -14.860   2.932  1.00  0.00     0.138 C 
HETATM   14  O   UNL     1      41.999 -15.082   5.941  1.00  0.00    -0.266 OA
ENDROOT
BRANCH   1  15
HETATM   15  C   UNL     1      41.074 -13.055   5.197  1.00  0.00     0.157 A 
HETATM   16  N   UNL     1      41.690 -12.127   4.416  1.00  0.00    -0.253 NA
HETATM   17  C   UNL     1      41.326 -10.838   4.610  1.00  0.00     0.117 A 
HETATM   18  C   UNL     1      40.382 -10.430   5.539  1.00  0.00     0.022 A 
HETATM   19  C   UNL     1      39.778 -11.396   6.339  1.00  0.00     0.040 A 
HETATM   20  C   UNL     1      40.136 -12.729   6.180  1.00  0.00     0.100 A 
BRANCH  20  21
HETATM   21  O   UNL     1      39.533 -13.634   7.009  1.00  0.00    -0.358 OA
HETATM   22  H   UNL     1      39.268 -14.416   6.476  1.00  0.00     0.218 HD
ENDBRANCH  20  21
ENDBRANCH   1  15
BRANCH  12  23
HETATM   23  C   UNL     1      40.791 -15.090   0.468  1.00  0.00    -0.044 A 
HETATM   24  C   UNL     1      40.635 -15.712  -0.784  1.00  0.00     0.050 A 
HETATM   25  C   UNL     1      41.121 -15.106  -1.944  1.00  0.00     0.119 A 
HETATM   26  F   UNL     1      40.971 -15.735  -3.116  1.00  0.00    -0.206 F 
HETATM   27  C   UNL     1      41.763 -13.879  -1.902  1.00  0.00     0.084 A 
HETATM   28  C   UNL     1      41.907 -13.253  -0.675  1.00  0.00     0.119 A 
HETATM   29  F   UNL     1      42.534 -12.072  -0.607  1.00  0.00    -0.206 F 
HETATM   30  C   UNL     1      41.431 -13.838   0.500  1.00  0.00     0.050 A 
ENDBRANCH  12  23
TORSDOF 3
ENDMDL
MODEL 3
REMARK VINA RESULT:      -7.9      3.333      6.097
REMARK  3 active torsions:
REMARK  status: ('A' for Active; 'I' for Inactive)
REMARK    1  A    between atoms: C_4  and  C_5 
REMARK       I    between atoms: C_5  and  N_6 
REMARK    2  A    between atoms: C_16  and  C_17 
REMARK    3  A    between atoms: C_27  and  O_28 
ROOT
HETATM    1  C   UNL     1      42.559 -16.390   5.495  1.00  0.00     0.275 C 
HETATM    2  N   UNL     1      42.468 -15.203   4.756  1.00  0.00    -0.339 N 
HETATM    3  C   UNL     1      41.850 -14.040   5.370  1.00  0.00     0.123 C 
HETATM    4  C   UNL     1      42.102 -12.878   4.379  1.00  0.00     0.221 C 
HETATM    5  N   UNL     1      40.772 -12.192   4.058  1.00  0.00    -0.064 N 
HETATM    6  H   UNL     1      40.933 -11.419   3.398  1.00  0.00     0.280 HD
HETATM    7  C   UNL     1      39.687 -13.093   3.485  1.00  0.00     0.236 C 
HETATM    8  C   UNL     1      39.556 -14.328   4.366  1.00  0.00     0.034 C 
HETATM    9  C   UNL     1      40.339 -14.137   5.673  1.00  0.00     0.014 C 
HETATM   10  C   UNL     1      39.900 -12.792   6.300  1.00  0.00     0.034 C 
HETATM   11  C   UNL     1      40.221 -11.615   5.365  1.00  0.00     0.236 C 
HETATM   12  C   UNL     1      42.962 -13.448   3.215  1.00  0.00     0.070 C 
HETATM   13  C   UNL     1      43.496 -14.763   3.815  1.00  0.00     0.138 C 
HETATM   14  O   UNL     1      42.092 -16.460   6.636  1.00  0.00    -0.266 OA
ENDROOT
BRANCH   1  15
HETATM   15  C   UNL     1      43.238 -17.604   4.933  1.00  0.00     0.157 A 
HETATM   16  N   UNL     1      42.735 -18.118   3.779  1.00  0.00    -0.253 NA
HETATM   17  C   UNL     1      43.356 -19.216   3.286  1.00  0.00     0.117 A 
HETATM   18  C   UNL     1      44.449 -19.822   3.885  1.00  0.00     0.022 A 
HETATM   19  C   UNL     1      44.935 -19.287   5.075  1.00  0.00     0.040 A 
HETATM   20  C   UNL     1      44.315 -18.170   5.620  1.00  0.00     0.100 A 
BRANCH  20  21
HETATM   21  O   UNL     1      44.814 -17.701   6.803  1.00  0.00    -0.358 OA
HETATM   22  H   UNL     1      45.766 -17.942   6.857  1.00  0.00     0.218 HD
ENDBRANCH  20  21
ENDBRANCH   1  15
BRANCH  12  23
HETATM   23  C   UNL     1      42.351 -13.578   1.835  1.00  0.00    -0.044 A 
HETATM   24  C   UNL     1      42.182 -12.423   1.051  1.00  0.00     0.050 A 
HETATM   25  C   UNL     1      41.631 -12.507  -0.229  1.00  0.00     0.119 A 
HETATM   26  F   UNL     1      41.468 -11.385  -0.940  1.00  0.00    -0.206 F 
HETATM   27  C   UNL     1      41.239 -13.722  -0.767  1.00  0.00     0.084 A 
HETATM   28  C   UNL     1      41.415 -14.867  -0.006  1.00  0.00     0.119 A 
HETATM   29  F   UNL     1      41.033 -16.051  -0.499  1.00  0.00    -0.206 F 
HETATM   30  C   UNL     1      41.964 -14.810   1.276  1.00  0.00     0.050 A 
ENDBRANCH  12  23
TORSDOF 3
ENDMDL
MODEL 4
REMARK VINA RESULT:      -7.9      3.270      5.990
REMARK  3 active torsions:
REMARK  status: ('A' for Active; 'I' for Inactive)
REMARK    1  A    between atoms: C_4  and  C_5 
REMARK       I    between atoms: C_5  and  N_6 
REMARK    2  A    between atoms: C_16  and  C_17 
REMARK    3  A    between atoms: C_27  and  O_28 
ROOT
HETATM    1  C   UNL     1      42.683 -17.029   4.862  1.00  0.00     0.275 C 
HETATM    2  N   UNL     1      42.601 -15.761   4.270  1.00  0.00    -0.339 N 
HETATM    3  C   UNL     1      42.077 -14.655   5.051  1.00  0.00     0.123 C 
HETATM    4  C   UNL     1      42.320 -13.395   4.184  1.00  0.00     0.221 C 
HETATM    5  N   UNL     1      41.005 -12.626   4.034  1.00  0.00    -0.064 N 
HETATM    6  H   UNL     1      41.160 -11.789   3.455  1.00  0.00     0.280 HD
HETATM    7  C   UNL     1      39.847 -13.411   3.436  1.00  0.00     0.236 C 
HETATM    8  C   UNL     1      39.713 -14.735   4.179  1.00  0.00     0.034 C 
HETATM    9  C   UNL     1      40.584 -14.728   5.443  1.00  0.00     0.014 C 
HETATM   10  C   UNL     1      40.249 -13.448   6.247  1.00  0.00     0.034 C 
HETATM   11  C   UNL     1      40.565 -12.184   5.431  1.00  0.00     0.236 C 
HETATM   12  C   UNL     1      43.078 -13.860   2.908  1.00  0.00     0.070 C 
HETATM   13  C   UNL     1      43.587 -15.256   3.318  1.00  0.00     0.138 C 
HETATM   14  O   UNL     1      42.285 -17.213   6.016  1.00  0.00    -0.266 OA
ENDROOT
BRANCH   1  15
HETATM   15  C   UNL     1      43.268 -18.195   4.121  1.00  0.00     0.157 A 
HETATM   16  N   UNL     1      42.709 -18.513   2.923  1.00  0.00    -0.253 NA
HETATM   17  C   UNL     1      43.245 -19.570   2.268  1.00  0.00     0.117 A 
HETATM   18  C   UNL     1      44.308 -20.320   2.748  1.00  0.00     0.022 A 
HETATM   19  C   UNL     1      44.852 -19.986   3.985  1.00  0.00     0.040 A 
HETATM   20  C   UNL     1      44.319 -18.916   4.694  1.00  0.00     0.100 A 
BRANCH  20  21
HETATM   21  O   UNL     1      44.871 -18.647   5.915  1.00  0.00    -0.358 OA
HETATM   22  H   UNL     1      45.819 -18.421   5.785  1.00  0.00     0.218 HD
ENDBRANCH  20  21
ENDBRANCH   1  15
BRANCH  12  23
HETATM   23  C   UNL     1      42.376 -13.806   1.566  1.00  0.00    -0.044 A 
HETATM   24  C   UNL     1      41.980 -15.008   0.953  1.00  0.00     0.050 A 
HETATM   25  C   UNL     1      41.324 -14.994  -0.280  1.00  0.00     0.119 A 
HETATM   26  F   UNL     1      40.977 -16.158  -0.843  1.00  0.00    -0.206 F 
HETATM   27  C   UNL     1      41.039 -13.805  -0.932  1.00  0.00     0.084 A 
HETATM   28  C   UNL     1      41.414 -12.616  -0.327  1.00  0.00     0.119 A 
HETATM   29  F   UNL     1      41.160 -11.455  -0.943  1.00  0.00    -0.206 F 
HETATM   30  C   UNL     1      42.071 -12.603   0.905  1.00  0.00     0.050 A 
ENDBRANCH  12  23
TORSDOF 3
ENDMDL
MODEL 5
REMARK VINA RESULT:      -7.7      2.969      4.399
REMARK  3 active torsions:
REMARK  status: ('A' for Active; 'I' for Inactive)
REMARK    1  A    between atoms: C_4  and  C_5 
REMARK       I    between atoms: C_5  and  N_6 
REMARK    2  A    between atoms: C_16  and  C_17 
REMARK    3  A    between atoms: C_27  and  O_28 
ROOT
HETATM    1  C   UNL     1      41.703 -14.114   5.149  1.00  0.00     0.275 C 
HETATM    2  N   UNL     1      41.876 -15.504   5.188  1.00  0.00    -0.339 N 
HETATM    3  C   UNL     1      42.157 -16.140   6.463  1.00  0.00     0.123 C 
HETATM    4  C   UNL     1      42.080 -17.661   6.182  1.00  0.00     0.221 C 
HETATM    5  N   UNL     1      43.363 -18.331   6.682  1.00  0.00    -0.064 N 
HETATM    6  H   UNL     1      43.318 -19.342   6.495  1.00  0.00     0.280 HD
HETATM    7  C   UNL     1      44.659 -17.793   6.093  1.00  0.00     0.236 C 
HETATM    8  C   UNL     1      44.662 -16.274   6.211  1.00  0.00     0.034 C 
HETATM    9  C   UNL     1      43.515 -15.807   7.120  1.00  0.00     0.014 C 
HETATM   10  C   UNL     1      43.602 -16.604   8.444  1.00  0.00     0.034 C 
HETATM   11  C   UNL     1      43.441 -18.112   8.195  1.00  0.00     0.236 C 
HETATM   12  C   UNL     1      41.666 -17.829   4.693  1.00  0.00     0.070 C 
HETATM   13  C   UNL     1      41.126 -16.429   4.341  1.00  0.00     0.138 C 
HETATM   14  O   UNL     1      41.821 -13.435   6.173  1.00  0.00    -0.266 OA
ENDROOT
BRANCH   1  15
HETATM   15  C   UNL     1      41.355 -13.411   3.870  1.00  0.00     0.157 A 
HETATM   16  N   UNL     1      40.063 -13.018   3.708  1.00  0.00    -0.253 NA
HETATM   17  C   UNL     1      39.765 -12.389   2.547  1.00  0.00     0.117 A 
HETATM   18  C   UNL     1      40.688 -12.134   1.545  1.00  0.00     0.022 A 
HETATM   19  C   UNL     1      42.000 -12.562   1.726  1.00  0.00     0.040 A 
HETATM   20  C   UNL     1      42.342 -13.224   2.898  1.00  0.00     0.100 A 
BRANCH  20  21
HETATM   21  O   UNL     1      43.637 -13.647   3.014  1.00  0.00    -0.358 OA
HETATM   22  H   UNL     1      44.113 -13.423   2.184  1.00  0.00     0.218 HD
ENDBRANCH  20  21
ENDBRANCH   1  15
BRANCH  12  23
HETATM   23  C   UNL     1      42.663 -18.396   3.704  1.00  0.00    -0.044 A 
HETATM   24  C   UNL     1      43.226 -17.544   2.737  1.00  0.00     0.050 A 
HETATM   25  C   UNL     1      44.155 -18.030   1.815  1.00  0.00     0.119 A 
HETATM   26  F   UNL     1      44.656 -17.195   0.897  1.00  0.00    -0.206 F 
HETATM   27  C   UNL     1      44.554 -19.356   1.825  1.00  0.00     0.084 A 
HETATM   28  C   UNL     1      44.015 -20.199   2.784  1.00  0.00     0.119 A 
HETATM   29  F   UNL     1      44.376 -21.488   2.807  1.00  0.00    -0.206 F 
HETATM   30  C   UNL     1      43.085 -19.737   3.717  1.00  0.00     0.050 A 
ENDBRANCH  12  23
TORSDOF 3
ENDMDL
MODEL 6
REMARK VINA RESULT:      -7.6      2.318      5.643
REMARK  3 active torsions:
REMARK  status: ('A' for Active; 'I' for Inactive)
REMARK    1  A    between atoms: C_4  and  C_5 
REMARK       I    between atoms: C_5  and  N_6 
REMARK    2  A    between atoms: C_16  and  C_17 
REMARK    3  A    between atoms: C_27  and  O_28 
ROOT
HETATM    1  C   UNL     1      40.386 -11.810   3.652  1.00  0.00     0.275 C 
HETATM    2  N   UNL     1      41.134 -12.916   3.224  1.00  0.00    -0.339 N 
HETATM    3  C   UNL     1      41.088 -13.294   1.823  1.00  0.00     0.123 C 
HETATM    4  C   UNL     1      42.166 -14.395   1.665  1.00  0.00     0.221 C 
HETATM    5  N   UNL     1      41.537 -15.624   1.002  1.00  0.00    -0.064 N 
HETATM    6  H   UNL     1      42.249 -16.359   0.897  1.00  0.00     0.280 HD
HETATM    7  C   UNL     1      40.336 -16.219   1.722  1.00  0.00     0.236 C 
HETATM    8  C   UNL     1      39.346 -15.105   2.035  1.00  0.00     0.034 C 
HETATM    9  C   UNL     1      39.736 -13.819   1.290  1.00  0.00     0.014 C 
HETATM   10  C   UNL     1      39.928 -14.174  -0.204  1.00  0.00     0.034 C 
HETATM   11  C   UNL     1      41.055 -15.203  -0.389  1.00  0.00     0.236 C 
HETATM   12  C   UNL     1      42.864 -14.551   3.045  1.00  0.00     0.070 C 
HETATM   13  C   UNL     1      42.443 -13.260   3.774  1.00  0.00     0.138 C 
HETATM   14  O   UNL     1      39.673 -11.188   2.860  1.00  0.00    -0.266 OA
ENDROOT
BRANCH   1  15
HETATM   15  C   UNL     1      40.441 -11.341   5.075  1.00  0.00     0.157 A 
HETATM   16  N   UNL     1      39.747 -12.063   5.995  1.00  0.00    -0.253 NA
HETATM   17  C   UNL     1      39.803 -11.624   7.274  1.00  0.00     0.117 A 
HETATM   18  C   UNL     1      40.515 -10.506   7.679  1.00  0.00     0.022 A 
HETATM   19  C   UNL     1      41.203  -9.773   6.717  1.00  0.00     0.040 A 
HETATM   20  C   UNL     1      41.158 -10.183   5.390  1.00  0.00     0.100 A 
BRANCH  20  21
HETATM   21  O   UNL     1      41.828  -9.413   4.481  1.00  0.00    -0.358 OA
HETATM   22  H   UNL     1      41.620  -9.743   3.579  1.00  0.00     0.218 HD
ENDBRANCH  20  21
ENDBRANCH   1  15
BRANCH  12  23
HETATM   23  C   UNL     1      42.664 -15.826   3.839  1.00  0.00    -0.044 A 
HETATM   24  C   UNL     1      41.707 -15.847   4.869  1.00  0.00     0.050 A 
HETATM   25  C   UNL     1      41.490 -17.007   5.615  1.00  0.00     0.119 A 
HETATM   26  F   UNL     1      40.584 -16.985   6.600  1.00  0.00    -0.206 F 
HETATM   27  C   UNL     1      42.202 -18.169   5.364  1.00  0.00     0.084 A 
HETATM   28  C   UNL     1      43.137 -18.160   4.341  1.00  0.00     0.119 A 
HETATM   29  F   UNL     1      43.846 -19.267   4.087  1.00  0.00    -0.206 F 
HETATM   30  C   UNL     1      43.372 -17.013   3.581  1.00  0.00     0.050 A 
ENDBRANCH  12  23
TORSDOF 3
ENDMDL
MODEL 7
REMARK VINA RESULT:      -7.6      2.792      4.780
REMARK  3 active torsions:
REMARK  status: ('A' for Active; 'I' for Inactive)
REMARK    1  A    between atoms: C_4  and  C_5 
REMARK       I    between atoms: C_5  and  N_6 
REMARK    2  A    between atoms: C_16  and  C_17 
REMARK    3  A    between atoms: C_27  and  O_28 
ROOT
HETATM    1  C   UNL     1      41.186 -15.278  -0.637  1.00  0.00     0.275 C 
HETATM    2  N   UNL     1      41.681 -14.887   0.615  1.00  0.00    -0.339 N 
HETATM    3  C   UNL     1      42.390 -15.864   1.424  1.00  0.00     0.123 C 
HETATM    4  C   UNL     1      42.967 -15.059   2.615  1.00  0.00     0.221 C 
HETATM    5  N   UNL     1      42.551 -15.733   3.926  1.00  0.00    -0.064 N 
HETATM    6  H   UNL     1      42.930 -15.201   4.721  1.00  0.00     0.280 HD
HETATM    7  C   UNL     1      41.053 -15.901   4.134  1.00  0.00     0.236 C 
HETATM    8  C   UNL     1      40.450 -16.537   2.887  1.00  0.00     0.034 C 
HETATM    9  C   UNL     1      41.561 -17.052   1.961  1.00  0.00     0.014 C 
HETATM   10  C   UNL     1      42.509 -17.941   2.801  1.00  0.00     0.034 C 
HETATM   11  C   UNL     1      43.159 -17.137   3.938  1.00  0.00     0.236 C 
HETATM   12  C   UNL     1      42.600 -13.567   2.378  1.00  0.00     0.070 C 
HETATM   13  C   UNL     1      42.217 -13.555   0.886  1.00  0.00     0.138 C 
HETATM   14  O   UNL     1      41.318 -16.439  -1.033  1.00  0.00    -0.266 OA
ENDROOT
BRANCH   1  15
HETATM   15  C   UNL     1      40.497 -14.296  -1.538  1.00  0.00     0.157 A 
HETATM   16  N   UNL     1      39.412 -13.648  -1.037  1.00  0.00    -0.253 NA
HETATM   17  C   UNL     1      38.798 -12.769  -1.864  1.00  0.00     0.117 A 
HETATM   18  C   UNL     1      39.214 -12.506  -3.160  1.00  0.00     0.022 A 
HETATM   19  C   UNL     1      40.316 -13.195  -3.657  1.00  0.00     0.040 A 
HETATM   20  C   UNL     1      40.964 -14.116  -2.843  1.00  0.00     0.100 A 
BRANCH  20  21
HETATM   21  O   UNL     1      42.023 -14.785  -3.389  1.00  0.00    -0.358 OA
HETATM   22  H   UNL     1      42.528 -15.215  -2.663  1.00  0.00     0.218 HD
ENDBRANCH  20  21
ENDBRANCH   1  15
BRANCH  12  23
HETATM   23  C   UNL     1      41.603 -12.892   3.298  1.00  0.00    -0.044 A 
HETATM   24  C   UNL     1      42.016 -12.502   4.585  1.00  0.00     0.050 A 
HETATM   25  C   UNL     1      41.126 -11.870   5.456  1.00  0.00     0.119 A 
HETATM   26  F   UNL     1      41.549 -11.529   6.679  1.00  0.00    -0.206 F 
HETATM   27  C   UNL     1      39.819 -11.604   5.083  1.00  0.00     0.084 A 
HETATM   28  C   UNL     1      39.409 -11.972   3.811  1.00  0.00     0.119 A 
HETATM   29  F   UNL     1      38.147 -11.736   3.432  1.00  0.00    -0.206 F 
HETATM   30  C   UNL     1      40.279 -12.605   2.922  1.00  0.00     0.050 A 
ENDBRANCH  12  23
TORSDOF 3
ENDMDL
MODEL 8
REMARK VINA RESULT:      -7.5      2.743      5.799
REMARK  3 active torsions:
REMARK  status: ('A' for Active; 'I' for Inactive)
REMARK    1  A    between atoms: C_4  and  C_5 
REMARK       I    between atoms: C_5  and  N_6 
REMARK    2  A    between atoms: C_16  and  C_17 
REMARK    3  A    between atoms: C_27  and  O_28 
ROOT
HETATM    1  C   UNL     1      41.173 -15.287   3.253  1.00  0.00     0.275 C 
HETATM    2  N   UNL     1      41.232 -14.290   2.269  1.00  0.00    -0.339 N 
HETATM    3  C   UNL     1      40.477 -13.065   2.466  1.00  0.00     0.123 C 
HETATM    4  C   UNL     1      40.927 -12.124   1.322  1.00  0.00     0.221 C 
HETATM    5  N   UNL     1      39.692 -11.605   0.582  1.00  0.00    -0.064 N 
HETATM    6  H   UNL     1      39.985 -10.980  -0.182  1.00  0.00     0.280 HD
HETATM    7  C   UNL     1      38.775 -12.672   0.001  1.00  0.00     0.236 C 
HETATM    8  C   UNL     1      38.468 -13.700   1.082  1.00  0.00     0.034 C 
HETATM    9  C   UNL     1      38.937 -13.190   2.453  1.00  0.00     0.014 C 
HETATM   10  C   UNL     1      38.351 -11.773   2.660  1.00  0.00     0.034 C 
HETATM   11  C   UNL     1      38.856 -10.801   1.581  1.00  0.00     0.236 C 
HETATM   12  C   UNL     1      42.032 -12.872   0.524  1.00  0.00     0.070 C 
HETATM   13  C   UNL     1      42.438 -13.995   1.498  1.00  0.00     0.138 C 
HETATM   14  O   UNL     1      40.465 -15.144   4.253  1.00  0.00    -0.266 OA
ENDROOT
BRANCH   1  15
HETATM   15  C   UNL     1      41.977 -16.547   3.128  1.00  0.00     0.157 A 
HETATM   16  N   UNL     1      43.021 -16.705   3.985  1.00  0.00    -0.253 NA
HETATM   17  C   UNL     1      43.739 -17.846   3.858  1.00  0.00     0.117 A 
HETATM   18  C   UNL     1      43.467 -18.832   2.922  1.00  0.00     0.022 A 
HETATM   19  C   UNL     1      42.404 -18.639   2.044  1.00  0.00     0.040 A 
HETATM   20  C   UNL     1      41.652 -17.475   2.134  1.00  0.00     0.100 A 
BRANCH  20  21
HETATM   21  O   UNL     1      40.637 -17.322   1.232  1.00  0.00    -0.358 OA
HETATM   22  H   UNL     1      40.997 -17.475   0.330  1.00  0.00     0.218 HD
ENDBRANCH  20  21
ENDBRANCH   1  15
BRANCH  12  23
HETATM   23  C   UNL     1      41.746 -13.328  -0.892  1.00  0.00    -0.044 A 
HETATM   24  C   UNL     1      41.987 -12.441  -1.957  1.00  0.00     0.050 A 
HETATM   25  C   UNL     1      41.742 -12.831  -3.276  1.00  0.00     0.119 A 
HETATM   26  F   UNL     1      41.967 -11.955  -4.263  1.00  0.00    -0.206 F 
HETATM   27  C   UNL     1      41.263 -14.095  -3.577  1.00  0.00     0.084 A 
HETATM   28  C   UNL     1      41.036 -14.979  -2.534  1.00  0.00     0.119 A 
HETATM   29  F   UNL     1      40.562 -16.202  -2.799  1.00  0.00    -0.206 F 
HETATM   30  C   UNL     1      41.273 -14.614  -1.207  1.00  0.00     0.050 A 
ENDBRANCH  12  23
TORSDOF 3
ENDMDL
MODEL 9
REMARK VINA RESULT:      -7.4      2.976      5.037
REMARK  3 active torsions:
REMARK  status: ('A' for Active; 'I' for Inactive)
REMARK    1  A    between atoms: C_4  and  C_5 
REMARK       I    between atoms: C_5  and  N_6 
REMARK    2  A    between atoms: C_16  and  C_17 
REMARK    3  A    between atoms: C_27  and  O_28 
ROOT
HETATM    1  C   UNL     1      41.049 -15.953   1.481  1.00  0.00     0.275 C 
HETATM    2  N   UNL     1      41.710 -15.398   2.586  1.00  0.00    -0.339 N 
HETATM    3  C   UNL     1      42.599 -16.241   3.366  1.00  0.00     0.123 C 
HETATM    4  C   UNL     1      43.304 -15.279   4.354  1.00  0.00     0.221 C 
HETATM    5  N   UNL     1      43.145 -15.816   5.779  1.00  0.00    -0.064 N 
HETATM    6  H   UNL     1      43.610 -15.179   6.441  1.00  0.00     0.280 HD
HETATM    7  C   UNL     1      41.713 -16.029   6.247  1.00  0.00     0.236 C 
HETATM    8  C   UNL     1      40.963 -16.832   5.191  1.00  0.00     0.034 C 
HETATM    9  C   UNL     1      41.945 -17.397   4.154  1.00  0.00     0.014 C 
HETATM   10  C   UNL     1      43.069 -18.139   4.916  1.00  0.00     0.034 C 
HETATM   11  C   UNL     1      43.837 -17.180   5.840  1.00  0.00     0.236 C 
HETATM   12  C   UNL     1      42.808 -13.843   4.024  1.00  0.00     0.070 C 
HETATM   13  C   UNL     1      42.194 -14.020   2.622  1.00  0.00     0.138 C 
HETATM   14  O   UNL     1      41.192 -17.144   1.194  1.00  0.00    -0.266 OA
ENDROOT
BRANCH   1  15
HETATM   15  C   UNL     1      40.164 -15.115   0.606  1.00  0.00     0.157 A 
HETATM   16  N   UNL     1      38.979 -14.705   1.133  1.00  0.00    -0.253 NA
HETATM   17  C   UNL     1      38.190 -13.953   0.330  1.00  0.00     0.117 A 
HETATM   18  C   UNL     1      38.524 -13.592  -0.967  1.00  0.00     0.022 A 
HETATM   19  C   UNL     1      39.734 -14.038  -1.489  1.00  0.00     0.040 A 
HETATM   20  C   UNL     1      40.565 -14.824  -0.701  1.00  0.00     0.100 A 
BRANCH  20  21
HETATM   21  O   UNL     1      41.729 -15.259  -1.271  1.00  0.00    -0.358 OA
HETATM   22  H   UNL     1      41.972 -14.640  -1.995  1.00  0.00     0.218 HD
ENDBRANCH  20  21
ENDBRANCH   1  15
BRANCH  12  23
HETATM   23  C   UNL     1      41.928 -13.114   5.019  1.00  0.00    -0.044 A 
HETATM   24  C   UNL     1      42.531 -12.356   6.038  1.00  0.00     0.050 A 
HETATM   25  C   UNL     1      41.750 -11.664   6.967  1.00  0.00     0.119 A 
HETATM   26  F   UNL     1      42.358 -10.967   7.934  1.00  0.00    -0.206 F 
HETATM   27  C   UNL     1      40.366 -11.698   6.912  1.00  0.00     0.084 A 
HETATM   28  C   UNL     1      39.764 -12.432   5.902  1.00  0.00     0.119 A 
HETATM   29  F   UNL     1      38.429 -12.489   5.836  1.00  0.00    -0.206 F 
HETATM   30  C   UNL     1      40.523 -13.132   4.962  1.00  0.00     0.050 A 
ENDBRANCH  12  23
TORSDOF 3
ENDMDL
MODEL 10
REMARK VINA RESULT:      -7.4      3.002      6.291
REMARK  3 active torsions:
REMARK  status: ('A' for Active; 'I' for Inactive)
REMARK    1  A    between atoms: C_4  and  C_5 
REMARK       I    between atoms: C_5  and  N_6 
REMARK    2  A    between atoms: C_16  and  C_17 
REMARK    3  A    between atoms: C_27  and  O_28 
ROOT
HETATM    1  C   UNL     1      42.749 -17.752   2.028  1.00  0.00     0.275 C 
HETATM    2  N   UNL     1      41.786 -16.793   2.372  1.00  0.00    -0.339 N 
HETATM    3  C   UNL     1      41.014 -16.163   1.314  1.00  0.00     0.123 C 
HETATM    4  C   UNL     1      39.927 -15.336   2.044  1.00  0.00     0.221 C 
HETATM    5  N   UNL     1      39.963 -13.894   1.531  1.00  0.00    -0.064 N 
HETATM    6  H   UNL     1      39.244 -13.339   2.015  1.00  0.00     0.280 HD
HETATM    7  C   UNL     1      41.298 -13.177   1.674  1.00  0.00     0.236 C 
HETATM    8  C   UNL     1      42.399 -14.066   1.111  1.00  0.00     0.034 C 
HETATM    9  C   UNL     1      41.790 -15.247   0.341  1.00  0.00     0.014 C 
HETATM   10  C   UNL     1      40.772 -14.679  -0.677  1.00  0.00     0.034 C 
HETATM   11  C   UNL     1      39.637 -13.926   0.036  1.00  0.00     0.236 C 
HETATM   12  C   UNL     1      40.096 -15.605   3.566  1.00  0.00     0.070 C 
HETATM   13  C   UNL     1      40.972 -16.873   3.582  1.00  0.00     0.138 C 
HETATM   14  O   UNL     1      42.963 -18.033   0.845  1.00  0.00    -0.266 OA
ENDROOT
BRANCH   1  15
HETATM   15  C   UNL     1      43.534 -18.475   3.081  1.00  0.00     0.157 A 
HETATM   16  N   UNL     1      43.905 -17.762   4.179  1.00  0.00    -0.253 NA
HETATM   17  C   UNL     1      44.616 -18.428   5.119  1.00  0.00     0.117 A 
HETATM   18  C   UNL     1      44.974 -19.763   5.018  1.00  0.00     0.022 A 
HETATM   19  C   UNL     1      44.598 -20.467   3.878  1.00  0.00     0.040 A 
HETATM   20  C   UNL     1      43.879 -19.815   2.884  1.00  0.00     0.100 A 
BRANCH  20  21
HETATM   21  O   UNL     1      43.559 -20.544   1.773  1.00  0.00    -0.358 OA
HETATM   22  H   UNL     1      43.024 -19.978   1.173  1.00  0.00     0.218 HD
ENDBRANCH  20  21
ENDBRANCH   1  15
BRANCH  12  23
HETATM   23  C   UNL     1      40.575 -14.487   4.470  1.00  0.00    -0.044 A 
HETATM   24  C   UNL     1      39.656 -13.512   4.896  1.00  0.00     0.050 A 
HETATM   25  C   UNL     1      40.061 -12.473   5.736  1.00  0.00     0.119 A 
HETATM   26  F   UNL     1      39.163 -11.552   6.108  1.00  0.00    -0.206 F 
HETATM   27  C   UNL     1      41.370 -12.371   6.177  1.00  0.00     0.084 A 
HETATM   28  C   UNL     1      42.278 -13.336   5.772  1.00  0.00     0.119 A 
HETATM   29  F   UNL     1      43.552 -13.252   6.176  1.00  0.00    -0.206 F 
HETATM   30  C   UNL     1      41.898 -14.385   4.933  1.00  0.00     0.050 A 
ENDBRANCH  12  23
TORSDOF 3
ENDMDL
