MODEL 1
REMARK VINA RESULT:      -8.4      0.000      0.000
REMARK  4 active torsions:
REMARK  status: ('A' for Active; 'I' for Inactive)
REMARK    1  A    between atoms: C_2  and  C_3 
REMARK    2  A    between atoms: C_7  and  N_8 
REMARK    3  A    between atoms: C_10  and  C_11 
REMARK    4  A    between atoms: C_21  and  C_22 
ROOT
HETATM    1  C   UNL     1      44.367 -20.621   3.963  1.00  0.00     0.079 A 
HETATM    2  S   UNL     1      44.647 -19.748   5.405  1.00  0.00    -0.064 SA
HETATM    3  C   UNL     1      44.075 -18.299   4.731  1.00  0.00     0.112 A 
HETATM    4  C   UNL     1      43.659 -18.431   3.412  1.00  0.00     0.043 A 
HETATM    5  C   UNL     1      43.848 -19.792   2.980  1.00  0.00     0.060 A 
HETATM    6  N   UNL     1      44.055 -17.183   5.481  1.00  0.00    -0.240 NA
HETATM    7  C   UNL     1      43.557 -16.084   4.885  1.00  0.00     0.069 A 
HETATM    8  C   UNL     1      43.106 -16.088   3.569  1.00  0.00     0.049 A 
HETATM    9  C   UNL     1      43.146 -17.264   2.790  1.00  0.00     0.065 A 
ENDROOT
BRANCH   7  10
HETATM   10  C   UNL     1      43.527 -14.870   5.730  1.00  0.00    -0.004 A 
HETATM   11  C   UNL     1      44.473 -14.698   6.762  1.00  0.00     0.053 A 
HETATM   12  C   UNL     1      44.422 -13.557   7.536  1.00  0.00     0.106 A 
HETATM   13  C   UNL     1      43.473 -12.586   7.332  1.00  0.00     0.105 A 
HETATM   14  O   UNL     1      45.265 -13.251   8.558  1.00  0.00    -0.323 OA
HETATM   15  O   UNL     1      43.595 -11.548   8.200  1.00  0.00    -0.323 OA
HETATM   16  C   UNL     1      42.521 -12.706   6.347  1.00  0.00     0.040 A 
HETATM   17  C   UNL     1      44.729 -11.981   8.981  1.00  0.00     0.352 A 
HETATM   18  C   UNL     1      42.550 -13.855   5.546  1.00  0.00     0.017 A 
ENDBRANCH   7  10
BRANCH   9  19
HETATM   19  C   UNL     1      42.607 -17.234   1.386  1.00  0.00     0.418 C 
HETATM   20  F   UNL     1      43.509 -17.642   0.448  1.00  0.00    -0.166 F 
HETATM   21  F   UNL     1      41.512 -18.024   1.228  1.00  0.00    -0.166 F 
HETATM   22  F   UNL     1      42.218 -15.987   0.991  1.00  0.00    -0.166 F 
ENDBRANCH   9  19
BRANCH   1  23
HETATM   23  C   UNL     1      44.684 -22.044   3.852  1.00  0.00     0.164 C 
HETATM   24  C   UNL     1      45.156 -22.792   5.079  1.00  0.00     0.097 C 
HETATM   25  O   UNL     1      44.585 -22.659   2.785  1.00  0.00    -0.292 OA
ENDBRANCH   1  23
BRANCH   5  26
HETATM   26  N   UNL     1      43.548 -20.241   1.738  1.00  0.00    -0.397 N 
HETATM   27  H   UNL     1      44.222 -20.733   1.153  1.00  0.00     0.156 HD
HETATM   28  H   UNL     1      42.589 -20.551   1.542  1.00  0.00     0.156 HD
ENDBRANCH   5  26
TORSDOF 4
ENDMDL
MODEL 2
REMARK VINA RESULT:      -8.3      3.905      7.783
REMARK  4 active torsions:
REMARK  status: ('A' for Active; 'I' for Inactive)
REMARK    1  A    between atoms: C_2  and  C_3 
REMARK    2  A    between atoms: C_7  and  N_8 
REMARK    3  A    between atoms: C_10  and  C_11 
REMARK    4  A    between atoms: C_21  and  C_22 
ROOT
HETATM    1  C   UNL     1      41.579 -13.783   0.724  1.00  0.00     0.079 A 
HETATM    2  S   UNL     1      41.711 -15.371   0.107  1.00  0.00    -0.064 SA
HETATM    3  C   UNL     1      42.432 -15.948   1.532  1.00  0.00     0.112 A 
HETATM    4  C   UNL     1      42.590 -14.970   2.505  1.00  0.00     0.043 A 
HETATM    5  C   UNL     1      42.097 -13.711   2.009  1.00  0.00     0.060 A 
HETATM    6  N   UNL     1      42.773 -17.247   1.621  1.00  0.00    -0.240 NA
HETATM    7  C   UNL     1      43.308 -17.633   2.794  1.00  0.00     0.069 A 
HETATM    8  C   UNL     1      43.517 -16.748   3.847  1.00  0.00     0.049 A 
HETATM    9  C   UNL     1      43.166 -15.386   3.733  1.00  0.00     0.065 A 
ENDROOT
BRANCH   7  10
HETATM   10  C   UNL     1      43.662 -19.067   2.880  1.00  0.00    -0.004 A 
HETATM   11  C   UNL     1      44.202 -19.595   4.071  1.00  0.00     0.053 A 
HETATM   12  C   UNL     1      44.524 -20.936   4.124  1.00  0.00     0.106 A 
HETATM   13  C   UNL     1      44.336 -21.769   3.049  1.00  0.00     0.105 A 
HETATM   14  O   UNL     1      45.046 -21.587   5.198  1.00  0.00    -0.323 OA
HETATM   15  O   UNL     1      44.718 -23.047   3.307  1.00  0.00    -0.323 OA
HETATM   16  C   UNL     1      43.822 -21.306   1.861  1.00  0.00     0.040 A 
HETATM   17  C   UNL     1      45.177 -22.923   4.670  1.00  0.00     0.352 A 
HETATM   18  C   UNL     1      43.486 -19.948   1.780  1.00  0.00     0.017 A 
ENDBRANCH   7  10
BRANCH   9  19
HETATM   19  C   UNL     1      43.368 -14.474   4.912  1.00  0.00     0.418 C 
HETATM   20  F   UNL     1      44.216 -13.437   4.659  1.00  0.00    -0.166 F 
HETATM   21  F   UNL     1      42.207 -13.917   5.348  1.00  0.00    -0.166 F 
HETATM   22  F   UNL     1      43.896 -15.113   5.995  1.00  0.00    -0.166 F 
ENDBRANCH   9  19
BRANCH   1  23
HETATM   23  C   UNL     1      41.010 -12.695  -0.069  1.00  0.00     0.164 C 
HETATM   24  C   UNL     1      41.656 -12.326  -1.386  1.00  0.00     0.097 C 
HETATM   25  O   UNL     1      40.019 -12.059   0.303  1.00  0.00    -0.292 OA
ENDBRANCH   1  23
BRANCH   5  26
HETATM   26  N   UNL     1      42.119 -12.557   2.717  1.00  0.00    -0.397 N 
HETATM   27  H   UNL     1      42.982 -12.146   3.072  1.00  0.00     0.156 HD
HETATM   28  H   UNL     1      41.422 -11.833   2.506  1.00  0.00     0.156 HD
ENDBRANCH   5  26
TORSDOF 4
ENDMDL
MODEL 3
REMARK VINA RESULT:      -8.2      2.742      7.339
REMARK  4 active torsions:
REMARK  status: ('A' for Active; 'I' for Inactive)
REMARK    1  A    between atoms: C_2  and  C_3 
REMARK    2  A    between atoms: C_7  and  N_8 
REMARK    3  A    between atoms: C_10  and  C_11 
REMARK    4  A    between atoms: C_21  and  C_22 
ROOT
HETATM    1  C   UNL     1      41.887 -13.389   4.162  1.00  0.00     0.079 A 
HETATM    2  S   UNL     1      42.558 -14.700   5.029  1.00  0.00    -0.064 SA
HETATM    3  C   UNL     1      42.489 -15.728   3.679  1.00  0.00     0.112 A 
HETATM    4  C   UNL     1      41.964 -15.117   2.547  1.00  0.00     0.043 A 
HETATM    5  C   UNL     1      41.610 -13.756   2.854  1.00  0.00     0.060 A 
HETATM    6  N   UNL     1      42.931 -16.994   3.789  1.00  0.00    -0.240 NA
HETATM    7  C   UNL     1      42.873 -17.734   2.667  1.00  0.00     0.069 A 
HETATM    8  C   UNL     1      42.371 -17.237   1.469  1.00  0.00     0.049 A 
HETATM    9  C   UNL     1      41.898 -15.911   1.374  1.00  0.00     0.065 A 
ENDROOT
BRANCH   7  10
HETATM   10  C   UNL     1      43.380 -19.118   2.801  1.00  0.00    -0.004 A 
HETATM   11  C   UNL     1      43.949 -19.552   4.017  1.00  0.00     0.053 A 
HETATM   12  C   UNL     1      44.414 -20.848   4.114  1.00  0.00     0.106 A 
HETATM   13  C   UNL     1      44.342 -21.724   3.061  1.00  0.00     0.105 A 
HETATM   14  O   UNL     1      44.980 -21.408   5.216  1.00  0.00    -0.323 OA
HETATM   15  O   UNL     1      44.855 -22.946   3.362  1.00  0.00    -0.323 OA
HETATM   16  C   UNL     1      43.805 -21.352   1.850  1.00  0.00     0.040 A 
HETATM   17  C   UNL     1      45.267 -22.735   4.730  1.00  0.00     0.352 A 
HETATM   18  C   UNL     1      43.325 -20.042   1.723  1.00  0.00     0.017 A 
ENDBRANCH   7  10
BRANCH   9  19
HETATM   19  C   UNL     1      41.405 -15.400   0.047  1.00  0.00     0.418 C 
HETATM   20  F   UNL     1      42.120 -14.341  -0.428  1.00  0.00    -0.166 F 
HETATM   21  F   UNL     1      41.441 -16.349  -0.926  1.00  0.00    -0.166 F 
HETATM   22  F   UNL     1      40.111 -14.969   0.090  1.00  0.00    -0.166 F 
ENDBRANCH   9  19
BRANCH   1  23
HETATM   23  C   UNL     1      41.645 -12.094   4.794  1.00  0.00     0.164 C 
HETATM   24  C   UNL     1      41.680 -11.991   6.303  1.00  0.00     0.097 C 
HETATM   25  O   UNL     1      41.404 -11.075   4.137  1.00  0.00    -0.292 OA
ENDBRANCH   1  23
BRANCH   5  26
HETATM   26  N   UNL     1      41.063 -12.896   1.962  1.00  0.00    -0.397 N 
HETATM   27  H   UNL     1      40.609 -13.208   1.104  1.00  0.00     0.156 HD
HETATM   28  H   UNL     1      40.647 -12.023   2.306  1.00  0.00     0.156 HD
ENDBRANCH   5  26
TORSDOF 4
ENDMDL
MODEL 4
REMARK VINA RESULT:      -8.1      4.844      6.414
REMARK  4 active torsions:
REMARK  status: ('A' for Active; 'I' for Inactive)
REMARK    1  A    between atoms: C_2  and  C_3 
REMARK    2  A    between atoms: C_7  and  N_8 
REMARK    3  A    between atoms: C_10  and  C_11 
REMARK    4  A    between atoms: C_21  and  C_22 
ROOT
HETATM    1  C   UNL     1      43.662 -19.328   3.312  1.00  0.00     0.079 A 
HETATM    2  S   UNL     1      43.064 -18.909   1.767  1.00  0.00    -0.064 SA
HETATM    3  C   UNL     1      42.083 -17.674   2.396  1.00  0.00     0.112 A 
HETATM    4  C   UNL     1      42.178 -17.544   3.776  1.00  0.00     0.043 A 
HETATM    5  C   UNL     1      43.096 -18.526   4.292  1.00  0.00     0.060 A 
HETATM    6  N   UNL     1      41.327 -16.940   1.560  1.00  0.00    -0.240 NA
HETATM    7  C   UNL     1      40.603 -15.960   2.133  1.00  0.00     0.069 A 
HETATM    8  C   UNL     1      40.614 -15.727   3.504  1.00  0.00     0.049 A 
HETATM    9  C   UNL     1      41.401 -16.516   4.369  1.00  0.00     0.065 A 
ENDROOT
BRANCH   7  10
HETATM   10  C   UNL     1      39.791 -15.152   1.197  1.00  0.00    -0.004 A 
HETATM   11  C   UNL     1      40.339 -14.718  -0.028  1.00  0.00     0.053 A 
HETATM   12  C   UNL     1      39.560 -13.964  -0.881  1.00  0.00     0.106 A 
HETATM   13  C   UNL     1      38.268 -13.621  -0.570  1.00  0.00     0.105 A 
HETATM   14  O   UNL     1      39.946 -13.480  -2.092  1.00  0.00    -0.323 OA
HETATM   15  O   UNL     1      37.677 -12.876  -1.541  1.00  0.00    -0.323 OA
HETATM   16  C   UNL     1      37.685 -14.009   0.614  1.00  0.00     0.040 A 
HETATM   17  C   UNL     1      38.751 -12.783  -2.501  1.00  0.00     0.352 A 
HETATM   18  C   UNL     1      38.455 -14.776   1.500  1.00  0.00     0.017 A 
ENDBRANCH   7  10
BRANCH   9  19
HETATM   19  C   UNL     1      41.418 -16.200   5.840  1.00  0.00     0.418 C 
HETATM   20  F   UNL     1      41.017 -17.241   6.625  1.00  0.00    -0.166 F 
HETATM   21  F   UNL     1      42.652 -15.843   6.285  1.00  0.00    -0.166 F 
HETATM   22  F   UNL     1      40.596 -15.163   6.172  1.00  0.00    -0.166 F 
ENDBRANCH   9  19
BRANCH   1  23
HETATM   23  C   UNL     1      44.619 -20.418   3.495  1.00  0.00     0.164 C 
HETATM   24  C   UNL     1      44.565 -21.611   2.568  1.00  0.00     0.097 C 
HETATM   25  O   UNL     1      45.471 -20.401   4.390  1.00  0.00    -0.292 OA
ENDBRANCH   1  23
BRANCH   5  26
HETATM   26  N   UNL     1      43.399 -18.665   5.604  1.00  0.00    -0.397 N 
HETATM   27  H   UNL     1      43.690 -19.553   6.011  1.00  0.00     0.156 HD
HETATM   28  H   UNL     1      43.822 -17.872   6.102  1.00  0.00     0.156 HD
ENDBRANCH   5  26
TORSDOF 4
ENDMDL
MODEL 5
REMARK VINA RESULT:      -8.0      4.212      6.387
REMARK  4 active torsions:
REMARK  status: ('A' for Active; 'I' for Inactive)
REMARK    1  A    between atoms: C_2  and  C_3 
REMARK    2  A    between atoms: C_7  and  N_8 
REMARK    3  A    between atoms: C_10  and  C_11 
REMARK    4  A    between atoms: C_21  and  C_22 
ROOT
HETATM    1  C   UNL     1      43.277 -18.247   6.273  1.00  0.00     0.079 A 
HETATM    2  S   UNL     1      42.386 -16.880   5.765  1.00  0.00    -0.064 SA
HETATM    3  C   UNL     1      42.480 -17.330   4.130  1.00  0.00     0.112 A 
HETATM    4  C   UNL     1      43.179 -18.513   3.923  1.00  0.00     0.043 A 
HETATM    5  C   UNL     1      43.645 -19.025   5.185  1.00  0.00     0.060 A 
HETATM    6  N   UNL     1      41.896 -16.557   3.197  1.00  0.00    -0.240 NA
HETATM    7  C   UNL     1      41.988 -16.999   1.929  1.00  0.00     0.069 A 
HETATM    8  C   UNL     1      42.659 -18.169   1.592  1.00  0.00     0.049 A 
HETATM    9  C   UNL     1      43.279 -18.962   2.581  1.00  0.00     0.065 A 
ENDROOT
BRANCH   7  10
HETATM   10  C   UNL     1      41.325 -16.145   0.918  1.00  0.00    -0.004 A 
HETATM   11  C   UNL     1      41.615 -16.311  -0.453  1.00  0.00     0.053 A 
HETATM   12  C   UNL     1      40.983 -15.501  -1.374  1.00  0.00     0.106 A 
HETATM   13  C   UNL     1      40.084 -14.536  -0.994  1.00  0.00     0.105 A 
HETATM   14  O   UNL     1      41.155 -15.546  -2.722  1.00  0.00    -0.323 OA
HETATM   15  O   UNL     1      39.579 -13.848  -2.052  1.00  0.00    -0.323 OA
HETATM   16  C   UNL     1      39.771 -14.324   0.328  1.00  0.00     0.040 A 
HETATM   17  C   UNL     1      40.270 -14.489  -3.145  1.00  0.00     0.352 A 
HETATM   18  C   UNL     1      40.398 -15.134   1.286  1.00  0.00     0.017 A 
ENDBRANCH   7  10
BRANCH   9  19
HETATM   19  C   UNL     1      43.956 -20.244   2.178  1.00  0.00     0.418 C 
HETATM   20  F   UNL     1      43.954 -20.460   0.832  1.00  0.00    -0.166 F 
HETATM   21  F   UNL     1      45.257 -20.295   2.569  1.00  0.00    -0.166 F 
HETATM   22  F   UNL     1      43.368 -21.349   2.720  1.00  0.00    -0.166 F 
ENDBRANCH   9  19
BRANCH   1  23
HETATM   23  C   UNL     1      43.591 -18.479   7.681  1.00  0.00     0.164 C 
HETATM   24  C   UNL     1      43.522 -17.322   8.653  1.00  0.00     0.097 C 
HETATM   25  O   UNL     1      43.920 -19.591   8.108  1.00  0.00    -0.292 OA
ENDBRANCH   1  23
BRANCH   5  26
HETATM   26  N   UNL     1      44.368 -20.162   5.321  1.00  0.00    -0.397 N 
HETATM   27  H   UNL     1      45.111 -20.263   6.012  1.00  0.00     0.156 HD
HETATM   28  H   UNL     1      43.916 -21.063   5.128  1.00  0.00     0.156 HD
ENDBRANCH   5  26
TORSDOF 4
ENDMDL
MODEL 6
REMARK VINA RESULT:      -8.0      3.860      4.644
REMARK  4 active torsions:
REMARK  status: ('A' for Active; 'I' for Inactive)
REMARK    1  A    between atoms: C_2  and  C_3 
REMARK    2  A    between atoms: C_7  and  N_8 
REMARK    3  A    between atoms: C_10  and  C_11 
REMARK    4  A    between atoms: C_21  and  C_22 
ROOT
HETATM    1  C   UNL     1      44.031 -20.292   3.171  1.00  0.00     0.079 A 
HETATM    2  S   UNL     1      43.305 -19.214   2.061  1.00  0.00    -0.064 SA
HETATM    3  C   UNL     1      43.241 -17.959   3.203  1.00  0.00     0.112 A 
HETATM    4  C   UNL     1      43.762 -18.314   4.441  1.00  0.00     0.043 A 
HETATM    5  C   UNL     1      44.207 -19.682   4.404  1.00  0.00     0.060 A 
HETATM    6  N   UNL     1      42.727 -16.768   2.848  1.00  0.00    -0.240 NA
HETATM    7  C   UNL     1      42.742 -15.816   3.799  1.00  0.00     0.069 A 
HETATM    8  C   UNL     1      43.238 -16.046   5.078  1.00  0.00     0.049 A 
HETATM    9  C   UNL     1      43.762 -17.306   5.440  1.00  0.00     0.065 A 
ENDROOT
BRANCH   7  10
HETATM   10  C   UNL     1      42.188 -14.508   3.387  1.00  0.00    -0.004 A 
HETATM   11  C   UNL     1      42.611 -13.904   2.184  1.00  0.00     0.053 A 
HETATM   12  C   UNL     1      42.079 -12.683   1.824  1.00  0.00     0.106 A 
HETATM   13  C   UNL     1      41.153 -12.038   2.605  1.00  0.00     0.105 A 
HETATM   14  O   UNL     1      42.384 -11.984   0.697  1.00  0.00    -0.323 OA
HETATM   15  O   UNL     1      40.759 -10.850   2.073  1.00  0.00    -0.323 OA
HETATM   16  C   UNL     1      40.712 -12.575   3.791  1.00  0.00     0.040 A 
HETATM   17  C   UNL     1      41.551 -10.818   0.867  1.00  0.00     0.352 A 
HETATM   18  C   UNL     1      41.236 -13.815   4.181  1.00  0.00     0.017 A 
ENDBRANCH   7  10
BRANCH   9  19
HETATM   19  C   UNL     1      44.329 -17.497   6.820  1.00  0.00     0.418 C 
HETATM   20  F   UNL     1      44.229 -16.389   7.608  1.00  0.00    -0.166 F 
HETATM   21  F   UNL     1      43.721 -18.504   7.501  1.00  0.00    -0.166 F 
HETATM   22  F   UNL     1      45.657 -17.812   6.810  1.00  0.00    -0.166 F 
ENDBRANCH   9  19
BRANCH   1  23
HETATM   23  C   UNL     1      44.367 -21.666   2.800  1.00  0.00     0.164 C 
HETATM   24  C   UNL     1      44.324 -22.068   1.343  1.00  0.00     0.097 C 
HETATM   25  O   UNL     1      44.679 -22.516   3.640  1.00  0.00    -0.292 OA
ENDBRANCH   1  23
BRANCH   5  26
HETATM   26  N   UNL     1      44.755 -20.330   5.460  1.00  0.00    -0.397 N 
HETATM   27  H   UNL     1      45.760 -20.347   5.633  1.00  0.00     0.156 HD
HETATM   28  H   UNL     1      44.225 -20.385   6.337  1.00  0.00     0.156 HD
ENDBRANCH   5  26
TORSDOF 4
ENDMDL
MODEL 7
REMARK VINA RESULT:      -7.8      4.284      5.377
REMARK  4 active torsions:
REMARK  status: ('A' for Active; 'I' for Inactive)
REMARK    1  A    between atoms: C_2  and  C_3 
REMARK    2  A    between atoms: C_7  and  N_8 
REMARK    3  A    between atoms: C_10  and  C_11 
REMARK    4  A    between atoms: C_21  and  C_22 
ROOT
HETATM    1  C   UNL     1      43.106 -18.511   6.293  1.00  0.00     0.079 A 
HETATM    2  S   UNL     1      41.990 -17.246   6.571  1.00  0.00    -0.064 SA
HETATM    3  C   UNL     1      41.882 -16.874   4.918  1.00  0.00     0.112 A 
HETATM    4  C   UNL     1      42.676 -17.685   4.117  1.00  0.00     0.043 A 
HETATM    5  C   UNL     1      43.390 -18.626   4.941  1.00  0.00     0.060 A 
HETATM    6  N   UNL     1      41.071 -15.878   4.516  1.00  0.00    -0.240 NA
HETATM    7  C   UNL     1      41.017 -15.667   3.188  1.00  0.00     0.069 A 
HETATM    8  C   UNL     1      41.762 -16.414   2.281  1.00  0.00     0.049 A 
HETATM    9  C   UNL     1      42.619 -17.446   2.720  1.00  0.00     0.065 A 
ENDROOT
BRANCH   7  10
HETATM   10  C   UNL     1      40.108 -14.580   2.763  1.00  0.00    -0.004 A 
HETATM   11  C   UNL     1      39.161 -14.803   1.742  1.00  0.00     0.053 A 
HETATM   12  C   UNL     1      38.326 -13.771   1.364  1.00  0.00     0.106 A 
HETATM   13  C   UNL     1      38.395 -12.533   1.951  1.00  0.00     0.105 A 
HETATM   14  O   UNL     1      37.365 -13.837   0.404  1.00  0.00    -0.323 OA
HETATM   15  O   UNL     1      37.490 -11.660   1.435  1.00  0.00    -0.323 OA
HETATM   16  C   UNL     1      39.305 -12.256   2.945  1.00  0.00     0.040 A 
HETATM   17  C   UNL     1      36.846 -12.492   0.446  1.00  0.00     0.352 A 
HETATM   18  C   UNL     1      40.164 -13.287   3.348  1.00  0.00     0.017 A 
ENDBRANCH   7  10
BRANCH   9  19
HETATM   19  C   UNL     1      43.372 -18.258   1.702  1.00  0.00     0.418 C 
HETATM   20  F   UNL     1      44.721 -18.264   1.902  1.00  0.00    -0.166 F 
HETATM   21  F   UNL     1      42.986 -19.561   1.681  1.00  0.00    -0.166 F 
HETATM   22  F   UNL     1      43.201 -17.805   0.427  1.00  0.00    -0.166 F 
ENDBRANCH   9  19
BRANCH   1  23
HETATM   23  C   UNL     1      43.661 -19.300   7.391  1.00  0.00     0.164 C 
HETATM   24  C   UNL     1      44.346 -18.590   8.537  1.00  0.00     0.097 C 
HETATM   25  O   UNL     1      43.596 -20.534   7.413  1.00  0.00    -0.292 OA
ENDBRANCH   1  23
BRANCH   5  26
HETATM   26  N   UNL     1      44.256 -19.550   4.460  1.00  0.00    -0.397 N 
HETATM   27  H   UNL     1      44.120 -20.018   3.565  1.00  0.00     0.156 HD
HETATM   28  H   UNL     1      45.254 -19.457   4.682  1.00  0.00     0.156 HD
ENDBRANCH   5  26
TORSDOF 4
ENDMDL
MODEL 8
REMARK VINA RESULT:      -7.6      3.196      3.936
REMARK  4 active torsions:
REMARK  status: ('A' for Active; 'I' for Inactive)
REMARK    1  A    between atoms: C_2  and  C_3 
REMARK    2  A    between atoms: C_7  and  N_8 
REMARK    3  A    between atoms: C_10  and  C_11 
REMARK    4  A    between atoms: C_21  and  C_22 
ROOT
HETATM    1  C   UNL     1      43.533 -19.044   4.930  1.00  0.00     0.079 A 
HETATM    2  S   UNL     1      42.999 -17.841   6.021  1.00  0.00    -0.064 SA
HETATM    3  C   UNL     1      42.241 -16.951   4.789  1.00  0.00     0.112 A 
HETATM    4  C   UNL     1      42.367 -17.531   3.533  1.00  0.00     0.043 A 
HETATM    5  C   UNL     1      43.134 -18.745   3.636  1.00  0.00     0.060 A 
HETATM    6  N   UNL     1      41.597 -15.811   5.097  1.00  0.00    -0.240 NA
HETATM    7  C   UNL     1      40.994 -15.183   4.071  1.00  0.00     0.069 A 
HETATM    8  C   UNL     1      41.046 -15.663   2.766  1.00  0.00     0.049 A 
HETATM    9  C   UNL     1      41.738 -16.853   2.457  1.00  0.00     0.065 A 
ENDROOT
BRANCH   7  10
HETATM   10  C   UNL     1      40.276 -13.940   4.431  1.00  0.00    -0.004 A 
HETATM   11  C   UNL     1      39.770 -13.094   3.422  1.00  0.00     0.053 A 
HETATM   12  C   UNL     1      39.105 -11.940   3.786  1.00  0.00     0.106 A 
HETATM   13  C   UNL     1      38.926 -11.592   5.101  1.00  0.00     0.105 A 
HETATM   14  O   UNL     1      38.561 -11.033   2.932  1.00  0.00    -0.323 OA
HETATM   15  O   UNL     1      38.250 -10.422   5.244  1.00  0.00    -0.323 OA
HETATM   16  C   UNL     1      39.406 -12.375   6.125  1.00  0.00     0.040 A 
HETATM   17  C   UNL     1      38.029 -10.068   3.862  1.00  0.00     0.352 A 
HETATM   18  C   UNL     1      40.085 -13.552   5.784  1.00  0.00     0.017 A 
ENDBRANCH   7  10
BRANCH   9  19
HETATM   19  C   UNL     1      41.731 -17.360   1.041  1.00  0.00     0.418 C 
HETATM   20  F   UNL     1      42.978 -17.547   0.523  1.00  0.00    -0.166 F 
HETATM   21  F   UNL     1      41.085 -18.550   0.914  1.00  0.00    -0.166 F 
HETATM   22  F   UNL     1      41.106 -16.511   0.174  1.00  0.00    -0.166 F 
ENDBRANCH   9  19
BRANCH   1  23
HETATM   23  C   UNL     1      44.324 -20.189   5.377  1.00  0.00     0.164 C 
HETATM   24  C   UNL     1      43.914 -20.923   6.635  1.00  0.00     0.097 C 
HETATM   25  O   UNL     1      45.324 -20.576   4.765  1.00  0.00    -0.292 OA
ENDBRANCH   1  23
BRANCH   5  26
HETATM   26  N   UNL     1      43.441 -19.540   2.583  1.00  0.00    -0.397 N 
HETATM   27  H   UNL     1      44.203 -20.216   2.608  1.00  0.00     0.156 HD
HETATM   28  H   UNL     1      42.687 -19.852   1.962  1.00  0.00     0.156 HD
ENDBRANCH   5  26
TORSDOF 4
ENDMDL
MODEL 9
REMARK VINA RESULT:      -7.6      4.435      7.123
REMARK  4 active torsions:
REMARK  status: ('A' for Active; 'I' for Inactive)
REMARK    1  A    between atoms: C_2  and  C_3 
REMARK    2  A    between atoms: C_7  and  N_8 
REMARK    3  A    between atoms: C_10  and  C_11 
REMARK    4  A    between atoms: C_21  and  C_22 
ROOT
HETATM    1  C   UNL     1      43.569 -15.477   5.655  1.00  0.00     0.079 A 
HETATM    2  S   UNL     1      42.783 -14.293   4.705  1.00  0.00    -0.064 SA
HETATM    3  C   UNL     1      42.556 -15.369   3.412  1.00  0.00     0.112 A 
HETATM    4  C   UNL     1      43.061 -16.640   3.658  1.00  0.00     0.043 A 
HETATM    5  C   UNL     1      43.657 -16.678   4.967  1.00  0.00     0.060 A 
HETATM    6  N   UNL     1      41.929 -14.944   2.300  1.00  0.00    -0.240 NA
HETATM    7  C   UNL     1      41.760 -15.866   1.334  1.00  0.00     0.069 A 
HETATM    8  C   UNL     1      42.218 -17.173   1.460  1.00  0.00     0.049 A 
HETATM    9  C   UNL     1      42.887 -17.600   2.627  1.00  0.00     0.065 A 
ENDROOT
BRANCH   7  10
HETATM   10  C   UNL     1      41.053 -15.386   0.126  1.00  0.00    -0.004 A 
HETATM   11  C   UNL     1      40.049 -14.401   0.234  1.00  0.00     0.053 A 
HETATM   12  C   UNL     1      39.405 -13.973  -0.909  1.00  0.00     0.106 A 
HETATM   13  C   UNL     1      39.713 -14.480  -2.147  1.00  0.00     0.105 A 
HETATM   14  O   UNL     1      38.425 -13.031  -0.964  1.00  0.00    -0.323 OA
HETATM   15  O   UNL     1      38.964 -13.927  -3.138  1.00  0.00    -0.323 OA
HETATM   16  C   UNL     1      40.676 -15.447  -2.309  1.00  0.00     0.040 A 
HETATM   17  C   UNL     1      38.142 -13.015  -2.378  1.00  0.00     0.352 A 
HETATM   18  C   UNL     1      41.346 -15.901  -1.165  1.00  0.00     0.017 A 
ENDBRANCH   7  10
BRANCH   9  19
HETATM   19  C   UNL     1      43.326 -19.034   2.740  1.00  0.00     0.418 C 
HETATM   20  F   UNL     1      44.679 -19.194   2.697  1.00  0.00    -0.166 F 
HETATM   21  F   UNL     1      42.911 -19.620   3.895  1.00  0.00    -0.166 F 
HETATM   22  F   UNL     1      42.840 -19.820   1.736  1.00  0.00    -0.166 F 
ENDBRANCH   9  19
BRANCH   1  23
HETATM   23  C   UNL     1      44.076 -15.176   6.993  1.00  0.00     0.164 C 
HETATM   24  C   UNL     1      44.761 -13.851   7.241  1.00  0.00     0.097 C 
HETATM   25  O   UNL     1      43.969 -15.973   7.931  1.00  0.00    -0.292 OA
ENDBRANCH   1  23
BRANCH   5  26
HETATM   26  N   UNL     1      44.247 -17.775   5.500  1.00  0.00    -0.397 N 
HETATM   27  H   UNL     1      44.768 -18.447   4.938  1.00  0.00     0.156 HD
HETATM   28  H   UNL     1      44.617 -17.723   6.456  1.00  0.00     0.156 HD
ENDBRANCH   5  26
TORSDOF 4
ENDMDL
MODEL 10
REMARK VINA RESULT:      -7.6      4.298      7.731
REMARK  4 active torsions:
REMARK  status: ('A' for Active; 'I' for Inactive)
REMARK    1  A    between atoms: C_2  and  C_3 
REMARK    2  A    between atoms: C_7  and  N_8 
REMARK    3  A    between atoms: C_10  and  C_11 
REMARK    4  A    between atoms: C_21  and  C_22 
ROOT
HETATM    1  C   UNL     1      40.584 -14.018   0.432  1.00  0.00     0.079 A 
HETATM    2  S   UNL     1      41.328 -15.440  -0.156  1.00  0.00    -0.064 SA
HETATM    3  C   UNL     1      41.634 -16.020   1.410  1.00  0.00     0.112 A 
HETATM    4  C   UNL     1      41.188 -15.167   2.411  1.00  0.00     0.043 A 
HETATM    5  C   UNL     1      40.588 -13.999   1.819  1.00  0.00     0.060 A 
HETATM    6  N   UNL     1      42.248 -17.207   1.567  1.00  0.00    -0.240 NA
HETATM    7  C   UNL     1      42.424 -17.612   2.839  1.00  0.00     0.069 A 
HETATM    8  C   UNL     1      42.020 -16.848   3.929  1.00  0.00     0.049 A 
HETATM    9  C   UNL     1      41.390 -15.598   3.747  1.00  0.00     0.065 A 
ENDROOT
BRANCH   7  10
HETATM   10  C   UNL     1      43.085 -18.927   2.993  1.00  0.00    -0.004 A 
HETATM   11  C   UNL     1      43.618 -19.313   4.240  1.00  0.00     0.053 A 
HETATM   12  C   UNL     1      44.230 -20.545   4.355  1.00  0.00     0.106 A 
HETATM   13  C   UNL     1      44.337 -21.402   3.289  1.00  0.00     0.105 A 
HETATM   14  O   UNL     1      44.783 -21.055   5.488  1.00  0.00    -0.323 OA
HETATM   15  O   UNL     1      44.973 -22.559   3.612  1.00  0.00    -0.323 OA
HETATM   16  C   UNL     1      43.843 -21.074   2.048  1.00  0.00     0.040 A 
HETATM   17  C   UNL     1      45.262 -22.328   5.007  1.00  0.00     0.352 A 
HETATM   18  C   UNL     1      43.217 -19.829   1.903  1.00  0.00     0.017 A 
ENDBRANCH   7  10
BRANCH   9  19
HETATM   19  C   UNL     1      40.928 -14.826   4.953  1.00  0.00     0.418 C 
HETATM   20  F   UNL     1      39.581 -14.615   4.981  1.00  0.00    -0.166 F 
HETATM   21  F   UNL     1      41.238 -15.446   6.123  1.00  0.00    -0.166 F 
HETATM   22  F   UNL     1      41.488 -13.585   5.038  1.00  0.00    -0.166 F 
ENDBRANCH   9  19
BRANCH   1  23
HETATM   23  C   UNL     1      40.063 -12.994  -0.471  1.00  0.00     0.164 C 
HETATM   24  C   UNL     1      40.949 -11.830  -0.856  1.00  0.00     0.097 C 
HETATM   25  O   UNL     1      38.917 -13.042  -0.929  1.00  0.00    -0.292 OA
ENDBRANCH   1  23
BRANCH   5  26
HETATM   26  N   UNL     1      40.065 -12.973   2.530  1.00  0.00    -0.397 N 
HETATM   27  H   UNL     1      40.643 -12.281   3.005  1.00  0.00     0.156 HD
HETATM   28  H   UNL     1      39.171 -12.567   2.230  1.00  0.00     0.156 HD
ENDBRANCH   5  26
TORSDOF 4
ENDMDL
