MODEL 1
REMARK VINA RESULT:      -9.3      0.000      0.000
REMARK  6 active torsions:
REMARK  status: ('A' for Active; 'I' for Inactive)
REMARK    1  A    between atoms: O_2  and  C_3 
REMARK    2  A    between atoms: C_6  and  C_7 
REMARK    3  A    between atoms: C_11  and  C_12 
REMARK       I    between atoms: C_12  and  N_13 
REMARK    4  A    between atoms: N_13  and  N_14 
REMARK       I    between atoms: N_14  and  C_15 
REMARK    5  A    between atoms: C_15  and  C_16 
REMARK    6  A    between atoms: C_17  and  C_18 
ROOT
HETATM    1  C   UNL     1      45.188 -13.224   7.854  1.00  0.00     0.288 C 
HETATM    2  N   UNL     1      44.270 -14.232   7.670  1.00  0.00    -0.262 N 
HETATM    3  O   UNL     1      46.182 -13.096   7.143  1.00  0.00    -0.264 OA
HETATM    4  H   UNL     1      43.410 -14.316   8.207  1.00  0.00     0.190 HD
ENDROOT
BRANCH   1   5
HETATM    5  C   UNL     1      44.897 -12.344   8.954  1.00  0.00     0.121 A 
HETATM    6  N   UNL     1      45.752 -11.357   9.355  1.00  0.00    -0.272 N 
HETATM    7  N   UNL     1      45.323 -10.654  10.414  1.00  0.00    -0.174 NA
HETATM    8  H   UNL     1      46.648 -11.119   8.938  1.00  0.00     0.189 HD
HETATM    9  C   UNL     1      44.153 -11.222  10.750  1.00  0.00     0.089 A 
HETATM   10  C   UNL     1      43.839 -12.267   9.837  1.00  0.00     0.071 A 
BRANCH   9  11
HETATM   11  C   UNL     1      43.374 -10.782  11.911  1.00  0.00    -0.005 A 
HETATM   12  C   UNL     1      42.152 -11.393  12.228  1.00  0.00     0.016 A 
HETATM   13  C   UNL     1      41.403 -10.975  13.337  1.00  0.00     0.037 A 
HETATM   14  C   UNL     1      41.863  -9.935  14.143  1.00  0.00     0.068 A 
HETATM   15  C   UNL     1      43.074  -9.318  13.829  1.00  0.00     0.037 A 
HETATM   16  C   UNL     1      43.824  -9.735  12.725  1.00  0.00     0.016 A 
BRANCH  14  17
HETATM   17  O   UNL     1      41.236  -9.428  15.247  1.00  0.00    -0.356 OA
HETATM   18  C   UNL     1      42.066  -9.023  16.328  1.00  0.00     0.210 C 
ENDBRANCH  14  17
ENDBRANCH   9  11
ENDBRANCH   1   5
BRANCH   2  19
HETATM   19  N   UNL     1      44.476 -15.214   6.695  1.00  0.00    -0.263 N 
HETATM   20  C   UNL     1      43.345 -15.725   6.093  1.00  0.00     0.271 C 
HETATM   21  O   UNL     1      42.223 -15.283   6.335  1.00  0.00    -0.266 OA
HETATM   22  H   UNL     1      45.419 -15.601   6.628  1.00  0.00     0.190 HD
BRANCH  20  23
HETATM   23  C   UNL     1      43.496 -16.905   5.200  1.00  0.00     0.048 A 
HETATM   24  C   UNL     1      43.678 -18.229   5.638  1.00  0.00     0.063 A 
HETATM   25  C   UNL     1      43.801 -19.246   4.670  1.00  0.00     0.017 A 
HETATM   26  C   UNL     1      43.770 -18.955   3.306  1.00  0.00     0.001 A 
HETATM   27  C   UNL     1      43.619 -17.641   2.880  1.00  0.00     0.001 A 
HETATM   28  C   UNL     1      43.485 -16.622   3.822  1.00  0.00     0.018 A 
BRANCH  24  29
HETATM   29  C   UNL     1      43.769 -18.587   7.096  1.00  0.00     0.418 C 
HETATM   30  F   UNL     1      42.830 -17.969   7.858  1.00  0.00    -0.166 F 
HETATM   31  F   UNL     1      43.610 -19.926   7.294  1.00  0.00    -0.166 F 
HETATM   32  F   UNL     1      44.969 -18.273   7.660  1.00  0.00    -0.166 F 
ENDBRANCH  24  29
ENDBRANCH  20  23
ENDBRANCH   2  19
TORSDOF 6
ENDMDL
MODEL 2
REMARK VINA RESULT:      -9.0      1.940      2.461
REMARK  6 active torsions:
REMARK  status: ('A' for Active; 'I' for Inactive)
REMARK    1  A    between atoms: O_2  and  C_3 
REMARK    2  A    between atoms: C_6  and  C_7 
REMARK    3  A    between atoms: C_11  and  C_12 
REMARK       I    between atoms: C_12  and  N_13 
REMARK    4  A    between atoms: N_13  and  N_14 
REMARK       I    between atoms: N_14  and  C_15 
REMARK    5  A    between atoms: C_15  and  C_16 
REMARK    6  A    between atoms: C_17  and  C_18 
ROOT
HETATM    1  C   UNL     1      44.978 -13.349   7.535  1.00  0.00     0.288 C 
HETATM    2  N   UNL     1      43.969 -14.269   7.366  1.00  0.00    -0.262 N 
HETATM    3  O   UNL     1      45.940 -13.275   6.775  1.00  0.00    -0.264 OA
HETATM    4  H   UNL     1      43.133 -14.302   7.947  1.00  0.00     0.190 HD
ENDROOT
BRANCH   1   5
HETATM    5  C   UNL     1      44.820 -12.493   8.680  1.00  0.00     0.121 A 
HETATM    6  N   UNL     1      45.763 -12.400   9.665  1.00  0.00    -0.272 N 
HETATM    7  N   UNL     1      45.431 -11.570  10.667  1.00  0.00    -0.174 NA
HETATM    8  H   UNL     1      46.655 -12.884   9.704  1.00  0.00     0.189 HD
HETATM    9  C   UNL     1      44.204 -11.125  10.349  1.00  0.00     0.089 A 
HETATM   10  C   UNL     1      43.801 -11.659   9.093  1.00  0.00     0.071 A 
BRANCH   9  11
HETATM   11  C   UNL     1      43.446 -10.227  11.226  1.00  0.00    -0.005 A 
HETATM   12  C   UNL     1      43.792 -10.081  12.576  1.00  0.00     0.016 A 
HETATM   13  C   UNL     1      43.070  -9.224  13.418  1.00  0.00     0.037 A 
HETATM   14  C   UNL     1      41.985  -8.503  12.921  1.00  0.00     0.068 A 
HETATM   15  C   UNL     1      41.630  -8.649  11.580  1.00  0.00     0.037 A 
HETATM   16  C   UNL     1      42.351  -9.501  10.739  1.00  0.00     0.016 A 
BRANCH  14  17
HETATM   17  O   UNL     1      41.196  -7.639  13.628  1.00  0.00    -0.356 OA
HETATM   18  C   UNL     1      39.809  -7.941  13.692  1.00  0.00     0.210 C 
ENDBRANCH  14  17
ENDBRANCH   9  11
ENDBRANCH   1   5
BRANCH   2  19
HETATM   19  N   UNL     1      44.039 -15.224   6.346  1.00  0.00    -0.263 N 
HETATM   20  C   UNL     1      43.500 -16.462   6.629  1.00  0.00     0.271 C 
HETATM   21  O   UNL     1      42.912 -16.689   7.686  1.00  0.00    -0.266 OA
HETATM   22  H   UNL     1      44.632 -14.996   5.547  1.00  0.00     0.190 HD
BRANCH  20  23
HETATM   23  C   UNL     1      43.726 -17.566   5.659  1.00  0.00     0.048 A 
HETATM   24  C   UNL     1      42.949 -17.801   4.510  1.00  0.00     0.063 A 
HETATM   25  C   UNL     1      43.290 -18.887   3.679  1.00  0.00     0.017 A 
HETATM   26  C   UNL     1      44.354 -19.733   3.993  1.00  0.00     0.001 A 
HETATM   27  C   UNL     1      45.100 -19.512   5.144  1.00  0.00     0.001 A 
HETATM   28  C   UNL     1      44.786 -18.437   5.973  1.00  0.00     0.018 A 
BRANCH  24  29
HETATM   29  C   UNL     1      41.762 -16.949   4.157  1.00  0.00     0.418 C 
HETATM   30  F   UNL     1      42.096 -15.672   3.836  1.00  0.00    -0.166 F 
HETATM   31  F   UNL     1      41.084 -17.453   3.088  1.00  0.00    -0.166 F 
HETATM   32  F   UNL     1      40.844 -16.851   5.159  1.00  0.00    -0.166 F 
ENDBRANCH  24  29
ENDBRANCH  20  23
ENDBRANCH   2  19
TORSDOF 6
ENDMDL
MODEL 3
REMARK VINA RESULT:      -8.5      2.470      3.240
REMARK  6 active torsions:
REMARK  status: ('A' for Active; 'I' for Inactive)
REMARK    1  A    between atoms: O_2  and  C_3 
REMARK    2  A    between atoms: C_6  and  C_7 
REMARK    3  A    between atoms: C_11  and  C_12 
REMARK       I    between atoms: C_12  and  N_13 
REMARK    4  A    between atoms: N_13  and  N_14 
REMARK       I    between atoms: N_14  and  C_15 
REMARK    5  A    between atoms: C_15  and  C_16 
REMARK    6  A    between atoms: C_17  and  C_18 
ROOT
HETATM    1  C   UNL     1      44.079 -14.131   5.760  1.00  0.00     0.288 C 
HETATM    2  N   UNL     1      43.959 -15.489   5.948  1.00  0.00    -0.262 N 
HETATM    3  O   UNL     1      44.068 -13.615   4.645  1.00  0.00    -0.264 OA
HETATM    4  H   UNL     1      43.901 -15.928   6.865  1.00  0.00     0.190 HD
ENDROOT
BRANCH   1   5
HETATM    5  C   UNL     1      44.233 -13.372   6.971  1.00  0.00     0.121 A 
HETATM    6  N   UNL     1      45.308 -13.519   7.801  1.00  0.00    -0.272 N 
HETATM    7  N   UNL     1      45.267 -12.744   8.896  1.00  0.00    -0.174 NA
HETATM    8  H   UNL     1      46.102 -14.139   7.668  1.00  0.00     0.189 HD
HETATM    9  C   UNL     1      44.101 -12.084   8.804  1.00  0.00     0.089 A 
HETATM   10  C   UNL     1      43.440 -12.430   7.594  1.00  0.00     0.071 A 
BRANCH   9  11
HETATM   11  C   UNL     1      43.639 -11.163   9.847  1.00  0.00    -0.005 A 
HETATM   12  C   UNL     1      42.486 -10.388   9.660  1.00  0.00     0.016 A 
HETATM   13  C   UNL     1      42.039  -9.506  10.654  1.00  0.00     0.037 A 
HETATM   14  C   UNL     1      42.745  -9.382  11.850  1.00  0.00     0.068 A 
HETATM   15  C   UNL     1      43.897 -10.145  12.041  1.00  0.00     0.037 A 
HETATM   16  C   UNL     1      44.342 -11.027  11.051  1.00  0.00     0.016 A 
BRANCH  14  17
HETATM   17  O   UNL     1      42.425  -8.564  12.897  1.00  0.00    -0.356 OA
HETATM   18  C   UNL     1      42.745  -9.033  14.200  1.00  0.00     0.210 C 
ENDBRANCH  14  17
ENDBRANCH   9  11
ENDBRANCH   1   5
BRANCH   2  19
HETATM   19  N   UNL     1      43.894 -16.358   4.853  1.00  0.00    -0.263 N 
HETATM   20  C   UNL     1      43.409 -17.624   5.104  1.00  0.00     0.271 C 
HETATM   21  O   UNL     1      42.975 -17.946   6.209  1.00  0.00    -0.266 OA
HETATM   22  H   UNL     1      44.369 -16.054   4.001  1.00  0.00     0.190 HD
BRANCH  20  23
HETATM   23  C   UNL     1      43.507 -18.641   4.024  1.00  0.00     0.048 A 
HETATM   24  C   UNL     1      42.771 -18.617   2.826  1.00  0.00     0.063 A 
HETATM   25  C   UNL     1      42.975 -19.652   1.890  1.00  0.00     0.017 A 
HETATM   26  C   UNL     1      43.865 -20.695   2.148  1.00  0.00     0.001 A 
HETATM   27  C   UNL     1      44.567 -20.728   3.347  1.00  0.00     0.001 A 
HETATM   28  C   UNL     1      44.387 -19.709   4.280  1.00  0.00     0.018 A 
BRANCH  24  29
HETATM   29  C   UNL     1      41.764 -17.542   2.524  1.00  0.00     0.418 C 
HETATM   30  F   UNL     1      40.997 -17.817   1.437  1.00  0.00    -0.166 F 
HETATM   31  F   UNL     1      40.906 -17.352   3.565  1.00  0.00    -0.166 F 
HETATM   32  F   UNL     1      42.324 -16.324   2.284  1.00  0.00    -0.166 F 
ENDBRANCH  24  29
ENDBRANCH  20  23
ENDBRANCH   2  19
TORSDOF 6
ENDMDL
MODEL 4
REMARK VINA RESULT:      -8.4      8.286     11.102
REMARK  6 active torsions:
REMARK  status: ('A' for Active; 'I' for Inactive)
REMARK    1  A    between atoms: O_2  and  C_3 
REMARK    2  A    between atoms: C_6  and  C_7 
REMARK    3  A    between atoms: C_11  and  C_12 
REMARK       I    between atoms: C_12  and  N_13 
REMARK    4  A    between atoms: N_13  and  N_14 
REMARK       I    between atoms: N_14  and  C_15 
REMARK    5  A    between atoms: C_15  and  C_16 
REMARK    6  A    between atoms: C_17  and  C_18 
ROOT
HETATM    1  C   UNL     1      41.147 -16.394   1.688  1.00  0.00     0.288 C 
HETATM    2  N   UNL     1      41.861 -17.451   1.171  1.00  0.00    -0.262 N 
HETATM    3  O   UNL     1      40.833 -16.325   2.874  1.00  0.00    -0.264 OA
HETATM    4  H   UNL     1      42.185 -17.493   0.207  1.00  0.00     0.190 HD
ENDROOT
BRANCH   1   5
HETATM    5  C   UNL     1      40.785 -15.389   0.725  1.00  0.00     0.121 A 
HETATM    6  N   UNL     1      39.516 -14.896   0.617  1.00  0.00    -0.272 N 
HETATM    7  N   UNL     1      39.362 -13.983  -0.355  1.00  0.00    -0.174 NA
HETATM    8  H   UNL     1      38.711 -15.149   1.184  1.00  0.00     0.189 HD
HETATM    9  C   UNL     1      40.570 -13.896  -0.936  1.00  0.00     0.089 A 
HETATM   10  C   UNL     1      41.496 -14.742  -0.265  1.00  0.00     0.071 A 
BRANCH   9  11
HETATM   11  C   UNL     1      40.819 -13.038  -2.099  1.00  0.00    -0.005 A 
HETATM   12  C   UNL     1      39.756 -12.546  -2.869  1.00  0.00     0.016 A 
HETATM   13  C   UNL     1      39.990 -11.726  -3.982  1.00  0.00     0.037 A 
HETATM   14  C   UNL     1      41.294 -11.390  -4.344  1.00  0.00     0.068 A 
HETATM   15  C   UNL     1      42.357 -11.882  -3.587  1.00  0.00     0.037 A 
HETATM   16  C   UNL     1      42.125 -12.698  -2.475  1.00  0.00     0.016 A 
BRANCH  14  17
HETATM   17  O   UNL     1      41.663 -10.606  -5.401  1.00  0.00    -0.356 OA
HETATM   18  C   UNL     1      42.524  -9.511  -5.118  1.00  0.00     0.210 C 
ENDBRANCH  14  17
ENDBRANCH   9  11
ENDBRANCH   1   5
BRANCH   2  19
HETATM   19  N   UNL     1      42.200 -18.544   1.976  1.00  0.00    -0.263 N 
HETATM   20  C   UNL     1      43.547 -18.747   2.195  1.00  0.00     0.271 C 
HETATM   21  O   UNL     1      44.399 -17.963   1.782  1.00  0.00    -0.266 OA
HETATM   22  H   UNL     1      41.450 -19.203   2.190  1.00  0.00     0.190 HD
BRANCH  20  23
HETATM   23  C   UNL     1      43.966 -20.003   2.873  1.00  0.00     0.048 A 
HETATM   24  C   UNL     1      44.203 -20.132   4.254  1.00  0.00     0.063 A 
HETATM   25  C   UNL     1      44.592 -21.392   4.754  1.00  0.00     0.017 A 
HETATM   26  C   UNL     1      44.767 -22.485   3.905  1.00  0.00     0.001 A 
HETATM   27  C   UNL     1      44.559 -22.342   2.538  1.00  0.00     0.001 A 
HETATM   28  C   UNL     1      44.164 -21.108   2.026  1.00  0.00     0.018 A 
BRANCH  24  29
HETATM   29  C   UNL     1      44.077 -18.972   5.202  1.00  0.00     0.418 C 
HETATM   30  F   UNL     1      44.862 -17.917   4.865  1.00  0.00    -0.166 F 
HETATM   31  F   UNL     1      42.799 -18.503   5.254  1.00  0.00    -0.166 F 
HETATM   32  F   UNL     1      44.405 -19.282   6.488  1.00  0.00    -0.166 F 
ENDBRANCH  24  29
ENDBRANCH  20  23
ENDBRANCH   2  19
TORSDOF 6
ENDMDL
MODEL 5
REMARK VINA RESULT:      -8.4      8.007     12.144
REMARK  6 active torsions:
REMARK  status: ('A' for Active; 'I' for Inactive)
REMARK    1  A    between atoms: O_2  and  C_3 
REMARK    2  A    between atoms: C_6  and  C_7 
REMARK    3  A    between atoms: C_11  and  C_12 
REMARK       I    between atoms: C_12  and  N_13 
REMARK    4  A    between atoms: N_13  and  N_14 
REMARK       I    between atoms: N_14  and  C_15 
REMARK    5  A    between atoms: C_15  and  C_16 
REMARK    6  A    between atoms: C_17  and  C_18 
ROOT
HETATM    1  C   UNL     1      41.693 -14.975   0.299  1.00  0.00     0.288 C 
HETATM    2  N   UNL     1      42.096 -16.213  -0.146  1.00  0.00    -0.262 N 
HETATM    3  O   UNL     1      42.091 -14.489   1.354  1.00  0.00    -0.264 OA
HETATM    4  H   UNL     1      41.828 -16.603  -1.047  1.00  0.00     0.190 HD
ENDROOT
BRANCH   1   5
HETATM    5  C   UNL     1      40.758 -14.306  -0.565  1.00  0.00     0.121 A 
HETATM    6  N   UNL     1      40.594 -12.949  -0.563  1.00  0.00    -0.272 N 
HETATM    7  N   UNL     1      39.658 -12.508  -1.418  1.00  0.00    -0.174 NA
HETATM    8  H   UNL     1      41.097 -12.274   0.005  1.00  0.00     0.189 HD
HETATM    9  C   UNL     1      39.158 -13.620  -1.981  1.00  0.00     0.089 A 
HETATM   10  C   UNL     1      39.845 -14.765  -1.492  1.00  0.00     0.071 A 
BRANCH   9  11
HETATM   11  C   UNL     1      38.054 -13.581  -2.946  1.00  0.00    -0.005 A 
HETATM   12  C   UNL     1      37.487 -12.360  -3.337  1.00  0.00     0.016 A 
HETATM   13  C   UNL     1      36.431 -12.318  -4.259  1.00  0.00     0.037 A 
HETATM   14  C   UNL     1      35.923 -13.499  -4.799  1.00  0.00     0.068 A 
HETATM   15  C   UNL     1      36.478 -14.717  -4.408  1.00  0.00     0.037 A 
HETATM   16  C   UNL     1      37.533 -14.761  -3.491  1.00  0.00     0.016 A 
BRANCH  14  17
HETATM   17  O   UNL     1      34.901 -13.602  -5.700  1.00  0.00    -0.356 OA
HETATM   18  C   UNL     1      35.259 -13.651  -7.075  1.00  0.00     0.210 C 
ENDBRANCH  14  17
ENDBRANCH   9  11
ENDBRANCH   1   5
BRANCH   2  19
HETATM   19  N   UNL     1      42.934 -17.014   0.638  1.00  0.00    -0.263 N 
HETATM   20  C   UNL     1      42.313 -17.966   1.420  1.00  0.00     0.271 C 
HETATM   21  O   UNL     1      41.100 -18.161   1.366  1.00  0.00    -0.266 OA
HETATM   22  H   UNL     1      43.910 -16.722   0.709  1.00  0.00     0.190 HD
BRANCH  20  23
HETATM   23  C   UNL     1      43.135 -18.703   2.416  1.00  0.00     0.048 A 
HETATM   24  C   UNL     1      43.457 -18.233   3.701  1.00  0.00     0.063 A 
HETATM   25  C   UNL     1      44.245 -19.049   4.539  1.00  0.00     0.017 A 
HETATM   26  C   UNL     1      44.721 -20.286   4.103  1.00  0.00     0.001 A 
HETATM   27  C   UNL     1      44.422 -20.732   2.821  1.00  0.00     0.001 A 
HETATM   28  C   UNL     1      43.637 -19.944   1.982  1.00  0.00     0.018 A 
BRANCH  24  29
HETATM   29  C   UNL     1      43.011 -16.886   4.198  1.00  0.00     0.418 C 
HETATM   30  F   UNL     1      41.672 -16.689   4.083  1.00  0.00    -0.166 F 
HETATM   31  F   UNL     1      43.316 -16.710   5.515  1.00  0.00    -0.166 F 
HETATM   32  F   UNL     1      43.596 -15.843   3.545  1.00  0.00    -0.166 F 
ENDBRANCH  24  29
ENDBRANCH  20  23
ENDBRANCH   2  19
TORSDOF 6
ENDMDL
MODEL 6
REMARK VINA RESULT:      -8.4      7.978     12.519
REMARK  6 active torsions:
REMARK  status: ('A' for Active; 'I' for Inactive)
REMARK    1  A    between atoms: O_2  and  C_3 
REMARK    2  A    between atoms: C_6  and  C_7 
REMARK    3  A    between atoms: C_11  and  C_12 
REMARK       I    between atoms: C_12  and  N_13 
REMARK    4  A    between atoms: N_13  and  N_14 
REMARK       I    between atoms: N_14  and  C_15 
REMARK    5  A    between atoms: C_15  and  C_16 
REMARK    6  A    between atoms: C_17  and  C_18 
ROOT
HETATM    1  C   UNL     1      41.442 -14.738  -0.459  1.00  0.00     0.288 C 
HETATM    2  N   UNL     1      41.868 -16.043  -0.374  1.00  0.00    -0.262 N 
HETATM    3  O   UNL     1      41.776 -13.879   0.353  1.00  0.00    -0.264 OA
HETATM    4  H   UNL     1      41.654 -16.752  -1.073  1.00  0.00     0.190 HD
ENDROOT
BRANCH   1   5
HETATM    5  C   UNL     1      40.564 -14.466  -1.565  1.00  0.00     0.121 A 
HETATM    6  N   UNL     1      41.017 -14.303  -2.843  1.00  0.00    -0.272 N 
HETATM    7  N   UNL     1      40.053 -14.031  -3.738  1.00  0.00    -0.174 NA
HETATM    8  H   UNL     1      41.980 -14.365  -3.163  1.00  0.00     0.189 HD
HETATM    9  C   UNL     1      38.922 -13.978  -3.015  1.00  0.00     0.089 A 
HETATM   10  C   UNL     1      39.199 -14.276  -1.652  1.00  0.00     0.071 A 
BRANCH   9  11
HETATM   11  C   UNL     1      37.626 -13.643  -3.614  1.00  0.00    -0.005 A 
HETATM   12  C   UNL     1      37.138 -12.330  -3.578  1.00  0.00     0.016 A 
HETATM   13  C   UNL     1      35.898 -12.005  -4.149  1.00  0.00     0.037 A 
HETATM   14  C   UNL     1      35.127 -12.993  -4.760  1.00  0.00     0.068 A 
HETATM   15  C   UNL     1      35.604 -14.303  -4.793  1.00  0.00     0.037 A 
HETATM   16  C   UNL     1      36.841 -14.628  -4.226  1.00  0.00     0.016 A 
BRANCH  14  17
HETATM   17  O   UNL     1      33.907 -12.817  -5.350  1.00  0.00    -0.356 OA
HETATM   18  C   UNL     1      32.933 -12.095  -4.609  1.00  0.00     0.210 C 
ENDBRANCH  14  17
ENDBRANCH   9  11
ENDBRANCH   1   5
BRANCH   2  19
HETATM   19  N   UNL     1      42.653 -16.468   0.703  1.00  0.00    -0.263 N 
HETATM   20  C   UNL     1      42.032 -17.277   1.631  1.00  0.00     0.271 C 
HETATM   21  O   UNL     1      40.878 -17.677   1.477  1.00  0.00    -0.266 OA
HETATM   22  H   UNL     1      43.559 -16.011   0.816  1.00  0.00     0.190 HD
BRANCH  20  23
HETATM   23  C   UNL     1      42.758 -17.590   2.890  1.00  0.00     0.048 A 
HETATM   24  C   UNL     1      43.546 -18.736   3.102  1.00  0.00     0.063 A 
HETATM   25  C   UNL     1      44.180 -18.894   4.351  1.00  0.00     0.017 A 
HETATM   26  C   UNL     1      44.017 -17.954   5.370  1.00  0.00     0.001 A 
HETATM   27  C   UNL     1      43.215 -16.839   5.163  1.00  0.00     0.001 A 
HETATM   28  C   UNL     1      42.588 -16.660   3.932  1.00  0.00     0.018 A 
BRANCH  24  29
HETATM   29  C   UNL     1      43.711 -19.802   2.055  1.00  0.00     0.418 C 
HETATM   30  F   UNL     1      44.662 -20.719   2.369  1.00  0.00    -0.166 F 
HETATM   31  F   UNL     1      42.554 -20.495   1.857  1.00  0.00    -0.166 F 
HETATM   32  F   UNL     1      44.058 -19.313   0.831  1.00  0.00    -0.166 F 
ENDBRANCH  24  29
ENDBRANCH  20  23
ENDBRANCH   2  19
TORSDOF 6
ENDMDL
MODEL 7
REMARK VINA RESULT:      -8.3      9.417     12.123
REMARK  6 active torsions:
REMARK  status: ('A' for Active; 'I' for Inactive)
REMARK    1  A    between atoms: O_2  and  C_3 
REMARK    2  A    between atoms: C_6  and  C_7 
REMARK    3  A    between atoms: C_11  and  C_12 
REMARK       I    between atoms: C_12  and  N_13 
REMARK    4  A    between atoms: N_13  and  N_14 
REMARK       I    between atoms: N_14  and  C_15 
REMARK    5  A    between atoms: C_15  and  C_16 
REMARK    6  A    between atoms: C_17  and  C_18 
ROOT
HETATM    1  C   UNL     1      41.030 -14.884  -0.847  1.00  0.00     0.288 C 
HETATM    2  N   UNL     1      41.620 -13.664  -0.606  1.00  0.00    -0.262 N 
HETATM    3  O   UNL     1      40.344 -15.102  -1.842  1.00  0.00    -0.264 OA
HETATM    4  H   UNL     1      42.243 -13.485   0.179  1.00  0.00     0.190 HD
ENDROOT
BRANCH   1   5
HETATM    5  C   UNL     1      41.269 -15.874   0.169  1.00  0.00     0.121 A 
HETATM    6  N   UNL     1      40.324 -16.226   1.091  1.00  0.00    -0.272 N 
HETATM    7  N   UNL     1      40.736 -17.148   1.975  1.00  0.00    -0.174 NA
HETATM    8  H   UNL     1      39.377 -15.866   1.164  1.00  0.00     0.189 HD
HETATM    9  C   UNL     1      42.016 -17.389   1.646  1.00  0.00     0.089 A 
HETATM   10  C   UNL     1      42.376 -16.629   0.499  1.00  0.00     0.071 A 
BRANCH   9  11
HETATM   11  C   UNL     1      42.863 -18.307   2.414  1.00  0.00    -0.005 A 
HETATM   12  C   UNL     1      43.357 -19.483   1.833  1.00  0.00     0.016 A 
HETATM   13  C   UNL     1      44.166 -20.365   2.564  1.00  0.00     0.037 A 
HETATM   14  C   UNL     1      44.489 -20.084   3.890  1.00  0.00     0.068 A 
HETATM   15  C   UNL     1      43.995 -18.920   4.478  1.00  0.00     0.037 A 
HETATM   16  C   UNL     1      43.189 -18.038   3.750  1.00  0.00     0.016 A 
BRANCH  14  17
HETATM   17  O   UNL     1      45.261 -20.853   4.715  1.00  0.00    -0.356 OA
HETATM   18  C   UNL     1      44.879 -22.213   4.871  1.00  0.00     0.210 C 
ENDBRANCH  14  17
ENDBRANCH   9  11
ENDBRANCH   1   5
BRANCH   2  19
HETATM   19  N   UNL     1      41.396 -12.582  -1.464  1.00  0.00    -0.263 N 
HETATM   20  C   UNL     1      42.375 -12.334  -2.403  1.00  0.00     0.271 C 
HETATM   21  O   UNL     1      43.348 -13.073  -2.539  1.00  0.00    -0.266 OA
HETATM   22  H   UNL     1      40.625 -11.958  -1.221  1.00  0.00     0.190 HD
BRANCH  20  23
HETATM   23  C   UNL     1      42.281 -11.083  -3.203  1.00  0.00     0.048 A 
HETATM   24  C   UNL     1      42.709  -9.816  -2.769  1.00  0.00     0.063 A 
HETATM   25  C   UNL     1      42.560  -8.720  -3.643  1.00  0.00     0.017 A 
HETATM   26  C   UNL     1      41.978  -8.873  -4.902  1.00  0.00     0.001 A 
HETATM   27  C   UNL     1      41.531 -10.123  -5.313  1.00  0.00     0.001 A 
HETATM   28  C   UNL     1      41.680 -11.220  -4.467  1.00  0.00     0.018 A 
BRANCH  24  29
HETATM   29  C   UNL     1      43.296  -9.591  -1.403  1.00  0.00     0.418 C 
HETATM   30  F   UNL     1      44.334 -10.420  -1.123  1.00  0.00    -0.166 F 
HETATM   31  F   UNL     1      43.766  -8.319  -1.261  1.00  0.00    -0.166 F 
HETATM   32  F   UNL     1      42.400  -9.764  -0.391  1.00  0.00    -0.166 F 
ENDBRANCH  24  29
ENDBRANCH  20  23
ENDBRANCH   2  19
TORSDOF 6
ENDMDL
MODEL 8
REMARK VINA RESULT:      -8.2      3.825     10.263
REMARK  6 active torsions:
REMARK  status: ('A' for Active; 'I' for Inactive)
REMARK    1  A    between atoms: O_2  and  C_3 
REMARK    2  A    between atoms: C_6  and  C_7 
REMARK    3  A    between atoms: C_11  and  C_12 
REMARK       I    between atoms: C_12  and  N_13 
REMARK    4  A    between atoms: N_13  and  N_14 
REMARK       I    between atoms: N_14  and  C_15 
REMARK    5  A    between atoms: C_15  and  C_16 
REMARK    6  A    between atoms: C_17  and  C_18 
ROOT
HETATM    1  C   UNL     1      41.805 -12.125   5.899  1.00  0.00     0.288 C 
HETATM    2  N   UNL     1      42.201 -12.117   7.217  1.00  0.00    -0.262 N 
HETATM    3  O   UNL     1      41.019 -11.300   5.440  1.00  0.00    -0.264 OA
HETATM    4  H   UNL     1      42.899 -12.751   7.599  1.00  0.00     0.190 HD
ENDROOT
BRANCH   1   5
HETATM    5  C   UNL     1      42.372 -13.185   5.112  1.00  0.00     0.121 A 
HETATM    6  N   UNL     1      42.853 -12.989   3.848  1.00  0.00    -0.272 N 
HETATM    7  N   UNL     1      43.321 -14.100   3.258  1.00  0.00    -0.174 NA
HETATM    8  H   UNL     1      42.885 -12.111   3.336  1.00  0.00     0.189 HD
HETATM    9  C   UNL     1      43.108 -15.077   4.155  1.00  0.00     0.089 A 
HETATM   10  C   UNL     1      42.543 -14.536   5.342  1.00  0.00     0.071 A 
BRANCH   9  11
HETATM   11  C   UNL     1      43.429 -16.480   3.874  1.00  0.00    -0.005 A 
HETATM   12  C   UNL     1      43.550 -17.410   4.916  1.00  0.00     0.016 A 
HETATM   13  C   UNL     1      43.857 -18.753   4.652  1.00  0.00     0.037 A 
HETATM   14  C   UNL     1      44.054 -19.183   3.341  1.00  0.00     0.068 A 
HETATM   15  C   UNL     1      43.942 -18.262   2.300  1.00  0.00     0.037 A 
HETATM   16  C   UNL     1      43.633 -16.923   2.561  1.00  0.00     0.016 A 
BRANCH  14  17
HETATM   17  O   UNL     1      44.359 -20.455   2.944  1.00  0.00    -0.356 OA
HETATM   18  C   UNL     1      43.616 -20.984   1.854  1.00  0.00     0.210 C 
ENDBRANCH  14  17
ENDBRANCH   9  11
ENDBRANCH   1   5
BRANCH   2  19
HETATM   19  N   UNL     1      41.656 -11.196   8.120  1.00  0.00    -0.263 N 
HETATM   20  C   UNL     1      42.555 -10.503   8.903  1.00  0.00     0.271 C 
HETATM   21  O   UNL     1      43.771 -10.620   8.758  1.00  0.00    -0.266 OA
HETATM   22  H   UNL     1      40.645 -11.234   8.256  1.00  0.00     0.190 HD
BRANCH  20  23
HETATM   23  C   UNL     1      42.022  -9.665  10.010  1.00  0.00     0.048 A 
HETATM   24  C   UNL     1      42.367  -9.807  11.366  1.00  0.00     0.063 A 
HETATM   25  C   UNL     1      41.782  -8.932  12.304  1.00  0.00     0.017 A 
HETATM   26  C   UNL     1      40.860  -7.961  11.911  1.00  0.00     0.001 A 
HETATM   27  C   UNL     1      40.502  -7.845  10.574  1.00  0.00     0.001 A 
HETATM   28  C   UNL     1      41.078  -8.693   9.630  1.00  0.00     0.018 A 
BRANCH  24  29
HETATM   29  C   UNL     1      43.316 -10.870  11.846  1.00  0.00     0.418 C 
HETATM   30  F   UNL     1      43.087 -12.085  11.283  1.00  0.00    -0.166 F 
HETATM   31  F   UNL     1      44.611 -10.551  11.565  1.00  0.00    -0.166 F 
HETATM   32  F   UNL     1      43.273 -11.071  13.193  1.00  0.00    -0.166 F 
ENDBRANCH  24  29
ENDBRANCH  20  23
ENDBRANCH   2  19
TORSDOF 6
ENDMDL
MODEL 9
REMARK VINA RESULT:      -8.1      7.310     11.320
REMARK  6 active torsions:
REMARK  status: ('A' for Active; 'I' for Inactive)
REMARK    1  A    between atoms: O_2  and  C_3 
REMARK    2  A    between atoms: C_6  and  C_7 
REMARK    3  A    between atoms: C_11  and  C_12 
REMARK       I    between atoms: C_12  and  N_13 
REMARK    4  A    between atoms: N_13  and  N_14 
REMARK       I    between atoms: N_14  and  C_15 
REMARK    5  A    between atoms: C_15  and  C_16 
REMARK    6  A    between atoms: C_17  and  C_18 
ROOT
HETATM    1  C   UNL     1      40.866 -16.377   1.172  1.00  0.00     0.288 C 
HETATM    2  N   UNL     1      41.000 -16.003   2.489  1.00  0.00    -0.262 N 
HETATM    3  O   UNL     1      41.008 -17.538   0.796  1.00  0.00    -0.264 OA
HETATM    4  H   UNL     1      40.823 -15.059   2.828  1.00  0.00     0.190 HD
ENDROOT
BRANCH   1   5
HETATM    5  C   UNL     1      40.564 -15.297   0.272  1.00  0.00     0.121 A 
HETATM    6  N   UNL     1      39.334 -14.703   0.220  1.00  0.00    -0.272 N 
HETATM    7  N   UNL     1      39.232 -13.730  -0.699  1.00  0.00    -0.174 NA
HETATM    8  H   UNL     1      38.524 -14.925   0.791  1.00  0.00     0.189 HD
HETATM    9  C   UNL     1      40.431 -13.703  -1.303  1.00  0.00     0.089 A 
HETATM   10  C   UNL     1      41.302 -14.652  -0.699  1.00  0.00     0.071 A 
BRANCH   9  11
HETATM   11  C   UNL     1      40.723 -12.805  -2.425  1.00  0.00    -0.005 A 
HETATM   12  C   UNL     1      42.046 -12.526  -2.794  1.00  0.00     0.016 A 
HETATM   13  C   UNL     1      42.330 -11.667  -3.866  1.00  0.00     0.037 A 
HETATM   14  C   UNL     1      41.292 -11.071  -4.581  1.00  0.00     0.068 A 
HETATM   15  C   UNL     1      39.974 -11.339  -4.214  1.00  0.00     0.037 A 
HETATM   16  C   UNL     1      39.689 -12.197  -3.147  1.00  0.00     0.016 A 
BRANCH  14  17
HETATM   17  O   UNL     1      41.426 -10.217  -5.640  1.00  0.00    -0.356 OA
HETATM   18  C   UNL     1      42.449  -9.234  -5.548  1.00  0.00     0.210 C 
ENDBRANCH  14  17
ENDBRANCH   9  11
ENDBRANCH   1   5
BRANCH   2  19
HETATM   19  N   UNL     1      41.383 -16.935   3.460  1.00  0.00    -0.263 N 
HETATM   20  C   UNL     1      42.688 -16.860   3.898  1.00  0.00     0.271 C 
HETATM   21  O   UNL     1      43.450 -15.970   3.524  1.00  0.00    -0.266 OA
HETATM   22  H   UNL     1      40.732 -17.702   3.638  1.00  0.00     0.190 HD
BRANCH  20  23
HETATM   23  C   UNL     1      43.199 -17.948   4.775  1.00  0.00     0.048 A 
HETATM   24  C   UNL     1      43.803 -19.133   4.319  1.00  0.00     0.063 A 
HETATM   25  C   UNL     1      44.244 -20.073   5.273  1.00  0.00     0.017 A 
HETATM   26  C   UNL     1      44.066 -19.855   6.640  1.00  0.00     0.001 A 
HETATM   27  C   UNL     1      43.442 -18.694   7.081  1.00  0.00     0.001 A 
HETATM   28  C   UNL     1      43.009 -17.748   6.155  1.00  0.00     0.018 A 
BRANCH  24  29
HETATM   29  C   UNL     1      43.972 -19.437   2.856  1.00  0.00     0.418 C 
HETATM   30  F   UNL     1      44.776 -20.506   2.621  1.00  0.00    -0.166 F 
HETATM   31  F   UNL     1      42.778 -19.712   2.260  1.00  0.00    -0.166 F 
HETATM   32  F   UNL     1      44.507 -18.407   2.144  1.00  0.00    -0.166 F 
ENDBRANCH  24  29
ENDBRANCH  20  23
ENDBRANCH   2  19
TORSDOF 6
ENDMDL
MODEL 10
REMARK VINA RESULT:      -8.0      9.763     12.347
REMARK  6 active torsions:
REMARK  status: ('A' for Active; 'I' for Inactive)
REMARK    1  A    between atoms: O_2  and  C_3 
REMARK    2  A    between atoms: C_6  and  C_7 
REMARK    3  A    between atoms: C_11  and  C_12 
REMARK       I    between atoms: C_12  and  N_13 
REMARK    4  A    between atoms: N_13  and  N_14 
REMARK       I    between atoms: N_14  and  C_15 
REMARK    5  A    between atoms: C_15  and  C_16 
REMARK    6  A    between atoms: C_17  and  C_18 
ROOT
HETATM    1  C   UNL     1      41.253 -14.749  -0.136  1.00  0.00     0.288 C 
HETATM    2  N   UNL     1      39.960 -14.603  -0.584  1.00  0.00    -0.262 N 
HETATM    3  O   UNL     1      42.110 -13.885  -0.296  1.00  0.00    -0.264 OA
HETATM    4  H   UNL     1      39.221 -15.280  -0.405  1.00  0.00     0.190 HD
ENDROOT
BRANCH   1   5
HETATM    5  C   UNL     1      41.520 -16.002   0.517  1.00  0.00     0.121 A 
HETATM    6  N   UNL     1      40.551 -16.940   0.739  1.00  0.00    -0.272 N 
HETATM    7  N   UNL     1      40.982 -18.035   1.384  1.00  0.00    -0.174 NA
HETATM    8  H   UNL     1      39.573 -16.882   0.468  1.00  0.00     0.189 HD
HETATM    9  C   UNL     1      42.280 -17.796   1.632  1.00  0.00     0.089 A 
HETATM   10  C   UNL     1      42.660 -16.543   1.076  1.00  0.00     0.071 A 
BRANCH   9  11
HETATM   11  C   UNL     1      43.119 -18.734   2.384  1.00  0.00    -0.005 A 
HETATM   12  C   UNL     1      43.468 -19.978   1.840  1.00  0.00     0.016 A 
HETATM   13  C   UNL     1      44.271 -20.879   2.556  1.00  0.00     0.037 A 
HETATM   14  C   UNL     1      44.730 -20.550   3.830  1.00  0.00     0.068 A 
HETATM   15  C   UNL     1      44.381 -19.316   4.380  1.00  0.00     0.037 A 
HETATM   16  C   UNL     1      43.583 -18.416   3.667  1.00  0.00     0.016 A 
BRANCH  14  17
HETATM   17  O   UNL     1      45.513 -21.330   4.634  1.00  0.00    -0.356 OA
HETATM   18  C   UNL     1      44.855 -22.345   5.381  1.00  0.00     0.210 C 
ENDBRANCH  14  17
ENDBRANCH   9  11
ENDBRANCH   1   5
BRANCH   2  19
HETATM   19  N   UNL     1      39.584 -13.472  -1.318  1.00  0.00    -0.263 N 
HETATM   20  C   UNL     1      39.360 -13.664  -2.665  1.00  0.00     0.271 C 
HETATM   21  O   UNL     1      39.402 -14.781  -3.178  1.00  0.00    -0.266 OA
HETATM   22  H   UNL     1      39.675 -12.571  -0.847  1.00  0.00     0.190 HD
BRANCH  20  23
HETATM   23  C   UNL     1      39.155 -12.466  -3.521  1.00  0.00     0.048 A 
HETATM   24  C   UNL     1      40.186 -11.674  -4.060  1.00  0.00     0.063 A 
HETATM   25  C   UNL     1      39.836 -10.568  -4.860  1.00  0.00     0.017 A 
HETATM   26  C   UNL     1      38.501 -10.241  -5.099  1.00  0.00     0.001 A 
HETATM   27  C   UNL     1      37.487 -11.011  -4.541  1.00  0.00     0.001 A 
HETATM   28  C   UNL     1      37.813 -12.115  -3.755  1.00  0.00     0.018 A 
BRANCH  24  29
HETATM   29  C   UNL     1      41.638 -11.956  -3.790  1.00  0.00     0.418 C 
HETATM   30  F   UNL     1      42.477 -11.285  -4.621  1.00  0.00    -0.166 F 
HETATM   31  F   UNL     1      41.990 -11.606  -2.520  1.00  0.00    -0.166 F 
HETATM   32  F   UNL     1      41.969 -13.272  -3.911  1.00  0.00    -0.166 F 
ENDBRANCH  24  29
ENDBRANCH  20  23
ENDBRANCH   2  19
TORSDOF 6
ENDMDL
