MODEL 1
REMARK VINA RESULT:      -7.9      0.000      0.000
REMARK  7 active torsions:
REMARK  status: ('A' for Active; 'I' for Inactive)
REMARK    1  A    between atoms: C_7  and  C_8 
REMARK    2  A    between atoms: C_8  and  C_9 
REMARK    3  A    between atoms: C_9  and  C_10 
REMARK    4  A    between atoms: C_10  and  O_11 
REMARK    5  A    between atoms: C_13  and  C_14 
REMARK    6  A    between atoms: C_21  and  C_22 
REMARK       I    between atoms: C_22  and  N_23 
REMARK    7  A    between atoms: N_23  and  C_24 
ROOT
HETATM    1  C   UNL     1      44.212 -15.822   6.813  1.00  0.00     0.070 C 
HETATM    2  C   UNL     1      43.070 -15.046   6.204  1.00  0.00     0.037 A 
HETATM    3  N   UNL     1      43.025 -13.693   6.522  1.00  0.00    -0.192 N 
HETATM    4  C   UNL     1      42.041 -12.868   6.118  1.00  0.00     0.726 A 
HETATM    5  N   UNL     1      41.054 -13.354   5.308  1.00  0.00    -0.083 N 
HETATM    6  N   UNL     1      40.082 -12.437   5.114  1.00  0.00    -0.140 NA
HETATM    7  C   UNL     1      40.616 -11.376   5.738  1.00  0.00     0.166 A 
HETATM    8  N   UNL     1      41.807 -11.609   6.384  1.00  0.00    -0.046 NA
HETATM    9  C   UNL     1      40.994 -14.736   4.817  1.00  0.00     0.202 A 
HETATM   10  C   UNL     1      42.113 -15.586   5.407  1.00  0.00     0.062 A 
HETATM   11  H   UNL     1      43.755 -13.323   7.125  1.00  0.00     0.184 HD
ENDROOT
BRANCH  10  12
HETATM   12  C   UNL     1      42.193 -17.017   5.003  1.00  0.00     0.256 C 
HETATM   13  N   UNL     1      43.249 -17.296   4.160  1.00  0.00    -0.323 N 
HETATM   14  H   UNL     1      43.879 -16.546   3.913  1.00  0.00     0.169 HD
HETATM   15  O   UNL     1      41.360 -17.807   5.427  1.00  0.00    -0.267 OA
BRANCH  13  16
HETATM   16  C   UNL     1      43.555 -18.542   3.569  1.00  0.00     0.035 A 
HETATM   17  C   UNL     1      43.070 -18.959   2.328  1.00  0.00     0.029 A 
HETATM   18  C   UNL     1      43.441 -20.201   1.802  1.00  0.00     0.002 A 
HETATM   19  C   UNL     1      44.291 -21.042   2.517  1.00  0.00     0.000 A 
HETATM   20  C   UNL     1      44.777 -20.639   3.757  1.00  0.00     0.002 A 
HETATM   21  C   UNL     1      44.415 -19.392   4.278  1.00  0.00     0.029 A 
ENDBRANCH  13  16
ENDBRANCH  10  12
BRANCH   9  22
HETATM   22  C   UNL     1      40.935 -14.734   3.292  1.00  0.00    -0.028 A 
HETATM   23  C   UNL     1      39.842 -15.271   2.590  1.00  0.00     0.011 A 
HETATM   24  C   UNL     1      39.831 -15.286   1.193  1.00  0.00     0.019 A 
HETATM   25  C   UNL     1      40.918 -14.779   0.485  1.00  0.00     0.011 A 
HETATM   26 BR   UNL     1      40.909 -14.812  -1.405  1.00  0.00    -0.051 Br
HETATM   27  C   UNL     1      42.017 -14.255   1.161  1.00  0.00     0.019 A 
HETATM   28  C   UNL     1      42.025 -14.233   2.556  1.00  0.00     0.011 A 
ENDBRANCH   9  22
BRANCH   7  29
HETATM   29  C   UNL     1      39.971 -10.040   5.723  1.00  0.00     0.085 C 
BRANCH  29  30
HETATM   30  C   UNL     1      39.678  -9.533   4.312  1.00  0.00     0.034 C 
BRANCH  30  31
HETATM   31  C   UNL     1      38.187  -9.456   4.000  1.00  0.00     0.164 C 
BRANCH  31  32
HETATM   32  O   UNL     1      37.580 -10.718   4.262  1.00  0.00    -0.401 OA
HETATM   33  H   UNL     1      38.249 -11.283   4.682  1.00  0.00     0.209 HD
ENDBRANCH  31  32
ENDBRANCH  30  31
ENDBRANCH  29  30
ENDBRANCH   7  29
TORSDOF 7
ENDMDL
MODEL 2
REMARK VINA RESULT:      -7.8      3.336      6.113
REMARK  7 active torsions:
REMARK  status: ('A' for Active; 'I' for Inactive)
REMARK    1  A    between atoms: C_7  and  C_8 
REMARK    2  A    between atoms: C_8  and  C_9 
REMARK    3  A    between atoms: C_9  and  C_10 
REMARK    4  A    between atoms: C_10  and  O_11 
REMARK    5  A    between atoms: C_13  and  C_14 
REMARK    6  A    between atoms: C_21  and  C_22 
REMARK       I    between atoms: C_22  and  N_23 
REMARK    7  A    between atoms: N_23  and  C_24 
ROOT
HETATM    1  C   UNL     1      39.089 -13.941   3.341  1.00  0.00     0.070 C 
HETATM    2  C   UNL     1      40.549 -14.223   3.593  1.00  0.00     0.037 A 
HETATM    3  N   UNL     1      41.033 -13.825   4.835  1.00  0.00    -0.192 N 
HETATM    4  C   UNL     1      42.322 -13.941   5.201  1.00  0.00     0.726 A 
HETATM    5  N   UNL     1      43.209 -14.528   4.343  1.00  0.00    -0.083 N 
HETATM    6  N   UNL     1      44.474 -14.438   4.807  1.00  0.00    -0.140 NA
HETATM    7  C   UNL     1      44.257 -13.894   6.014  1.00  0.00     0.166 A 
HETATM    8  N   UNL     1      42.951 -13.556   6.281  1.00  0.00    -0.046 NA
HETATM    9  C   UNL     1      42.849 -15.072   3.028  1.00  0.00     0.202 A 
HETATM   10  C   UNL     1      41.385 -14.807   2.697  1.00  0.00     0.062 A 
HETATM   11  H   UNL     1      40.380 -13.387   5.479  1.00  0.00     0.184 HD
ENDROOT
BRANCH  10  12
HETATM   12  C   UNL     1      40.861 -15.302   1.394  1.00  0.00     0.256 C 
HETATM   13  N   UNL     1      41.018 -14.407   0.357  1.00  0.00    -0.323 N 
HETATM   14  H   UNL     1      41.482 -13.530   0.545  1.00  0.00     0.169 HD
HETATM   15  O   UNL     1      40.355 -16.416   1.337  1.00  0.00    -0.267 OA
BRANCH  13  16
HETATM   16  C   UNL     1      40.578 -14.568  -0.976  1.00  0.00     0.035 A 
HETATM   17  C   UNL     1      41.133 -15.478  -1.878  1.00  0.00     0.029 A 
HETATM   18  C   UNL     1      40.622 -15.592  -3.175  1.00  0.00     0.002 A 
HETATM   19  C   UNL     1      39.559 -14.791  -3.585  1.00  0.00     0.000 A 
HETATM   20  C   UNL     1      39.001 -13.878  -2.696  1.00  0.00     0.002 A 
HETATM   21  C   UNL     1      39.504 -13.771  -1.396  1.00  0.00     0.029 A 
ENDBRANCH  13  16
ENDBRANCH  10  12
BRANCH   9  22
HETATM   22  C   UNL     1      43.262 -16.539   2.952  1.00  0.00    -0.028 A 
HETATM   23  C   UNL     1      43.947 -17.061   1.841  1.00  0.00     0.011 A 
HETATM   24  C   UNL     1      44.283 -18.417   1.783  1.00  0.00     0.019 A 
HETATM   25  C   UNL     1      43.924 -19.265   2.828  1.00  0.00     0.011 A 
HETATM   26 BR   UNL     1      44.366 -21.101   2.743  1.00  0.00    -0.051 Br
HETATM   27  C   UNL     1      43.232 -18.771   3.931  1.00  0.00     0.019 A 
HETATM   28  C   UNL     1      42.903 -17.416   3.992  1.00  0.00     0.011 A 
ENDBRANCH   9  22
BRANCH   7  29
HETATM   29  C   UNL     1      45.348 -13.681   6.996  1.00  0.00     0.085 C 
BRANCH  29  30
HETATM   30  C   UNL     1      44.915 -12.848   8.201  1.00  0.00     0.034 C 
BRANCH  30  31
HETATM   31  C   UNL     1      46.046 -12.009   8.787  1.00  0.00     0.164 C 
BRANCH  31  32
HETATM   32  O   UNL     1      45.562 -10.705   9.091  1.00  0.00    -0.401 OA
HETATM   33  H   UNL     1      45.110 -10.368   8.300  1.00  0.00     0.209 HD
ENDBRANCH  31  32
ENDBRANCH  30  31
ENDBRANCH  29  30
ENDBRANCH   7  29
TORSDOF 7
ENDMDL
MODEL 3
REMARK VINA RESULT:      -7.7      2.917      4.440
REMARK  7 active torsions:
REMARK  status: ('A' for Active; 'I' for Inactive)
REMARK    1  A    between atoms: C_7  and  C_8 
REMARK    2  A    between atoms: C_8  and  C_9 
REMARK    3  A    between atoms: C_9  and  C_10 
REMARK    4  A    between atoms: C_10  and  O_11 
REMARK    5  A    between atoms: C_13  and  C_14 
REMARK    6  A    between atoms: C_21  and  C_22 
REMARK       I    between atoms: C_22  and  N_23 
REMARK    7  A    between atoms: N_23  and  C_24 
ROOT
HETATM    1  C   UNL     1      39.959 -16.126   1.844  1.00  0.00     0.070 C 
HETATM    2  C   UNL     1      40.688 -15.450   2.979  1.00  0.00     0.037 A 
HETATM    3  N   UNL     1      39.979 -14.456   3.642  1.00  0.00    -0.192 N 
HETATM    4  C   UNL     1      40.498 -13.709   4.634  1.00  0.00     0.726 A 
HETATM    5  N   UNL     1      41.771 -13.962   5.061  1.00  0.00    -0.083 N 
HETATM    6  N   UNL     1      42.180 -13.038   5.958  1.00  0.00    -0.140 NA
HETATM    7  C   UNL     1      41.052 -12.329   6.115  1.00  0.00     0.166 A 
HETATM    8  N   UNL     1      40.006 -12.699   5.303  1.00  0.00    -0.046 NA
HETATM    9  C   UNL     1      42.628 -15.024   4.523  1.00  0.00     0.202 A 
HETATM   10  C   UNL     1      41.959 -15.742   3.357  1.00  0.00     0.062 A 
HETATM   11  H   UNL     1      39.031 -14.261   3.330  1.00  0.00     0.184 HD
ENDROOT
BRANCH  10  12
HETATM   12  C   UNL     1      42.701 -16.854   2.700  1.00  0.00     0.256 C 
HETATM   13  N   UNL     1      42.598 -18.057   3.366  1.00  0.00    -0.323 N 
HETATM   14  H   UNL     1      42.029 -18.100   4.199  1.00  0.00     0.169 HD
HETATM   15  O   UNL     1      43.317 -16.634   1.665  1.00  0.00    -0.267 OA
BRANCH  13  16
HETATM   16  C   UNL     1      43.228 -19.274   3.020  1.00  0.00     0.035 A 
HETATM   17  C   UNL     1      42.908 -20.026   1.888  1.00  0.00     0.029 A 
HETATM   18  C   UNL     1      43.597 -21.210   1.604  1.00  0.00     0.002 A 
HETATM   19  C   UNL     1      44.606 -21.657   2.454  1.00  0.00     0.000 A 
HETATM   20  C   UNL     1      44.931 -20.917   3.587  1.00  0.00     0.002 A 
HETATM   21  C   UNL     1      44.250 -19.729   3.865  1.00  0.00     0.029 A 
ENDBRANCH  13  16
ENDBRANCH  10  12
BRANCH   9  22
HETATM   22  C   UNL     1      43.081 -15.940   5.657  1.00  0.00    -0.028 A 
HETATM   23  C   UNL     1      44.434 -16.263   5.856  1.00  0.00     0.011 A 
HETATM   24  C   UNL     1      44.815 -17.132   6.882  1.00  0.00     0.019 A 
HETATM   25  C   UNL     1      43.847 -17.697   7.708  1.00  0.00     0.011 A 
HETATM   26 BR   UNL     1      44.363 -18.883   9.088  1.00  0.00    -0.051 Br
HETATM   27  C   UNL     1      42.500 -17.402   7.519  1.00  0.00     0.019 A 
HETATM   28  C   UNL     1      42.119 -16.529   6.499  1.00  0.00     0.011 A 
ENDBRANCH   9  22
BRANCH   7  29
HETATM   29  C   UNL     1      40.937 -11.230   7.105  1.00  0.00     0.085 C 
BRANCH  29  30
HETATM   30  C   UNL     1      39.492 -10.808   7.366  1.00  0.00     0.034 C 
BRANCH  30  31
HETATM   31  C   UNL     1      39.170 -10.654   8.849  1.00  0.00     0.164 C 
BRANCH  31  32
HETATM   32  O   UNL     1      39.403 -11.890   9.516  1.00  0.00    -0.401 OA
HETATM   33  H   UNL     1      39.859 -12.479   8.893  1.00  0.00     0.209 HD
ENDBRANCH  31  32
ENDBRANCH  30  31
ENDBRANCH  29  30
ENDBRANCH   7  29
TORSDOF 7
ENDMDL
MODEL 4
REMARK VINA RESULT:      -7.6      3.028      7.443
REMARK  7 active torsions:
REMARK  status: ('A' for Active; 'I' for Inactive)
REMARK    1  A    between atoms: C_7  and  C_8 
REMARK    2  A    between atoms: C_8  and  C_9 
REMARK    3  A    between atoms: C_9  and  C_10 
REMARK    4  A    between atoms: C_10  and  O_11 
REMARK    5  A    between atoms: C_13  and  C_14 
REMARK    6  A    between atoms: C_21  and  C_22 
REMARK       I    between atoms: C_22  and  N_23 
REMARK    7  A    between atoms: N_23  and  C_24 
ROOT
HETATM    1  C   UNL     1      43.302 -16.990   8.151  1.00  0.00     0.070 C 
HETATM    2  C   UNL     1      43.395 -16.981   6.644  1.00  0.00     0.037 A 
HETATM    3  N   UNL     1      43.256 -18.218   6.026  1.00  0.00    -0.192 N 
HETATM    4  C   UNL     1      43.376 -18.401   4.698  1.00  0.00     0.726 A 
HETATM    5  N   UNL     1      43.591 -17.319   3.892  1.00  0.00    -0.083 N 
HETATM    6  N   UNL     1      43.823 -17.695   2.616  1.00  0.00    -0.140 NA
HETATM    7  C   UNL     1      43.606 -19.016   2.705  1.00  0.00     0.166 A 
HETATM    8  N   UNL     1      43.351 -19.488   3.971  1.00  0.00    -0.046 NA
HETATM    9  C   UNL     1      43.685 -15.936   4.375  1.00  0.00     0.202 A 
HETATM   10  C   UNL     1      43.616 -15.870   5.895  1.00  0.00     0.062 A 
HETATM   11  H   UNL     1      43.096 -19.029   6.618  1.00  0.00     0.184 HD
ENDROOT
BRANCH  10  12
HETATM   12  C   UNL     1      43.693 -14.531   6.543  1.00  0.00     0.256 C 
HETATM   13  N   UNL     1      44.855 -14.327   7.257  1.00  0.00    -0.323 N 
HETATM   14  H   UNL     1      45.551 -15.059   7.264  1.00  0.00     0.169 HD
HETATM   15  O   UNL     1      42.766 -13.743   6.401  1.00  0.00    -0.267 OA
BRANCH  13  16
HETATM   16  C   UNL     1      45.193 -13.185   8.017  1.00  0.00     0.035 A 
HETATM   17  C   UNL     1      44.409 -12.676   9.054  1.00  0.00     0.029 A 
HETATM   18  C   UNL     1      44.828 -11.553   9.775  1.00  0.00     0.002 A 
HETATM   19  C   UNL     1      46.028 -10.922   9.458  1.00  0.00     0.000 A 
HETATM   20  C   UNL     1      46.816 -11.418   8.424  1.00  0.00     0.002 A 
HETATM   21  C   UNL     1      46.403 -12.548   7.711  1.00  0.00     0.029 A 
ENDBRANCH  13  16
ENDBRANCH  10  12
BRANCH   9  22
HETATM   22  C   UNL     1      42.653 -15.073   3.654  1.00  0.00    -0.028 A 
HETATM   23  C   UNL     1      41.280 -15.372   3.688  1.00  0.00     0.011 A 
HETATM   24  C   UNL     1      40.362 -14.582   2.990  1.00  0.00     0.019 A 
HETATM   25  C   UNL     1      40.808 -13.497   2.240  1.00  0.00     0.011 A 
HETATM   26 BR   UNL     1      39.567 -12.438   1.285  1.00  0.00    -0.051 Br
HETATM   27  C   UNL     1      42.166 -13.192   2.181  1.00  0.00     0.019 A 
HETATM   28  C   UNL     1      43.082 -13.976   2.884  1.00  0.00     0.011 A 
ENDBRANCH   9  22
BRANCH   7  29
HETATM   29  C   UNL     1      43.630 -19.905   1.517  1.00  0.00     0.085 C 
BRANCH  29  30
HETATM   30  C   UNL     1      43.305 -21.360   1.852  1.00  0.00     0.034 C 
BRANCH  30  31
HETATM   31  C   UNL     1      44.538 -22.182   2.215  1.00  0.00     0.164 C 
BRANCH  31  32
HETATM   32  O   UNL     1      44.556 -22.415   3.620  1.00  0.00    -0.401 OA
HETATM   33  H   UNL     1      45.334 -22.963   3.816  1.00  0.00     0.209 HD
ENDBRANCH  31  32
ENDBRANCH  30  31
ENDBRANCH  29  30
ENDBRANCH   7  29
TORSDOF 7
ENDMDL
MODEL 5
REMARK VINA RESULT:      -7.1      3.697      5.213
REMARK  7 active torsions:
REMARK  status: ('A' for Active; 'I' for Inactive)
REMARK    1  A    between atoms: C_7  and  C_8 
REMARK    2  A    between atoms: C_8  and  C_9 
REMARK    3  A    between atoms: C_9  and  C_10 
REMARK    4  A    between atoms: C_10  and  O_11 
REMARK    5  A    between atoms: C_13  and  C_14 
REMARK    6  A    between atoms: C_21  and  C_22 
REMARK       I    between atoms: C_22  and  N_23 
REMARK    7  A    between atoms: N_23  and  C_24 
ROOT
HETATM    1  C   UNL     1      40.954 -17.565   0.585  1.00  0.00     0.070 C 
HETATM    2  C   UNL     1      41.374 -16.150   0.897  1.00  0.00     0.037 A 
HETATM    3  N   UNL     1      41.138 -15.218  -0.108  1.00  0.00    -0.192 N 
HETATM    4  C   UNL     1      41.508 -13.927  -0.024  1.00  0.00     0.726 A 
HETATM    5  N   UNL     1      42.099 -13.476   1.122  1.00  0.00    -0.083 N 
HETATM    6  N   UNL     1      42.527 -12.202   0.985  1.00  0.00    -0.140 NA
HETATM    7  C   UNL     1      42.046 -11.909  -0.232  1.00  0.00     0.166 A 
HETATM    8  N   UNL     1      41.434 -12.950  -0.890  1.00  0.00    -0.046 NA
HETATM    9  C   UNL     1      42.349 -14.308   2.305  1.00  0.00     0.202 A 
HETATM   10  C   UNL     1      41.963 -15.761   2.056  1.00  0.00     0.062 A 
HETATM   11  H   UNL     1      40.700 -15.546  -0.965  1.00  0.00     0.184 HD
ENDROOT
BRANCH  10  12
HETATM   12  C   UNL     1      42.153 -16.736   3.166  1.00  0.00     0.256 C 
HETATM   13  N   UNL     1      43.344 -17.429   3.096  1.00  0.00    -0.323 N 
HETATM   14  H   UNL     1      43.984 -17.212   2.346  1.00  0.00     0.169 HD
HETATM   15  O   UNL     1      41.284 -16.847   4.021  1.00  0.00    -0.267 OA
BRANCH  13  16
HETATM   16  C   UNL     1      43.782 -18.450   3.969  1.00  0.00     0.035 A 
HETATM   17  C   UNL     1      43.830 -18.323   5.359  1.00  0.00     0.029 A 
HETATM   18  C   UNL     1      44.255 -19.392   6.155  1.00  0.00     0.002 A 
HETATM   19  C   UNL     1      44.646 -20.593   5.568  1.00  0.00     0.000 A 
HETATM   20  C   UNL     1      44.606 -20.729   4.183  1.00  0.00     0.002 A 
HETATM   21  C   UNL     1      44.171 -19.665   3.389  1.00  0.00     0.029 A 
ENDBRANCH  13  16
ENDBRANCH  10  12
BRANCH   9  22
HETATM   22  C   UNL     1      41.686 -13.674   3.525  1.00  0.00    -0.028 A 
HETATM   23  C   UNL     1      40.297 -13.470   3.594  1.00  0.00     0.011 A 
HETATM   24  C   UNL     1      39.721 -12.857   4.710  1.00  0.00     0.019 A 
HETATM   25  C   UNL     1      40.530 -12.428   5.759  1.00  0.00     0.011 A 
HETATM   26 BR   UNL     1      39.752 -11.586   7.263  1.00  0.00    -0.051 Br
HETATM   27  C   UNL     1      41.909 -12.607   5.705  1.00  0.00     0.019 A 
HETATM   28  C   UNL     1      42.484 -13.226   4.594  1.00  0.00     0.011 A 
ENDBRANCH   9  22
BRANCH   7  29
HETATM   29  C   UNL     1      42.157 -10.553  -0.824  1.00  0.00     0.085 C 
BRANCH  29  30
HETATM   30  C   UNL     1      43.194 -10.470  -1.942  1.00  0.00     0.034 C 
BRANCH  30  31
HETATM   31  C   UNL     1      42.589 -10.619  -3.334  1.00  0.00     0.164 C 
BRANCH  31  32
HETATM   32  O   UNL     1      42.585 -11.994  -3.706  1.00  0.00    -0.401 OA
HETATM   33  H   UNL     1      42.973 -12.059  -4.594  1.00  0.00     0.209 HD
ENDBRANCH  31  32
ENDBRANCH  30  31
ENDBRANCH  29  30
ENDBRANCH   7  29
TORSDOF 7
ENDMDL
MODEL 6
REMARK VINA RESULT:      -7.1      1.810      2.512
REMARK  7 active torsions:
REMARK  status: ('A' for Active; 'I' for Inactive)
REMARK    1  A    between atoms: C_7  and  C_8 
REMARK    2  A    between atoms: C_8  and  C_9 
REMARK    3  A    between atoms: C_9  and  C_10 
REMARK    4  A    between atoms: C_10  and  O_11 
REMARK    5  A    between atoms: C_13  and  C_14 
REMARK    6  A    between atoms: C_21  and  C_22 
REMARK       I    between atoms: C_22  and  N_23 
REMARK    7  A    between atoms: N_23  and  C_24 
ROOT
HETATM    1  C   UNL     1      44.009 -14.128   5.511  1.00  0.00     0.070 C 
HETATM    2  C   UNL     1      42.782 -13.793   4.699  1.00  0.00     0.037 A 
HETATM    3  N   UNL     1      42.086 -12.659   5.101  1.00  0.00    -0.192 N 
HETATM    4  C   UNL     1      40.938 -12.252   4.530  1.00  0.00     0.726 A 
HETATM    5  N   UNL     1      40.441 -12.946   3.463  1.00  0.00    -0.083 N 
HETATM    6  N   UNL     1      39.222 -12.490   3.105  1.00  0.00    -0.140 NA
HETATM    7  C   UNL     1      39.103 -11.433   3.924  1.00  0.00     0.166 A 
HETATM    8  N   UNL     1      40.127 -11.270   4.826  1.00  0.00    -0.046 NA
HETATM    9  C   UNL     1      41.091 -14.119   2.866  1.00  0.00     0.202 A 
HETATM   10  C   UNL     1      42.333 -14.526   3.648  1.00  0.00     0.062 A 
HETATM   11  H   UNL     1      42.449 -12.137   5.894  1.00  0.00     0.184 HD
ENDROOT
BRANCH  10  12
HETATM   12  C   UNL     1      43.111 -15.701   3.165  1.00  0.00     0.256 C 
HETATM   13  N   UNL     1      42.679 -16.903   3.685  1.00  0.00    -0.323 N 
HETATM   14  H   UNL     1      41.883 -16.901   4.306  1.00  0.00     0.169 HD
HETATM   15  O   UNL     1      44.033 -15.526   2.377  1.00  0.00    -0.267 OA
BRANCH  13  16
HETATM   16  C   UNL     1      43.246 -18.177   3.457  1.00  0.00     0.035 A 
HETATM   17  C   UNL     1      44.100 -18.825   4.352  1.00  0.00     0.029 A 
HETATM   18  C   UNL     1      44.600 -20.098   4.060  1.00  0.00     0.002 A 
HETATM   19  C   UNL     1      44.260 -20.731   2.867  1.00  0.00     0.000 A 
HETATM   20  C   UNL     1      43.413 -20.093   1.966  1.00  0.00     0.002 A 
HETATM   21  C   UNL     1      42.904 -18.825   2.262  1.00  0.00     0.029 A 
ENDBRANCH  13  16
ENDBRANCH  10  12
BRANCH   9  22
HETATM   22  C   UNL     1      41.330 -13.868   1.379  1.00  0.00    -0.028 A 
HETATM   23  C   UNL     1      41.985 -12.714   0.916  1.00  0.00     0.011 A 
HETATM   24  C   UNL     1      42.160 -12.495  -0.453  1.00  0.00     0.019 A 
HETATM   25  C   UNL     1      41.669 -13.419  -1.371  1.00  0.00     0.011 A 
HETATM   26 BR   UNL     1      41.893 -13.115  -3.224  1.00  0.00    -0.051 Br
HETATM   27  C   UNL     1      41.004 -14.562  -0.935  1.00  0.00     0.019 A 
HETATM   28  C   UNL     1      40.836 -14.785   0.433  1.00  0.00     0.011 A 
ENDBRANCH   9  22
BRANCH   7  29
HETATM   29  C   UNL     1      37.952 -10.500   3.853  1.00  0.00     0.085 C 
BRANCH  29  30
HETATM   30  C   UNL     1      37.792  -9.850   2.479  1.00  0.00     0.034 C 
BRANCH  30  31
HETATM   31  C   UNL     1      36.515 -10.271   1.761  1.00  0.00     0.164 C 
BRANCH  31  32
HETATM   32  O   UNL     1      36.563 -11.668   1.485  1.00  0.00    -0.401 OA
HETATM   33  H   UNL     1      36.108 -12.126   2.211  1.00  0.00     0.209 HD
ENDBRANCH  31  32
ENDBRANCH  30  31
ENDBRANCH  29  30
ENDBRANCH   7  29
TORSDOF 7
ENDMDL
MODEL 7
REMARK VINA RESULT:      -7.0      2.240      7.569
REMARK  7 active torsions:
REMARK  status: ('A' for Active; 'I' for Inactive)
REMARK    1  A    between atoms: C_7  and  C_8 
REMARK    2  A    between atoms: C_8  and  C_9 
REMARK    3  A    between atoms: C_9  and  C_10 
REMARK    4  A    between atoms: C_10  and  O_11 
REMARK    5  A    between atoms: C_13  and  C_14 
REMARK    6  A    between atoms: C_21  and  C_22 
REMARK       I    between atoms: C_22  and  N_23 
REMARK    7  A    between atoms: N_23  and  C_24 
ROOT
HETATM    1  C   UNL     1      43.614 -15.912   7.261  1.00  0.00     0.070 C 
HETATM    2  C   UNL     1      43.486 -16.344   5.821  1.00  0.00     0.037 A 
HETATM    3  N   UNL     1      43.464 -17.717   5.605  1.00  0.00    -0.192 N 
HETATM    4  C   UNL     1      43.420 -18.275   4.381  1.00  0.00     0.726 A 
HETATM    5  N   UNL     1      43.337 -17.467   3.283  1.00  0.00    -0.083 N 
HETATM    6  N   UNL     1      43.441 -18.180   2.140  1.00  0.00    -0.140 NA
HETATM    7  C   UNL     1      43.459 -19.429   2.629  1.00  0.00     0.166 A 
HETATM    8  N   UNL     1      43.469 -19.525   4.000  1.00  0.00    -0.046 NA
HETATM    9  C   UNL     1      43.271 -16.002   3.338  1.00  0.00     0.202 A 
HETATM   10  C   UNL     1      43.412 -15.492   4.767  1.00  0.00     0.062 A 
HETATM   11  H   UNL     1      43.526 -18.326   6.417  1.00  0.00     0.184 HD
ENDROOT
BRANCH  10  12
HETATM   12  C   UNL     1      43.361 -14.020   4.993  1.00  0.00     0.256 C 
HETATM   13  N   UNL     1      42.085 -13.533   5.183  1.00  0.00    -0.323 N 
HETATM   14  H   UNL     1      41.315 -14.186   5.183  1.00  0.00     0.169 HD
HETATM   15  O   UNL     1      44.404 -13.379   4.998  1.00  0.00    -0.267 OA
BRANCH  13  16
HETATM   16  C   UNL     1      41.713 -12.183   5.369  1.00  0.00     0.035 A 
HETATM   17  C   UNL     1      41.326 -11.329   4.334  1.00  0.00     0.029 A 
HETATM   18  C   UNL     1      40.949 -10.009   4.606  1.00  0.00     0.002 A 
HETATM   19  C   UNL     1      40.965  -9.529   5.913  1.00  0.00     0.000 A 
HETATM   20  C   UNL     1      41.352 -10.370   6.952  1.00  0.00     0.002 A 
HETATM   21  C   UNL     1      41.718 -11.692   6.681  1.00  0.00     0.029 A 
ENDBRANCH  13  16
ENDBRANCH  10  12
BRANCH   9  22
HETATM   22  C   UNL     1      42.019 -15.519   2.611  1.00  0.00    -0.028 A 
HETATM   23  C   UNL     1      42.067 -14.500   1.644  1.00  0.00     0.011 A 
HETATM   24  C   UNL     1      40.899 -14.055   1.019  1.00  0.00     0.019 A 
HETATM   25  C   UNL     1      39.671 -14.612   1.366  1.00  0.00     0.011 A 
HETATM   26 BR   UNL     1      38.090 -13.999   0.531  1.00  0.00    -0.051 Br
HETATM   27  C   UNL     1      39.599 -15.612   2.332  1.00  0.00     0.019 A 
HETATM   28  C   UNL     1      40.766 -16.063   2.951  1.00  0.00     0.011 A 
ENDBRANCH   9  22
BRANCH   7  29
HETATM   29  C   UNL     1      43.456 -20.625   1.750  1.00  0.00     0.085 C 
BRANCH  29  30
HETATM   30  C   UNL     1      44.532 -21.643   2.122  1.00  0.00     0.034 C 
BRANCH  30  31
HETATM   31  C   UNL     1      44.227 -22.392   3.416  1.00  0.00     0.164 C 
BRANCH  31  32
HETATM   32  O   UNL     1      45.164 -23.451   3.584  1.00  0.00    -0.401 OA
HETATM   33  H   UNL     1      44.924 -23.930   4.394  1.00  0.00     0.209 HD
ENDBRANCH  31  32
ENDBRANCH  30  31
ENDBRANCH  29  30
ENDBRANCH   7  29
TORSDOF 7
ENDMDL
MODEL 8
REMARK VINA RESULT:      -7.0      3.216      7.539
REMARK  7 active torsions:
REMARK  status: ('A' for Active; 'I' for Inactive)
REMARK    1  A    between atoms: C_7  and  C_8 
REMARK    2  A    between atoms: C_8  and  C_9 
REMARK    3  A    between atoms: C_9  and  C_10 
REMARK    4  A    between atoms: C_10  and  O_11 
REMARK    5  A    between atoms: C_13  and  C_14 
REMARK    6  A    between atoms: C_21  and  C_22 
REMARK       I    between atoms: C_22  and  N_23 
REMARK    7  A    between atoms: N_23  and  C_24 
ROOT
HETATM    1  C   UNL     1      41.330 -16.064  -0.438  1.00  0.00     0.070 C 
HETATM    2  C   UNL     1      41.555 -16.268   1.040  1.00  0.00     0.037 A 
HETATM    3  N   UNL     1      42.709 -16.963   1.382  1.00  0.00    -0.192 N 
HETATM    4  C   UNL     1      43.031 -17.289   2.648  1.00  0.00     0.726 A 
HETATM    5  N   UNL     1      42.222 -16.877   3.669  1.00  0.00    -0.083 N 
HETATM    6  N   UNL     1      42.615 -17.404   4.849  1.00  0.00    -0.140 NA
HETATM    7  C   UNL     1      43.745 -18.025   4.479  1.00  0.00     0.166 A 
HETATM    8  N   UNL     1      44.021 -17.993   3.132  1.00  0.00    -0.046 NA
HETATM    9  C   UNL     1      41.010 -16.071   3.488  1.00  0.00     0.202 A 
HETATM   10  C   UNL     1      40.710 -15.838   2.012  1.00  0.00     0.062 A 
HETATM   11  H   UNL     1      43.316 -17.274   0.628  1.00  0.00     0.184 HD
ENDROOT
BRANCH  10  12
HETATM   12  C   UNL     1      39.510 -15.030   1.660  1.00  0.00     0.256 C 
HETATM   13  N   UNL     1      39.810 -13.765   1.198  1.00  0.00    -0.323 N 
HETATM   14  H   UNL     1      40.781 -13.502   1.110  1.00  0.00     0.169 HD
HETATM   15  O   UNL     1      38.396 -15.521   1.795  1.00  0.00    -0.267 OA
BRANCH  13  16
HETATM   16  C   UNL     1      38.890 -12.755   0.837  1.00  0.00     0.035 A 
HETATM   17  C   UNL     1      38.589 -12.406  -0.481  1.00  0.00     0.029 A 
HETATM   18  C   UNL     1      37.647 -11.409  -0.754  1.00  0.00     0.002 A 
HETATM   19  C   UNL     1      37.005 -10.745   0.288  1.00  0.00     0.000 A 
HETATM   20  C   UNL     1      37.300 -11.081   1.606  1.00  0.00     0.002 A 
HETATM   21  C   UNL     1      38.233 -12.086   1.878  1.00  0.00     0.029 A 
ENDBRANCH  13  16
ENDBRANCH  10  12
BRANCH   9  22
HETATM   22  C   UNL     1      41.114 -14.797   4.323  1.00  0.00    -0.028 A 
HETATM   23  C   UNL     1      42.200 -13.914   4.198  1.00  0.00     0.011 A 
HETATM   24  C   UNL     1      42.286 -12.773   5.001  1.00  0.00     0.019 A 
HETATM   25  C   UNL     1      41.297 -12.513   5.945  1.00  0.00     0.011 A 
HETATM   26 BR   UNL     1      41.420 -10.976   7.040  1.00  0.00    -0.051 Br
HETATM   27  C   UNL     1      40.220 -13.382   6.095  1.00  0.00     0.019 A 
HETATM   28  C   UNL     1      40.130 -14.518   5.289  1.00  0.00     0.011 A 
ENDBRANCH   9  22
BRANCH   7  29
HETATM   29  C   UNL     1      44.642 -18.689   5.456  1.00  0.00     0.085 C 
BRANCH  29  30
HETATM   30  C   UNL     1      44.868 -17.861   6.720  1.00  0.00     0.034 C 
BRANCH  30  31
HETATM   31  C   UNL     1      44.122 -18.404   7.934  1.00  0.00     0.164 C 
BRANCH  31  32
HETATM   32  O   UNL     1      42.842 -17.787   8.021  1.00  0.00    -0.401 OA
HETATM   33  H   UNL     1      42.357 -18.217   8.745  1.00  0.00     0.209 HD
ENDBRANCH  31  32
ENDBRANCH  30  31
ENDBRANCH  29  30
ENDBRANCH   7  29
TORSDOF 7
ENDMDL
MODEL 9
REMARK VINA RESULT:      -6.8      3.348      8.509
REMARK  7 active torsions:
REMARK  status: ('A' for Active; 'I' for Inactive)
REMARK    1  A    between atoms: C_7  and  C_8 
REMARK    2  A    between atoms: C_8  and  C_9 
REMARK    3  A    between atoms: C_9  and  C_10 
REMARK    4  A    between atoms: C_10  and  O_11 
REMARK    5  A    between atoms: C_13  and  C_14 
REMARK    6  A    between atoms: C_21  and  C_22 
REMARK       I    between atoms: C_22  and  N_23 
REMARK    7  A    between atoms: N_23  and  C_24 
ROOT
HETATM    1  C   UNL     1      40.455 -14.447  -1.583  1.00  0.00     0.070 C 
HETATM    2  C   UNL     1      40.775 -15.092  -0.256  1.00  0.00     0.037 A 
HETATM    3  N   UNL     1      41.869 -15.950  -0.253  1.00  0.00    -0.192 N 
HETATM    4  C   UNL     1      42.255 -16.656   0.825  1.00  0.00     0.726 A 
HETATM    5  N   UNL     1      41.582 -16.495   2.003  1.00  0.00    -0.083 N 
HETATM    6  N   UNL     1      42.007 -17.374   2.936  1.00  0.00    -0.140 NA
HETATM    7  C   UNL     1      43.029 -17.951   2.284  1.00  0.00     0.166 A 
HETATM    8  N   UNL     1      43.197 -17.550   0.980  1.00  0.00    -0.046 NA
HETATM    9  C   UNL     1      40.455 -15.574   2.191  1.00  0.00     0.202 A 
HETATM   10  C   UNL     1      40.064 -14.897   0.884  1.00  0.00     0.062 A 
HETATM   11  H   UNL     1      42.375 -16.076  -1.126  1.00  0.00     0.184 HD
ENDROOT
BRANCH  10  12
HETATM   12  C   UNL     1      38.936 -13.925   0.908  1.00  0.00     0.256 C 
HETATM   13  N   UNL     1      39.340 -12.610   1.005  1.00  0.00    -0.323 N 
HETATM   14  H   UNL     1      40.329 -12.410   1.024  1.00  0.00     0.169 HD
HETATM   15  O   UNL     1      37.786 -14.341   0.840  1.00  0.00    -0.267 OA
BRANCH  13  16
HETATM   16  C   UNL     1      38.507 -11.473   1.101  1.00  0.00     0.035 A 
HETATM   17  C   UNL     1      37.854 -11.078   2.271  1.00  0.00     0.029 A 
HETATM   18  C   UNL     1      37.065  -9.923   2.288  1.00  0.00     0.002 A 
HETATM   19  C   UNL     1      36.912  -9.159   1.134  1.00  0.00     0.000 A 
HETATM   20  C   UNL     1      37.554  -9.545  -0.039  1.00  0.00     0.002 A 
HETATM   21  C   UNL     1      38.352 -10.693  -0.053  1.00  0.00     0.029 A 
ENDBRANCH  13  16
ENDBRANCH  10  12
BRANCH   9  22
HETATM   22  C   UNL     1      40.767 -14.613   3.336  1.00  0.00    -0.028 A 
HETATM   23  C   UNL     1      39.946 -14.522   4.474  1.00  0.00     0.011 A 
HETATM   24  C   UNL     1      40.238 -13.608   5.490  1.00  0.00     0.019 A 
HETATM   25  C   UNL     1      41.342 -12.768   5.373  1.00  0.00     0.011 A 
HETATM   26 BR   UNL     1      41.728 -11.523   6.742  1.00  0.00    -0.051 Br
HETATM   27  C   UNL     1      42.159 -12.832   4.247  1.00  0.00     0.019 A 
HETATM   28  C   UNL     1      41.873 -13.749   3.235  1.00  0.00     0.011 A 
ENDBRANCH   9  22
BRANCH   7  29
HETATM   29  C   UNL     1      43.923 -18.943   2.930  1.00  0.00     0.085 C 
BRANCH  29  30
HETATM   30  C   UNL     1      43.908 -20.303   2.235  1.00  0.00     0.034 C 
BRANCH  30  31
HETATM   31  C   UNL     1      44.601 -21.397   3.042  1.00  0.00     0.164 C 
BRANCH  31  32
HETATM   32  O   UNL     1      44.559 -22.622   2.317  1.00  0.00    -0.401 OA
HETATM   33  H   UNL     1      45.061 -23.280   2.824  1.00  0.00     0.209 HD
ENDBRANCH  31  32
ENDBRANCH  30  31
ENDBRANCH  29  30
ENDBRANCH   7  29
TORSDOF 7
ENDMDL
MODEL 10
REMARK VINA RESULT:      -6.8      3.935      5.847
REMARK  7 active torsions:
REMARK  status: ('A' for Active; 'I' for Inactive)
REMARK    1  A    between atoms: C_7  and  C_8 
REMARK    2  A    between atoms: C_8  and  C_9 
REMARK    3  A    between atoms: C_9  and  C_10 
REMARK    4  A    between atoms: C_10  and  O_11 
REMARK    5  A    between atoms: C_13  and  C_14 
REMARK    6  A    between atoms: C_21  and  C_22 
REMARK       I    between atoms: C_22  and  N_23 
REMARK    7  A    between atoms: N_23  and  C_24 
ROOT
HETATM    1  C   UNL     1      41.234 -17.332   0.959  1.00  0.00     0.070 C 
HETATM    2  C   UNL     1      41.510 -15.855   0.814  1.00  0.00     0.037 A 
HETATM    3  N   UNL     1      41.556 -15.377  -0.490  1.00  0.00    -0.192 N 
HETATM    4  C   UNL     1      41.854 -14.102  -0.803  1.00  0.00     0.726 A 
HETATM    5  N   UNL     1      42.073 -13.203   0.201  1.00  0.00    -0.083 N 
HETATM    6  N   UNL     1      42.493 -12.015  -0.286  1.00  0.00    -0.140 NA
HETATM    7  C   UNL     1      42.381 -12.236  -1.605  1.00  0.00     0.166 A 
HETATM    8  N   UNL     1      42.012 -13.512  -1.959  1.00  0.00    -0.046 NA
HETATM    9  C   UNL     1      41.988 -13.524   1.631  1.00  0.00     0.202 A 
HETATM   10  C   UNL     1      41.726 -15.009   1.853  1.00  0.00     0.062 A 
HETATM   11  H   UNL     1      41.394 -16.039  -1.244  1.00  0.00     0.184 HD
ENDROOT
BRANCH  10  12
HETATM   12  C   UNL     1      41.608 -15.497   3.256  1.00  0.00     0.256 C 
HETATM   13  N   UNL     1      42.804 -15.914   3.800  1.00  0.00    -0.323 N 
HETATM   14  H   UNL     1      43.641 -15.836   3.240  1.00  0.00     0.169 HD
HETATM   15  O   UNL     1      40.511 -15.490   3.801  1.00  0.00    -0.267 OA
BRANCH  13  16
HETATM   16  C   UNL     1      43.003 -16.473   5.083  1.00  0.00     0.035 A 
HETATM   17  C   UNL     1      43.387 -15.736   6.205  1.00  0.00     0.029 A 
HETATM   18  C   UNL     1      43.539 -16.363   7.446  1.00  0.00     0.002 A 
HETATM   19  C   UNL     1      43.318 -17.731   7.575  1.00  0.00     0.000 A 
HETATM   20  C   UNL     1      42.939 -18.476   6.462  1.00  0.00     0.002 A 
HETATM   21  C   UNL     1      42.776 -17.848   5.224  1.00  0.00     0.029 A 
ENDBRANCH  13  16
ENDBRANCH  10  12
BRANCH   9  22
HETATM   22  C   UNL     1      40.983 -12.594   2.305  1.00  0.00    -0.028 A 
HETATM   23  C   UNL     1      39.649 -12.502   1.871  1.00  0.00     0.011 A 
HETATM   24  C   UNL     1      38.760 -11.616   2.485  1.00  0.00     0.019 A 
HETATM   25  C   UNL     1      39.199 -10.804   3.527  1.00  0.00     0.011 A 
HETATM   26 BR   UNL     1      38.000  -9.596   4.349  1.00  0.00    -0.051 Br
HETATM   27  C   UNL     1      40.520 -10.869   3.963  1.00  0.00     0.019 A 
HETATM   28  C   UNL     1      41.407 -11.758   3.355  1.00  0.00     0.011 A 
ENDBRANCH   9  22
BRANCH   7  29
HETATM   29  C   UNL     1      42.627 -11.173  -2.610  1.00  0.00     0.085 C 
BRANCH  29  30
HETATM   30  C   UNL     1      42.174 -11.562  -4.016  1.00  0.00     0.034 C 
BRANCH  30  31
HETATM   31  C   UNL     1      40.700 -11.266  -4.275  1.00  0.00     0.164 C 
BRANCH  31  32
HETATM   32  O   UNL     1      39.946 -12.468  -4.160  1.00  0.00    -0.401 OA
HETATM   33  H   UNL     1      39.731 -12.767  -5.059  1.00  0.00     0.209 HD
ENDBRANCH  31  32
ENDBRANCH  30  31
ENDBRANCH  29  30
ENDBRANCH   7  29
TORSDOF 7
ENDMDL
