MODEL 1
REMARK VINA RESULT:      -8.3      0.000      0.000
REMARK  5 active torsions:
REMARK  status: ('A' for Active; 'I' for Inactive)
REMARK    1  A    between atoms: C_2  and  N_4 
REMARK    2  A    between atoms: N_4  and  C_5 
REMARK       I    between atoms: N_4  and  C_12 
REMARK    3  A    between atoms: C_5  and  C_6 
REMARK       I    between atoms: C_12  and  N_14 
REMARK    4  A    between atoms: N_14  and  C_15 
REMARK    5  A    between atoms: C_18  and  C_21 
ROOT
HETATM    1  N   UNL     1      43.317 -18.550   5.822  1.00  0.00    -0.326 N 
HETATM    2  C   UNL     1      42.205 -17.745   5.537  1.00  0.00     0.323 C 
HETATM    3  O   UNL     1      41.398 -17.426   6.405  1.00  0.00    -0.247 OA
HETATM    4  N   UNL     1      42.098 -17.370   4.214  1.00  0.00    -0.309 N 
HETATM    5  H   UNL     1      42.550 -17.979   3.549  1.00  0.00     0.170 HD
ENDROOT
BRANCH   4   6
HETATM    6  C   UNL     1      41.218 -16.417   3.665  1.00  0.00     0.036 A 
HETATM    7  C   UNL     1      40.972 -15.169   4.234  1.00  0.00     0.030 A 
HETATM    8  C   UNL     1      40.095 -14.266   3.619  1.00  0.00     0.014 A 
HETATM    9  C   UNL     1      39.453 -14.590   2.419  1.00  0.00    -0.023 A 
HETATM   10  C   UNL     1      39.714 -15.838   1.842  1.00  0.00     0.014 A 
HETATM   11  C   UNL     1      40.590 -16.741   2.458  1.00  0.00     0.030 A 
BRANCH   9  12
HETATM   12  C   UNL     1      38.542 -13.660   1.774  1.00  0.00     0.010 A 
HETATM   13  C   UNL     1      38.380 -12.262   1.928  1.00  0.00     0.152 A 
HETATM   14  N   UNL     1      37.433 -11.757   1.132  1.00  0.00    -0.187 NA
HETATM   15  N   UNL     1      36.985 -12.830   0.461  1.00  0.00    -0.289 N 
HETATM   16  H   UNL     1      36.248 -12.697  -0.224  1.00  0.00     0.188 HD
HETATM   17  C   UNL     1      37.616 -13.990   0.806  1.00  0.00     0.123 A 
ENDBRANCH   9  12
ENDBRANCH   4   6
BRANCH   1  18
HETATM   18  C   UNL     1      43.500 -19.100   7.181  1.00  0.00     0.081 C 
HETATM   19  C   UNL     1      43.553 -20.630   7.188  1.00  0.00     0.032 C 
HETATM   20  C   UNL     1      44.697 -18.495   7.919  1.00  0.00     0.032 C 
ENDBRANCH   1  18
BRANCH   1  21
HETATM   21  C   UNL     1      44.450 -18.697   4.901  1.00  0.00     0.166 C 
BRANCH  21  22
HETATM   22  C   UNL     1      44.339 -19.847   3.921  1.00  0.00    -0.040 A 
HETATM   23  C   UNL     1      43.734 -19.608   2.675  1.00  0.00     0.009 A 
HETATM   24  C   UNL     1      43.585 -20.635   1.740  1.00  0.00     0.001 A 
HETATM   25  C   UNL     1      44.037 -21.918   2.037  1.00  0.00     0.000 A 
HETATM   26  C   UNL     1      44.642 -22.172   3.265  1.00  0.00     0.001 A 
HETATM   27  C   UNL     1      44.792 -21.146   4.198  1.00  0.00     0.009 A 
ENDBRANCH  21  22
ENDBRANCH   1  21
TORSDOF 5
ENDMDL
MODEL 2
REMARK VINA RESULT:      -8.3      3.113      8.421
REMARK  5 active torsions:
REMARK  status: ('A' for Active; 'I' for Inactive)
REMARK    1  A    between atoms: C_2  and  N_4 
REMARK    2  A    between atoms: N_4  and  C_5 
REMARK       I    between atoms: N_4  and  C_12 
REMARK    3  A    between atoms: C_5  and  C_6 
REMARK       I    between atoms: C_12  and  N_14 
REMARK    4  A    between atoms: N_14  and  C_15 
REMARK    5  A    between atoms: C_18  and  C_21 
ROOT
HETATM    1  N   UNL     1      40.894 -13.956   1.547  1.00  0.00    -0.326 N 
HETATM    2  C   UNL     1      41.166 -15.140   2.247  1.00  0.00     0.323 C 
HETATM    3  O   UNL     1      40.347 -15.644   3.009  1.00  0.00    -0.247 OA
HETATM    4  N   UNL     1      42.423 -15.661   2.017  1.00  0.00    -0.309 N 
HETATM    5  H   UNL     1      43.123 -14.999   1.717  1.00  0.00     0.170 HD
ENDROOT
BRANCH   4   6
HETATM    6  C   UNL     1      42.910 -16.923   2.412  1.00  0.00     0.036 A 
HETATM    7  C   UNL     1      43.457 -17.185   3.667  1.00  0.00     0.030 A 
HETATM    8  C   UNL     1      43.905 -18.471   3.994  1.00  0.00     0.014 A 
HETATM    9  C   UNL     1      43.809 -19.522   3.075  1.00  0.00    -0.023 A 
HETATM   10  C   UNL     1      43.244 -19.259   1.821  1.00  0.00     0.014 A 
HETATM   11  C   UNL     1      42.797 -17.972   1.495  1.00  0.00     0.030 A 
BRANCH   9  12
HETATM   12  C   UNL     1      44.270 -20.860   3.405  1.00  0.00     0.010 A 
HETATM   13  C   UNL     1      44.346 -22.036   2.621  1.00  0.00     0.152 A 
HETATM   14  N   UNL     1      44.851 -23.076   3.291  1.00  0.00    -0.187 NA
HETATM   15  N   UNL     1      45.104 -22.570   4.508  1.00  0.00    -0.289 N 
HETATM   16  H   UNL     1      45.506 -23.182   5.210  1.00  0.00     0.188 HD
HETATM   17  C   UNL     1      44.777 -21.250   4.627  1.00  0.00     0.123 A 
ENDBRANCH   9  12
ENDBRANCH   4   6
BRANCH   1  18
HETATM   18  C   UNL     1      39.621 -13.241   1.775  1.00  0.00     0.081 C 
HETATM   19  C   UNL     1      39.750 -11.733   1.545  1.00  0.00     0.032 C 
HETATM   20  C   UNL     1      38.451 -13.831   0.983  1.00  0.00     0.032 C 
ENDBRANCH   1  18
BRANCH   1  21
HETATM   21  C   UNL     1      41.709 -13.495   0.417  1.00  0.00     0.166 C 
BRANCH  21  22
HETATM   22  C   UNL     1      41.246 -13.966  -0.947  1.00  0.00    -0.040 A 
HETATM   23  C   UNL     1      40.847 -13.002  -1.888  1.00  0.00     0.009 A 
HETATM   24  C   UNL     1      40.391 -13.380  -3.153  1.00  0.00     0.001 A 
HETATM   25  C   UNL     1      40.325 -14.727  -3.496  1.00  0.00     0.000 A 
HETATM   26  C   UNL     1      40.719 -15.696  -2.578  1.00  0.00     0.001 A 
HETATM   27  C   UNL     1      41.177 -15.319  -1.314  1.00  0.00     0.009 A 
ENDBRANCH  21  22
ENDBRANCH   1  21
TORSDOF 5
ENDMDL
MODEL 3
REMARK VINA RESULT:      -8.1      2.314      2.911
REMARK  5 active torsions:
REMARK  status: ('A' for Active; 'I' for Inactive)
REMARK    1  A    between atoms: C_2  and  N_4 
REMARK    2  A    between atoms: N_4  and  C_5 
REMARK       I    between atoms: N_4  and  C_12 
REMARK    3  A    between atoms: C_5  and  C_6 
REMARK       I    between atoms: C_12  and  N_14 
REMARK    4  A    between atoms: N_14  and  C_15 
REMARK    5  A    between atoms: C_18  and  C_21 
ROOT
HETATM    1  N   UNL     1      41.898 -16.685   5.300  1.00  0.00    -0.326 N 
HETATM    2  C   UNL     1      41.516 -15.743   4.334  1.00  0.00     0.323 C 
HETATM    3  O   UNL     1      41.891 -14.575   4.385  1.00  0.00    -0.247 OA
HETATM    4  N   UNL     1      40.683 -16.239   3.353  1.00  0.00    -0.309 N 
HETATM    5  H   UNL     1      40.139 -17.048   3.610  1.00  0.00     0.170 HD
ENDROOT
BRANCH   4   6
HETATM    6  C   UNL     1      40.296 -15.601   2.158  1.00  0.00     0.036 A 
HETATM    7  C   UNL     1      39.120 -14.868   2.016  1.00  0.00     0.030 A 
HETATM    8  C   UNL     1      38.811 -14.247   0.799  1.00  0.00     0.014 A 
HETATM    9  C   UNL     1      39.675 -14.341  -0.298  1.00  0.00    -0.023 A 
HETATM   10  C   UNL     1      40.864 -15.064  -0.147  1.00  0.00     0.014 A 
HETATM   11  C   UNL     1      41.172 -15.686   1.070  1.00  0.00     0.030 A 
BRANCH   9  12
HETATM   12  C   UNL     1      39.363 -13.699  -1.564  1.00  0.00     0.010 A 
HETATM   13  C   UNL     1      39.248 -12.331  -1.908  1.00  0.00     0.152 A 
HETATM   14  N   UNL     1      38.960 -12.141  -3.198  1.00  0.00    -0.187 NA
HETATM   15  N   UNL     1      38.890 -13.389  -3.689  1.00  0.00    -0.289 N 
HETATM   16  H   UNL     1      38.683 -13.508  -4.675  1.00  0.00     0.188 HD
HETATM   17  C   UNL     1      39.125 -14.355  -2.754  1.00  0.00     0.123 A 
ENDBRANCH   9  12
ENDBRANCH   4   6
BRANCH   1  18
HETATM   18  C   UNL     1      42.712 -16.264   6.459  1.00  0.00     0.081 C 
HETATM   19  C   UNL     1      42.621 -17.251   7.625  1.00  0.00     0.032 C 
HETATM   20  C   UNL     1      44.167 -15.961   6.093  1.00  0.00     0.032 C 
ENDBRANCH   1  18
BRANCH   1  21
HETATM   21  C   UNL     1      41.728 -18.130   5.112  1.00  0.00     0.166 C 
BRANCH  21  22
HETATM   22  C   UNL     1      42.862 -18.824   4.387  1.00  0.00    -0.040 A 
HETATM   23  C   UNL     1      42.885 -18.779   2.983  1.00  0.00     0.009 A 
HETATM   24  C   UNL     1      43.895 -19.420   2.260  1.00  0.00     0.001 A 
HETATM   25  C   UNL     1      44.897 -20.116   2.931  1.00  0.00     0.000 A 
HETATM   26  C   UNL     1      44.892 -20.168   4.321  1.00  0.00     0.001 A 
HETATM   27  C   UNL     1      43.884 -19.527   5.044  1.00  0.00     0.009 A 
ENDBRANCH  21  22
ENDBRANCH   1  21
TORSDOF 5
ENDMDL
MODEL 4
REMARK VINA RESULT:      -7.9      3.471      4.242
REMARK  5 active torsions:
REMARK  status: ('A' for Active; 'I' for Inactive)
REMARK    1  A    between atoms: C_2  and  N_4 
REMARK    2  A    between atoms: N_4  and  C_5 
REMARK       I    between atoms: N_4  and  C_12 
REMARK    3  A    between atoms: C_5  and  C_6 
REMARK       I    between atoms: C_12  and  N_14 
REMARK    4  A    between atoms: N_14  and  C_15 
REMARK    5  A    between atoms: C_18  and  C_21 
ROOT
HETATM    1  N   UNL     1      42.224 -16.380   3.523  1.00  0.00    -0.326 N 
HETATM    2  C   UNL     1      41.488 -15.684   2.554  1.00  0.00     0.323 C 
HETATM    3  O   UNL     1      40.437 -15.112   2.827  1.00  0.00    -0.247 OA
HETATM    4  N   UNL     1      42.037 -15.718   1.289  1.00  0.00    -0.309 N 
HETATM    5  H   UNL     1      42.641 -16.503   1.095  1.00  0.00     0.170 HD
ENDROOT
BRANCH   4   6
HETATM    6  C   UNL     1      41.645 -14.962   0.167  1.00  0.00     0.036 A 
HETATM    7  C   UNL     1      41.074 -15.514  -0.979  1.00  0.00     0.030 A 
HETATM    8  C   UNL     1      40.693 -14.694  -2.050  1.00  0.00     0.014 A 
HETATM    9  C   UNL     1      40.870 -13.307  -1.993  1.00  0.00    -0.023 A 
HETATM   10  C   UNL     1      41.428 -12.755  -0.835  1.00  0.00     0.014 A 
HETATM   11  C   UNL     1      41.810 -13.575   0.236  1.00  0.00     0.030 A 
BRANCH   9  12
HETATM   12  C   UNL     1      40.477 -12.450  -3.099  1.00  0.00     0.010 A 
HETATM   13  C   UNL     1      41.251 -11.650  -3.974  1.00  0.00     0.152 A 
HETATM   14  N   UNL     1      40.512 -11.012  -4.886  1.00  0.00    -0.187 NA
HETATM   15  N   UNL     1      39.259 -11.402  -4.601  1.00  0.00    -0.289 N 
HETATM   16  H   UNL     1      38.502 -11.045  -5.173  1.00  0.00     0.188 HD
HETATM   17  C   UNL     1      39.185 -12.262  -3.543  1.00  0.00     0.123 A 
ENDBRANCH   9  12
ENDBRANCH   4   6
BRANCH   1  18
HETATM   18  C   UNL     1      41.700 -16.504   4.899  1.00  0.00     0.081 C 
HETATM   19  C   UNL     1      41.051 -17.866   5.156  1.00  0.00     0.032 C 
HETATM   20  C   UNL     1      42.741 -16.168   5.971  1.00  0.00     0.032 C 
ENDBRANCH   1  18
BRANCH   1  21
HETATM   21  C   UNL     1      43.612 -16.809   3.312  1.00  0.00     0.166 C 
BRANCH  21  22
HETATM   22  C   UNL     1      43.805 -18.299   3.120  1.00  0.00    -0.040 A 
HETATM   23  C   UNL     1      44.447 -19.027   4.137  1.00  0.00     0.009 A 
HETATM   24  C   UNL     1      44.671 -20.399   4.005  1.00  0.00     0.001 A 
HETATM   25  C   UNL     1      44.259 -21.065   2.854  1.00  0.00     0.000 A 
HETATM   26  C   UNL     1      43.619 -20.361   1.838  1.00  0.00     0.001 A 
HETATM   27  C   UNL     1      43.393 -18.989   1.970  1.00  0.00     0.009 A 
ENDBRANCH  21  22
ENDBRANCH   1  21
TORSDOF 5
ENDMDL
MODEL 5
REMARK VINA RESULT:      -7.8      3.255      8.356
REMARK  5 active torsions:
REMARK  status: ('A' for Active; 'I' for Inactive)
REMARK    1  A    between atoms: C_2  and  N_4 
REMARK    2  A    between atoms: N_4  and  C_5 
REMARK       I    between atoms: N_4  and  C_12 
REMARK    3  A    between atoms: C_5  and  C_6 
REMARK       I    between atoms: C_12  and  N_14 
REMARK    4  A    between atoms: N_14  and  C_15 
REMARK    5  A    between atoms: C_18  and  C_21 
ROOT
HETATM    1  N   UNL     1      41.195 -13.117   0.646  1.00  0.00    -0.326 N 
HETATM    2  C   UNL     1      41.968 -13.650   1.686  1.00  0.00     0.323 C 
HETATM    3  O   UNL     1      42.900 -13.027   2.186  1.00  0.00    -0.247 OA
HETATM    4  N   UNL     1      41.601 -14.922   2.073  1.00  0.00    -0.309 N 
HETATM    5  H   UNL     1      41.123 -15.471   1.375  1.00  0.00     0.170 HD
ENDROOT
BRANCH   4   6
HETATM    6  C   UNL     1      42.049 -15.635   3.204  1.00  0.00     0.036 A 
HETATM    7  C   UNL     1      43.169 -16.463   3.204  1.00  0.00     0.030 A 
HETATM    8  C   UNL     1      43.564 -17.126   4.373  1.00  0.00     0.014 A 
HETATM    9  C   UNL     1      42.850 -16.968   5.567  1.00  0.00    -0.023 A 
HETATM   10  C   UNL     1      41.735 -16.122   5.567  1.00  0.00     0.014 A 
HETATM   11  C   UNL     1      41.340 -15.460   4.397  1.00  0.00     0.030 A 
BRANCH   9  12
HETATM   12  C   UNL     1      43.253 -17.651   6.784  1.00  0.00     0.010 A 
HETATM   13  C   UNL     1      43.670 -18.986   7.005  1.00  0.00     0.152 A 
HETATM   14  N   UNL     1      43.977 -19.230   8.283  1.00  0.00    -0.187 NA
HETATM   15  N   UNL     1      43.761 -18.051   8.886  1.00  0.00    -0.289 N 
HETATM   16  H   UNL     1      43.933 -17.982   9.884  1.00  0.00     0.188 HD
HETATM   17  C   UNL     1      43.329 -17.075   8.035  1.00  0.00     0.123 A 
ENDBRANCH   9  12
ENDBRANCH   4   6
BRANCH   1  18
HETATM   18  C   UNL     1      41.542 -11.800   0.071  1.00  0.00     0.081 C 
HETATM   19  C   UNL     1      42.445 -11.921  -1.159  1.00  0.00     0.032 C 
HETATM   20  C   UNL     1      40.316 -10.929  -0.218  1.00  0.00     0.032 C 
ENDBRANCH   1  18
BRANCH   1  21
HETATM   21  C   UNL     1      39.907 -13.688   0.238  1.00  0.00     0.166 C 
BRANCH  21  22
HETATM   22  C   UNL     1      39.891 -14.329  -1.135  1.00  0.00    -0.040 A 
HETATM   23  C   UNL     1      38.804 -14.064  -1.985  1.00  0.00     0.009 A 
HETATM   24  C   UNL     1      38.726 -14.644  -3.253  1.00  0.00     0.001 A 
HETATM   25  C   UNL     1      39.733 -15.500  -3.691  1.00  0.00     0.000 A 
HETATM   26  C   UNL     1      40.819 -15.771  -2.864  1.00  0.00     0.001 A 
HETATM   27  C   UNL     1      40.898 -15.191  -1.597  1.00  0.00     0.009 A 
ENDBRANCH  21  22
ENDBRANCH   1  21
TORSDOF 5
ENDMDL
MODEL 6
REMARK VINA RESULT:      -7.7      2.591      3.705
REMARK  5 active torsions:
REMARK  status: ('A' for Active; 'I' for Inactive)
REMARK    1  A    between atoms: C_2  and  N_4 
REMARK    2  A    between atoms: N_4  and  C_5 
REMARK       I    between atoms: N_4  and  C_12 
REMARK    3  A    between atoms: C_5  and  C_6 
REMARK       I    between atoms: C_12  and  N_14 
REMARK    4  A    between atoms: N_14  and  C_15 
REMARK    5  A    between atoms: C_18  and  C_21 
ROOT
HETATM    1  N   UNL     1      41.219 -15.978   4.564  1.00  0.00    -0.326 N 
HETATM    2  C   UNL     1      40.772 -15.048   3.615  1.00  0.00     0.323 C 
HETATM    3  O   UNL     1      41.119 -13.871   3.647  1.00  0.00    -0.247 OA
HETATM    4  N   UNL     1      39.909 -15.568   2.672  1.00  0.00    -0.309 N 
HETATM    5  H   UNL     1      39.397 -16.390   2.954  1.00  0.00     0.170 HD
ENDROOT
BRANCH   4   6
HETATM    6  C   UNL     1      39.453 -14.944   1.494  1.00  0.00     0.036 A 
HETATM    7  C   UNL     1      38.159 -14.455   1.326  1.00  0.00     0.030 A 
HETATM    8  C   UNL     1      37.784 -13.829   0.130  1.00  0.00     0.014 A 
HETATM    9  C   UNL     1      38.698 -13.674  -0.919  1.00  0.00    -0.023 A 
HETATM   10  C   UNL     1      40.002 -14.152  -0.740  1.00  0.00     0.014 A 
HETATM   11  C   UNL     1      40.376 -14.778   0.455  1.00  0.00     0.030 A 
BRANCH   9  12
HETATM   12  C   UNL     1      38.318 -13.026  -2.163  1.00  0.00     0.010 A 
HETATM   13  C   UNL     1      37.182 -12.250  -2.496  1.00  0.00     0.152 A 
HETATM   14  N   UNL     1      37.205 -11.809  -3.757  1.00  0.00    -0.187 NA
HETATM   15  N   UNL     1      38.358 -12.300  -4.238  1.00  0.00    -0.289 N 
HETATM   16  H   UNL     1      38.606 -12.092  -5.200  1.00  0.00     0.188 HD
HETATM   17  C   UNL     1      39.061 -13.032  -3.326  1.00  0.00     0.123 A 
ENDBRANCH   9  12
ENDBRANCH   4   6
BRANCH   1  18
HETATM   18  C   UNL     1      42.072 -15.533   5.685  1.00  0.00     0.081 C 
HETATM   19  C   UNL     1      42.038 -16.507   6.866  1.00  0.00     0.032 C 
HETATM   20  C   UNL     1      43.509 -15.220   5.260  1.00  0.00     0.032 C 
ENDBRANCH   1  18
BRANCH   1  21
HETATM   21  C   UNL     1      41.078 -17.428   4.386  1.00  0.00     0.166 C 
BRANCH  21  22
HETATM   22  C   UNL     1      42.250 -18.113   3.715  1.00  0.00    -0.040 A 
HETATM   23  C   UNL     1      42.337 -18.069   2.313  1.00  0.00     0.009 A 
HETATM   24  C   UNL     1      43.384 -18.702   1.639  1.00  0.00     0.001 A 
HETATM   25  C   UNL     1      44.361 -19.388   2.356  1.00  0.00     0.000 A 
HETATM   26  C   UNL     1      44.293 -19.438   3.745  1.00  0.00     0.001 A 
HETATM   27  C   UNL     1      43.247 -18.806   4.419  1.00  0.00     0.009 A 
ENDBRANCH  21  22
ENDBRANCH   1  21
TORSDOF 5
ENDMDL
MODEL 7
REMARK VINA RESULT:      -7.6      2.878      8.876
REMARK  5 active torsions:
REMARK  status: ('A' for Active; 'I' for Inactive)
REMARK    1  A    between atoms: C_2  and  N_4 
REMARK    2  A    between atoms: N_4  and  C_5 
REMARK       I    between atoms: N_4  and  C_12 
REMARK    3  A    between atoms: C_5  and  C_6 
REMARK       I    between atoms: C_12  and  N_14 
REMARK    4  A    between atoms: N_14  and  C_15 
REMARK    5  A    between atoms: C_18  and  C_21 
ROOT
HETATM    1  N   UNL     1      41.425 -14.201   0.581  1.00  0.00    -0.326 N 
HETATM    2  C   UNL     1      41.701 -15.567   0.731  1.00  0.00     0.323 C 
HETATM    3  O   UNL     1      41.489 -16.373  -0.169  1.00  0.00    -0.247 OA
HETATM    4  N   UNL     1      42.207 -15.912   1.967  1.00  0.00    -0.309 N 
HETATM    5  H   UNL     1      41.975 -15.288   2.725  1.00  0.00     0.170 HD
ENDROOT
BRANCH   4   6
HETATM    6  C   UNL     1      42.760 -17.151   2.349  1.00  0.00     0.036 A 
HETATM    7  C   UNL     1      43.651 -17.878   1.561  1.00  0.00     0.030 A 
HETATM    8  C   UNL     1      44.172 -19.096   2.016  1.00  0.00     0.014 A 
HETATM    9  C   UNL     1      43.819 -19.607   3.270  1.00  0.00    -0.023 A 
HETATM   10  C   UNL     1      42.937 -18.867   4.065  1.00  0.00     0.014 A 
HETATM   11  C   UNL     1      42.414 -17.649   3.609  1.00  0.00     0.030 A 
BRANCH   9  12
HETATM   12  C   UNL     1      44.356 -20.869   3.750  1.00  0.00     0.010 A 
HETATM   13  C   UNL     1      44.932 -21.220   4.995  1.00  0.00     0.152 A 
HETATM   14  N   UNL     1      45.295 -22.504   5.057  1.00  0.00    -0.187 NA
HETATM   15  N   UNL     1      44.950 -22.985   3.852  1.00  0.00    -0.289 N 
HETATM   16  H   UNL     1      45.125 -23.964   3.655  1.00  0.00     0.188 HD
HETATM   17  C   UNL     1      44.383 -22.049   3.035  1.00  0.00     0.123 A 
ENDBRANCH   9  12
ENDBRANCH   4   6
BRANCH   1  18
HETATM   18  C   UNL     1      40.791 -13.709  -0.660  1.00  0.00     0.081 C 
HETATM   19  C   UNL     1      39.262 -13.749  -0.589  1.00  0.00     0.032 C 
HETATM   20  C   UNL     1      41.295 -12.328  -1.086  1.00  0.00     0.032 C 
ENDBRANCH   1  18
BRANCH   1  21
HETATM   21  C   UNL     1      41.940 -13.179   1.500  1.00  0.00     0.166 C 
BRANCH  21  22
HETATM   22  C   UNL     1      40.966 -12.720   2.566  1.00  0.00    -0.040 A 
HETATM   23  C   UNL     1      41.051 -13.298   3.844  1.00  0.00     0.009 A 
HETATM   24  C   UNL     1      40.165 -12.929   4.859  1.00  0.00     0.001 A 
HETATM   25  C   UNL     1      39.180 -11.977   4.612  1.00  0.00     0.000 A 
HETATM   26  C   UNL     1      39.083 -11.391   3.353  1.00  0.00     0.001 A 
HETATM   27  C   UNL     1      39.969 -11.759   2.339  1.00  0.00     0.009 A 
ENDBRANCH  21  22
ENDBRANCH   1  21
TORSDOF 5
ENDMDL
MODEL 8
REMARK VINA RESULT:      -7.5      2.294      2.972
REMARK  5 active torsions:
REMARK  status: ('A' for Active; 'I' for Inactive)
REMARK    1  A    between atoms: C_2  and  N_4 
REMARK    2  A    between atoms: N_4  and  C_5 
REMARK       I    between atoms: N_4  and  C_12 
REMARK    3  A    between atoms: C_5  and  C_6 
REMARK       I    between atoms: C_12  and  N_14 
REMARK    4  A    between atoms: N_14  and  C_15 
REMARK    5  A    between atoms: C_18  and  C_21 
ROOT
HETATM    1  N   UNL     1      43.918 -18.573   6.116  1.00  0.00    -0.326 N 
HETATM    2  C   UNL     1      42.973 -17.571   6.375  1.00  0.00     0.323 C 
HETATM    3  O   UNL     1      42.458 -17.437   7.481  1.00  0.00    -0.247 OA
HETATM    4  N   UNL     1      42.671 -16.779   5.287  1.00  0.00    -0.309 N 
HETATM    5  H   UNL     1      42.828 -17.199   4.383  1.00  0.00     0.170 HD
ENDROOT
BRANCH   4   6
HETATM    6  C   UNL     1      41.922 -15.585   5.280  1.00  0.00     0.036 A 
HETATM    7  C   UNL     1      40.563 -15.524   4.976  1.00  0.00     0.030 A 
HETATM    8  C   UNL     1      39.881 -14.301   5.007  1.00  0.00     0.014 A 
HETATM    9  C   UNL     1      40.543 -13.116   5.349  1.00  0.00    -0.023 A 
HETATM   10  C   UNL     1      41.904 -13.184   5.669  1.00  0.00     0.014 A 
HETATM   11  C   UNL     1      42.586 -14.407   5.637  1.00  0.00     0.030 A 
BRANCH   9  12
HETATM   12  C   UNL     1      39.843 -11.843   5.384  1.00  0.00     0.010 A 
HETATM   13  C   UNL     1      38.751 -11.363   4.623  1.00  0.00     0.152 A 
HETATM   14  N   UNL     1      38.379 -10.127   4.970  1.00  0.00    -0.187 NA
HETATM   15  N   UNL     1      39.229  -9.811   5.958  1.00  0.00    -0.289 N 
HETATM   16  H   UNL     1      39.141  -8.901   6.397  1.00  0.00     0.188 HD
HETATM   17  C   UNL     1      40.123 -10.802   6.245  1.00  0.00     0.123 A 
ENDBRANCH   9  12
ENDBRANCH   4   6
BRANCH   1  18
HETATM   18  C   UNL     1      44.262 -19.552   7.169  1.00  0.00     0.081 C 
HETATM   19  C   UNL     1      44.395 -18.902   8.549  1.00  0.00     0.032 C 
HETATM   20  C   UNL     1      43.313 -20.753   7.205  1.00  0.00     0.032 C 
ENDBRANCH   1  18
BRANCH   1  21
HETATM   21  C   UNL     1      44.769 -18.576   4.921  1.00  0.00     0.166 C 
BRANCH  21  22
HETATM   22  C   UNL     1      44.410 -19.611   3.875  1.00  0.00    -0.040 A 
HETATM   23  C   UNL     1      43.553 -19.235   2.827  1.00  0.00     0.009 A 
HETATM   24  C   UNL     1      43.171 -20.153   1.847  1.00  0.00     0.001 A 
HETATM   25  C   UNL     1      43.638 -21.464   1.900  1.00  0.00     0.000 A 
HETATM   26  C   UNL     1      44.490 -21.854   2.929  1.00  0.00     0.001 A 
HETATM   27  C   UNL     1      44.874 -20.935   3.908  1.00  0.00     0.009 A 
ENDBRANCH  21  22
ENDBRANCH   1  21
TORSDOF 5
ENDMDL
MODEL 9
REMARK VINA RESULT:      -7.4      1.560      2.125
REMARK  5 active torsions:
REMARK  status: ('A' for Active; 'I' for Inactive)
REMARK    1  A    between atoms: C_2  and  N_4 
REMARK    2  A    between atoms: N_4  and  C_5 
REMARK       I    between atoms: N_4  and  C_12 
REMARK    3  A    between atoms: C_5  and  C_6 
REMARK       I    between atoms: C_12  and  N_14 
REMARK    4  A    between atoms: N_14  and  C_15 
REMARK    5  A    between atoms: C_18  and  C_21 
ROOT
HETATM    1  N   UNL     1      43.179 -18.008   5.347  1.00  0.00    -0.326 N 
HETATM    2  C   UNL     1      42.226 -17.265   4.637  1.00  0.00     0.323 C 
HETATM    3  O   UNL     1      41.311 -16.675   5.205  1.00  0.00    -0.247 OA
HETATM    4  N   UNL     1      42.400 -17.276   3.269  1.00  0.00    -0.309 N 
HETATM    5  H   UNL     1      42.901 -18.069   2.898  1.00  0.00     0.170 HD
ENDROOT
BRANCH   4   6
HETATM    6  C   UNL     1      41.737 -16.477   2.317  1.00  0.00     0.036 A 
HETATM    7  C   UNL     1      42.199 -16.274   1.018  1.00  0.00     0.030 A 
HETATM    8  C   UNL     1      41.474 -15.479   0.120  1.00  0.00     0.014 A 
HETATM    9  C   UNL     1      40.269 -14.878   0.502  1.00  0.00    -0.023 A 
HETATM   10  C   UNL     1      39.800 -15.098   1.802  1.00  0.00     0.014 A 
HETATM   11  C   UNL     1      40.525 -15.891   2.699  1.00  0.00     0.030 A 
BRANCH   9  12
HETATM   12  C   UNL     1      39.510 -14.053  -0.423  1.00  0.00     0.010 A 
HETATM   13  C   UNL     1      39.918 -13.324  -1.566  1.00  0.00     0.152 A 
HETATM   14  N   UNL     1      38.906 -12.695  -2.170  1.00  0.00    -0.187 NA
HETATM   15  N   UNL     1      37.843 -13.020  -1.418  1.00  0.00    -0.289 N 
HETATM   16  H   UNL     1      36.934 -12.657  -1.684  1.00  0.00     0.188 HD
HETATM   17  C   UNL     1      38.150 -13.830  -0.363  1.00  0.00     0.123 A 
ENDBRANCH   9  12
ENDBRANCH   4   6
BRANCH   1  18
HETATM   18  C   UNL     1      43.054 -18.159   6.812  1.00  0.00     0.081 C 
HETATM   19  C   UNL     1      43.677 -19.462   7.319  1.00  0.00     0.032 C 
HETATM   20  C   UNL     1      43.580 -16.948   7.588  1.00  0.00     0.032 C 
ENDBRANCH   1  18
BRANCH   1  21
HETATM   21  C   UNL     1      44.439 -18.464   4.750  1.00  0.00     0.166 C 
BRANCH  21  22
HETATM   22  C   UNL     1      44.346 -19.744   3.945  1.00  0.00    -0.040 A 
HETATM   23  C   UNL     1      44.806 -20.937   4.529  1.00  0.00     0.009 A 
HETATM   24  C   UNL     1      44.764 -22.143   3.825  1.00  0.00     0.001 A 
HETATM   25  C   UNL     1      44.262 -22.176   2.527  1.00  0.00     0.000 A 
HETATM   26  C   UNL     1      43.799 -21.005   1.934  1.00  0.00     0.001 A 
HETATM   27  C   UNL     1      43.839 -19.799   2.637  1.00  0.00     0.009 A 
ENDBRANCH  21  22
ENDBRANCH   1  21
TORSDOF 5
ENDMDL
MODEL 10
REMARK VINA RESULT:      -7.3      3.387      9.394
REMARK  5 active torsions:
REMARK  status: ('A' for Active; 'I' for Inactive)
REMARK    1  A    between atoms: C_2  and  N_4 
REMARK    2  A    between atoms: N_4  and  C_5 
REMARK       I    between atoms: N_4  and  C_12 
REMARK    3  A    between atoms: C_5  and  C_6 
REMARK       I    between atoms: C_12  and  N_14 
REMARK    4  A    between atoms: N_14  and  C_15 
REMARK    5  A    between atoms: C_18  and  C_21 
ROOT
HETATM    1  N   UNL     1      40.864 -13.760  -1.220  1.00  0.00    -0.326 N 
HETATM    2  C   UNL     1      41.135 -15.111  -0.962  1.00  0.00     0.323 C 
HETATM    3  O   UNL     1      41.069 -15.964  -1.842  1.00  0.00    -0.247 OA
HETATM    4  N   UNL     1      41.458 -15.386   0.351  1.00  0.00    -0.309 N 
HETATM    5  H   UNL     1      41.108 -14.731   1.034  1.00  0.00     0.170 HD
ENDROOT
BRANCH   4   6
HETATM    6  C   UNL     1      41.966 -16.593   0.871  1.00  0.00     0.036 A 
HETATM    7  C   UNL     1      41.166 -17.661   1.272  1.00  0.00     0.030 A 
HETATM    8  C   UNL     1      41.745 -18.838   1.764  1.00  0.00     0.014 A 
HETATM    9  C   UNL     1      43.135 -18.972   1.859  1.00  0.00    -0.023 A 
HETATM   10  C   UNL     1      43.935 -17.903   1.440  1.00  0.00     0.014 A 
HETATM   11  C   UNL     1      43.356 -16.726   0.949  1.00  0.00     0.030 A 
BRANCH   9  12
HETATM   12  C   UNL     1      43.744 -20.189   2.368  1.00  0.00     0.010 A 
HETATM   13  C   UNL     1      43.784 -21.500   1.835  1.00  0.00     0.152 A 
HETATM   14  N   UNL     1      44.467 -22.353   2.604  1.00  0.00    -0.187 NA
HETATM   15  N   UNL     1      44.870 -21.592   3.633  1.00  0.00    -0.289 N 
HETATM   16  H   UNL     1      45.423 -22.025   4.365  1.00  0.00     0.188 HD
HETATM   17  C   UNL     1      44.466 -20.291   3.539  1.00  0.00     0.123 A 
ENDBRANCH   9  12
ENDBRANCH   4   6
BRANCH   1  18
HETATM   18  C   UNL     1      40.413 -13.343  -2.564  1.00  0.00     0.081 C 
HETATM   19  C   UNL     1      38.887 -13.316  -2.684  1.00  0.00     0.032 C 
HETATM   20  C   UNL     1      41.034 -12.021  -3.023  1.00  0.00     0.032 C 
ENDBRANCH   1  18
BRANCH   1  21
HETATM   21  C   UNL     1      41.223 -12.684  -0.289  1.00  0.00     0.166 C 
BRANCH  21  22
HETATM   22  C   UNL     1      40.075 -12.127   0.527  1.00  0.00    -0.040 A 
HETATM   23  C   UNL     1      39.450 -10.948   0.084  1.00  0.00     0.009 A 
HETATM   24  C   UNL     1      38.401 -10.377   0.807  1.00  0.00     0.001 A 
HETATM   25  C   UNL     1      37.960 -10.974   1.985  1.00  0.00     0.000 A 
HETATM   26  C   UNL     1      38.564 -12.144   2.437  1.00  0.00     0.001 A 
HETATM   27  C   UNL     1      39.612 -12.716   1.713  1.00  0.00     0.009 A 
ENDBRANCH  21  22
ENDBRANCH   1  21
TORSDOF 5
ENDMDL
