MODEL 1
REMARK VINA RESULT:      -8.7      0.000      0.000
REMARK  2 active torsions:
REMARK  status: ('A' for Active; 'I' for Inactive)
REMARK    1  A    between atoms: C_2  and  C_3 
REMARK    2  A    between atoms: C_7  and  C_8 
REMARK       I    between atoms: C_8  and  N_9 
ROOT
HETATM    1  C   UNL     1      40.316 -14.376   0.340  1.00  0.00     0.271 C 
HETATM    2  N   UNL     1      40.977 -15.472   0.925  1.00  0.00    -0.346 N 
HETATM    3  C   UNL     1      40.114 -16.482   1.534  1.00  0.00     0.130 C 
HETATM    4  C   UNL     1      40.831 -17.814   1.714  1.00  0.00     0.068 C 
HETATM    5  C   UNL     1      42.178 -17.668   2.442  1.00  0.00     0.094 C 
HETATM    6  N   UNL     1      42.873 -18.937   2.394  1.00  0.00    -0.334 N 
HETATM    7  C   UNL     1      43.936 -19.230   3.206  1.00  0.00     0.255 C 
HETATM    8  O   UNL     1      44.744 -20.101   2.910  1.00  0.00    -0.268 OA
HETATM    9  C   UNL     1      44.034 -18.450   4.454  1.00  0.00     0.053 A 
HETATM   10  C   UNL     1      43.014 -17.530   4.728  1.00  0.00     0.026 A 
HETATM   11  N   UNL     1      41.931 -17.366   3.852  1.00  0.00    -0.265 NA
HETATM   12  C   UNL     1      45.097 -18.651   5.341  1.00  0.00     0.019 A 
HETATM   13  C   UNL     1      45.132 -17.941   6.538  1.00  0.00     0.001 A 
HETATM   14  C   UNL     1      44.099 -17.055   6.849  1.00  0.00     0.002 A 
HETATM   15  C   UNL     1      43.039 -16.863   5.957  1.00  0.00     0.024 A 
HETATM   16  C   UNL     1      43.022 -16.572   1.766  1.00  0.00     0.068 C 
HETATM   17  C   UNL     1      42.254 -15.269   1.611  1.00  0.00     0.130 C 
HETATM   18  O   UNL     1      39.101 -14.222   0.456  1.00  0.00    -0.266 OA
HETATM   19  H   UNL     1      42.893 -19.448   1.522  1.00  0.00     0.164 HD
HETATM   20  H   UNL     1      41.418 -16.507   4.026  1.00  0.00     0.130 HD
ENDROOT
BRANCH   1  21
HETATM   21  C   UNL     1      41.122 -13.462  -0.426  1.00  0.00     0.119 A 
HETATM   22  N   UNL     1      42.040 -13.824  -1.371  1.00  0.00    -0.273 N 
HETATM   23  N   UNL     1      42.688 -12.793  -1.929  1.00  0.00    -0.178 NA
HETATM   24  H   UNL     1      42.284 -14.763  -1.666  1.00  0.00     0.189 HD
HETATM   25  C   UNL     1      42.105 -11.707  -1.398  1.00  0.00     0.064 A 
HETATM   26  C   UNL     1      41.097 -12.083  -0.473  1.00  0.00     0.066 A 
BRANCH  25  27
HETATM   27  C   UNL     1      42.555 -10.317  -1.818  1.00  0.00    -0.005 C 
HETATM   28  C   UNL     1      41.533  -9.266  -1.342  1.00  0.00     0.021 C 
HETATM   29  C   UNL     1      42.677 -10.239  -3.355  1.00  0.00     0.021 C 
HETATM   30  C   UNL     1      43.929  -9.954  -1.218  1.00  0.00     0.021 C 
ENDBRANCH  25  27
ENDBRANCH   1  21
TORSDOF 2
ENDMDL
MODEL 2
REMARK VINA RESULT:      -8.3      2.702      8.423
REMARK  2 active torsions:
REMARK  status: ('A' for Active; 'I' for Inactive)
REMARK    1  A    between atoms: C_2  and  C_3 
REMARK    2  A    between atoms: C_7  and  C_8 
REMARK       I    between atoms: C_8  and  N_9 
ROOT
HETATM    1  C   UNL     1      41.221 -14.820   4.549  1.00  0.00     0.271 C 
HETATM    2  N   UNL     1      41.384 -14.355   3.231  1.00  0.00    -0.346 N 
HETATM    3  C   UNL     1      41.022 -12.958   3.001  1.00  0.00     0.130 C 
HETATM    4  C   UNL     1      41.646 -12.408   1.726  1.00  0.00     0.068 C 
HETATM    5  C   UNL     1      41.376 -13.298   0.501  1.00  0.00     0.094 C 
HETATM    6  N   UNL     1      42.162 -12.809  -0.612  1.00  0.00    -0.334 N 
HETATM    7  C   UNL     1      41.918 -13.177  -1.908  1.00  0.00     0.255 C 
HETATM    8  O   UNL     1      42.784 -13.092  -2.769  1.00  0.00    -0.268 OA
HETATM    9  C   UNL     1      40.555 -13.659  -2.200  1.00  0.00     0.053 A 
HETATM   10  C   UNL     1      39.623 -13.645  -1.155  1.00  0.00     0.026 A 
HETATM   11  N   UNL     1      39.969 -13.177   0.120  1.00  0.00    -0.265 NA
HETATM   12  C   UNL     1      40.208 -14.084  -3.486  1.00  0.00     0.019 A 
HETATM   13  C   UNL     1      38.898 -14.480  -3.746  1.00  0.00     0.001 A 
HETATM   14  C   UNL     1      37.944 -14.427  -2.729  1.00  0.00     0.002 A 
HETATM   15  C   UNL     1      38.301 -13.997  -1.446  1.00  0.00     0.024 A 
HETATM   16  C   UNL     1      41.755 -14.756   0.822  1.00  0.00     0.068 C 
HETATM   17  C   UNL     1      41.105 -15.249   2.105  1.00  0.00     0.130 C 
HETATM   18  O   UNL     1      40.684 -14.128   5.412  1.00  0.00    -0.266 OA
HETATM   19  H   UNL     1      43.128 -12.556  -0.451  1.00  0.00     0.164 HD
HETATM   20  H   UNL     1      39.304 -13.461   0.832  1.00  0.00     0.130 HD
ENDROOT
BRANCH   1  21
HETATM   21  C   UNL     1      41.741 -16.129   4.847  1.00  0.00     0.119 A 
HETATM   22  N   UNL     1      41.002 -17.278   4.894  1.00  0.00    -0.273 N 
HETATM   23  N   UNL     1      41.706 -18.369   5.223  1.00  0.00    -0.178 NA
HETATM   24  H   UNL     1      40.006 -17.378   4.730  1.00  0.00     0.189 HD
HETATM   25  C   UNL     1      42.974 -17.936   5.301  1.00  0.00     0.064 A 
HETATM   26  C   UNL     1      43.042 -16.543   5.043  1.00  0.00     0.066 A 
BRANCH  25  27
HETATM   27  C   UNL     1      44.094 -18.911   5.628  1.00  0.00    -0.005 C 
HETATM   28  C   UNL     1      43.602 -19.955   6.650  1.00  0.00     0.021 C 
HETATM   29  C   UNL     1      45.300 -18.155   6.223  1.00  0.00     0.021 C 
HETATM   30  C   UNL     1      44.582 -19.664   4.373  1.00  0.00     0.021 C 
ENDBRANCH  25  27
ENDBRANCH   1  21
TORSDOF 2
ENDMDL
MODEL 3
REMARK VINA RESULT:      -8.1      3.104      8.481
REMARK  2 active torsions:
REMARK  status: ('A' for Active; 'I' for Inactive)
REMARK    1  A    between atoms: C_2  and  C_3 
REMARK    2  A    between atoms: C_7  and  C_8 
REMARK       I    between atoms: C_8  and  N_9 
ROOT
HETATM    1  C   UNL     1      40.937 -14.439   5.364  1.00  0.00     0.271 C 
HETATM    2  N   UNL     1      41.216 -13.719   4.186  1.00  0.00    -0.346 N 
HETATM    3  C   UNL     1      40.188 -12.771   3.764  1.00  0.00     0.130 C 
HETATM    4  C   UNL     1      40.734 -11.728   2.799  1.00  0.00     0.068 C 
HETATM    5  C   UNL     1      41.487 -12.353   1.612  1.00  0.00     0.094 C 
HETATM    6  N   UNL     1      42.134 -11.297   0.862  1.00  0.00    -0.334 N 
HETATM    7  C   UNL     1      42.613 -11.478  -0.407  1.00  0.00     0.255 C 
HETATM    8  O   UNL     1      43.477 -10.747  -0.874  1.00  0.00    -0.268 OA
HETATM    9  C   UNL     1      42.016 -12.587  -1.175  1.00  0.00     0.053 A 
HETATM   10  C   UNL     1      40.983 -13.314  -0.570  1.00  0.00     0.026 A 
HETATM   11  N   UNL     1      40.524 -12.990   0.715  1.00  0.00    -0.265 NA
HETATM   12  C   UNL     1      42.452 -12.875  -2.472  1.00  0.00     0.019 A 
HETATM   13  C   UNL     1      41.830 -13.892  -3.193  1.00  0.00     0.001 A 
HETATM   14  C   UNL     1      40.768 -14.594  -2.624  1.00  0.00     0.002 A 
HETATM   15  C   UNL     1      40.336 -14.296  -1.327  1.00  0.00     0.024 A 
HETATM   16  C   UNL     1      42.533 -13.359   2.129  1.00  0.00     0.068 C 
HETATM   17  C   UNL     1      41.931 -14.373   3.088  1.00  0.00     0.130 C 
HETATM   18  O   UNL     1      39.842 -14.364   5.918  1.00  0.00    -0.266 OA
HETATM   19  H   UNL     1      42.625 -10.572   1.367  1.00  0.00     0.164 HD
HETATM   20  H   UNL     1      39.975 -13.736   1.130  1.00  0.00     0.130 HD
ENDROOT
BRANCH   1  21
HETATM   21  C   UNL     1      42.004 -15.240   5.906  1.00  0.00     0.119 A 
HETATM   22  N   UNL     1      43.038 -14.766   6.663  1.00  0.00    -0.273 N 
HETATM   23  N   UNL     1      43.924 -15.702   7.027  1.00  0.00    -0.178 NA
HETATM   24  H   UNL     1      43.205 -13.807   6.949  1.00  0.00     0.189 HD
HETATM   25  C   UNL     1      43.401 -16.851   6.572  1.00  0.00     0.064 A 
HETATM   26  C   UNL     1      42.181 -16.608   5.889  1.00  0.00     0.066 A 
BRANCH  25  27
HETATM   27  C   UNL     1      44.117 -18.168   6.824  1.00  0.00    -0.005 C 
HETATM   28  C   UNL     1      44.066 -18.517   8.325  1.00  0.00     0.021 C 
HETATM   29  C   UNL     1      45.593 -18.064   6.383  1.00  0.00     0.021 C 
HETATM   30  C   UNL     1      43.472 -19.330   6.041  1.00  0.00     0.021 C 
ENDBRANCH  25  27
ENDBRANCH   1  21
TORSDOF 2
ENDMDL
MODEL 4
REMARK VINA RESULT:      -7.6      5.891      9.071
REMARK  2 active torsions:
REMARK  status: ('A' for Active; 'I' for Inactive)
REMARK    1  A    between atoms: C_2  and  C_3 
REMARK    2  A    between atoms: C_7  and  C_8 
REMARK       I    between atoms: C_8  and  N_9 
ROOT
HETATM    1  C   UNL     1      39.950 -10.425   7.496  1.00  0.00     0.271 C 
HETATM    2  N   UNL     1      40.259 -10.712   6.153  1.00  0.00    -0.346 N 
HETATM    3  C   UNL     1      39.215 -10.399   5.181  1.00  0.00     0.130 C 
HETATM    4  C   UNL     1      39.766 -10.288   3.765  1.00  0.00     0.068 C 
HETATM    5  C   UNL     1      40.607 -11.509   3.359  1.00  0.00     0.094 C 
HETATM    6  N   UNL     1      41.246 -11.233   2.089  1.00  0.00    -0.334 N 
HETATM    7  C   UNL     1      41.800 -12.214   1.311  1.00  0.00     0.255 C 
HETATM    8  O   UNL     1      42.655 -11.957   0.473  1.00  0.00    -0.268 OA
HETATM    9  C   UNL     1      41.293 -13.581   1.531  1.00  0.00     0.053 A 
HETATM   10  C   UNL     1      40.262 -13.750   2.464  1.00  0.00     0.026 A 
HETATM   11  N   UNL     1      39.722 -12.655   3.154  1.00  0.00    -0.265 NA
HETATM   12  C   UNL     1      41.810 -14.660   0.807  1.00  0.00     0.019 A 
HETATM   13  C   UNL     1      41.272 -15.931   0.996  1.00  0.00     0.001 A 
HETATM   14  C   UNL     1      40.213 -16.110   1.885  1.00  0.00     0.002 A 
HETATM   15  C   UNL     1      39.700 -15.023   2.603  1.00  0.00     0.024 A 
HETATM   16  C   UNL     1      41.667 -11.797   4.439  1.00  0.00     0.068 C 
HETATM   17  C   UNL     1      41.059 -11.895   5.828  1.00  0.00     0.130 C 
HETATM   18  O   UNL     1      38.825 -10.061   7.832  1.00  0.00    -0.266 OA
HETATM   19  H   UNL     1      41.678 -10.330   1.948  1.00  0.00     0.164 HD
HETATM   20  H   UNL     1      39.185 -12.937   3.968  1.00  0.00     0.130 HD
ENDROOT
BRANCH   1  21
HETATM   21  C   UNL     1      41.020 -10.547   8.452  1.00  0.00     0.119 A 
HETATM   22  N   UNL     1      42.347 -10.380   8.174  1.00  0.00    -0.273 N 
HETATM   23  N   UNL     1      43.156 -10.574   9.223  1.00  0.00    -0.178 NA
HETATM   24  H   UNL     1      42.766 -10.150   7.279  1.00  0.00     0.189 HD
HETATM   25  C   UNL     1      42.321 -10.784  10.253  1.00  0.00     0.064 A 
HETATM   26  C   UNL     1      40.971 -10.745   9.816  1.00  0.00     0.066 A 
BRANCH  25  27
HETATM   27  C   UNL     1      42.874 -11.017  11.649  1.00  0.00    -0.005 C 
HETATM   28  C   UNL     1      43.613  -9.756  12.140  1.00  0.00     0.021 C 
HETATM   29  C   UNL     1      43.861 -12.204  11.640  1.00  0.00     0.021 C 
HETATM   30  C   UNL     1      41.757 -11.341  12.662  1.00  0.00     0.021 C 
ENDBRANCH  25  27
ENDBRANCH   1  21
TORSDOF 2
ENDMDL
MODEL 5
REMARK VINA RESULT:      -7.6      2.084      8.367
REMARK  2 active torsions:
REMARK  status: ('A' for Active; 'I' for Inactive)
REMARK    1  A    between atoms: C_2  and  C_3 
REMARK    2  A    between atoms: C_7  and  C_8 
REMARK       I    between atoms: C_8  and  N_9 
ROOT
HETATM    1  C   UNL     1      41.213 -16.971   2.059  1.00  0.00     0.271 C 
HETATM    2  N   UNL     1      41.013 -15.584   1.930  1.00  0.00    -0.346 N 
HETATM    3  C   UNL     1      39.926 -15.179   1.041  1.00  0.00     0.130 C 
HETATM    4  C   UNL     1      39.472 -13.750   1.307  1.00  0.00     0.068 C 
HETATM    5  C   UNL     1      40.638 -12.748   1.310  1.00  0.00     0.094 C 
HETATM    6  N   UNL     1      40.147 -11.463   1.761  1.00  0.00    -0.334 N 
HETATM    7  C   UNL     1      40.845 -10.299   1.580  1.00  0.00     0.255 C 
HETATM    8  O   UNL     1      40.637  -9.315   2.279  1.00  0.00    -0.268 OA
HETATM    9  C   UNL     1      41.839 -10.300   0.491  1.00  0.00     0.053 A 
HETATM   10  C   UNL     1      41.942 -11.456  -0.293  1.00  0.00     0.026 A 
HETATM   11  N   UNL     1      41.120 -12.568  -0.059  1.00  0.00    -0.265 NA
HETATM   12  C   UNL     1      42.624  -9.171   0.239  1.00  0.00     0.019 A 
HETATM   13  C   UNL     1      43.514  -9.182  -0.833  1.00  0.00     0.001 A 
HETATM   14  C   UNL     1      43.596 -10.307  -1.654  1.00  0.00     0.002 A 
HETATM   15  C   UNL     1      42.803 -11.431  -1.395  1.00  0.00     0.024 A 
HETATM   16  C   UNL     1      41.755 -13.249   2.245  1.00  0.00     0.068 C 
HETATM   17  C   UNL     1      42.165 -14.680   1.934  1.00  0.00     0.130 C 
HETATM   18  O   UNL     1      40.596 -17.776   1.364  1.00  0.00    -0.266 OA
HETATM   19  H   UNL     1      39.532 -11.431   2.563  1.00  0.00     0.164 HD
HETATM   20  H   UNL     1      41.468 -13.409  -0.508  1.00  0.00     0.130 HD
ENDROOT
BRANCH   1  21
HETATM   21  C   UNL     1      42.149 -17.404   3.064  1.00  0.00     0.119 A 
HETATM   22  N   UNL     1      43.432 -17.806   2.825  1.00  0.00    -0.273 N 
HETATM   23  N   UNL     1      44.099 -18.192   3.920  1.00  0.00    -0.178 NA
HETATM   24  H   UNL     1      43.906 -17.858   1.929  1.00  0.00     0.189 HD
HETATM   25  C   UNL     1      43.252 -17.943   4.931  1.00  0.00     0.064 A 
HETATM   26  C   UNL     1      42.028 -17.420   4.439  1.00  0.00     0.066 A 
BRANCH  25  27
HETATM   27  C   UNL     1      43.671 -18.226   6.364  1.00  0.00    -0.005 C 
HETATM   28  C   UNL     1      45.116 -17.743   6.596  1.00  0.00     0.021 C 
HETATM   29  C   UNL     1      43.596 -19.740   6.652  1.00  0.00     0.021 C 
HETATM   30  C   UNL     1      42.759 -17.508   7.380  1.00  0.00     0.021 C 
ENDBRANCH  25  27
ENDBRANCH   1  21
TORSDOF 2
ENDMDL
MODEL 6
REMARK VINA RESULT:      -7.4      3.832      7.908
REMARK  2 active torsions:
REMARK  status: ('A' for Active; 'I' for Inactive)
REMARK    1  A    between atoms: C_2  and  C_3 
REMARK    2  A    between atoms: C_7  and  C_8 
REMARK       I    between atoms: C_8  and  N_9 
ROOT
HETATM    1  C   UNL     1      41.906 -14.626   3.886  1.00  0.00     0.271 C 
HETATM    2  N   UNL     1      41.456 -14.694   2.554  1.00  0.00    -0.346 N 
HETATM    3  C   UNL     1      42.117 -15.688   1.711  1.00  0.00     0.130 C 
HETATM    4  C   UNL     1      41.295 -16.028   0.475  1.00  0.00     0.068 C 
HETATM    5  C   UNL     1      40.861 -14.779  -0.310  1.00  0.00     0.094 C 
HETATM    6  N   UNL     1      39.930 -15.179  -1.344  1.00  0.00    -0.334 N 
HETATM    7  C   UNL     1      39.605 -14.371  -2.400  1.00  0.00     0.255 C 
HETATM    8  O   UNL     1      38.566 -14.530  -3.030  1.00  0.00    -0.268 OA
HETATM    9  C   UNL     1      40.582 -13.320  -2.739  1.00  0.00     0.053 A 
HETATM   10  C   UNL     1      41.770 -13.275  -1.999  1.00  0.00     0.026 A 
HETATM   11  N   UNL     1      42.027 -14.205  -0.981  1.00  0.00    -0.265 NA
HETATM   12  C   UNL     1      40.335 -12.424  -3.783  1.00  0.00     0.019 A 
HETATM   13  C   UNL     1      41.302 -11.478  -4.117  1.00  0.00     0.001 A 
HETATM   14  C   UNL     1      42.512 -11.450  -3.422  1.00  0.00     0.002 A 
HETATM   15  C   UNL     1      42.751 -12.353  -2.380  1.00  0.00     0.024 A 
HETATM   16  C   UNL     1      40.198 -13.766   0.642  1.00  0.00     0.068 C 
HETATM   17  C   UNL     1      41.063 -13.468   1.856  1.00  0.00     0.130 C 
HETATM   18  O   UNL     1      42.880 -15.271   4.269  1.00  0.00    -0.266 OA
HETATM   19  H   UNL     1      39.195 -15.834  -1.111  1.00  0.00     0.164 HD
HETATM   20  H   UNL     1      42.777 -13.908  -0.364  1.00  0.00     0.130 HD
ENDROOT
BRANCH   1  21
HETATM   21  C   UNL     1      41.152 -13.792   4.787  1.00  0.00     0.119 A 
HETATM   22  N   UNL     1      39.869 -14.028   5.191  1.00  0.00    -0.273 N 
HETATM   23  N   UNL     1      39.371 -13.092   6.009  1.00  0.00    -0.178 NA
HETATM   24  H   UNL     1      39.271 -14.804   4.926  1.00  0.00     0.189 HD
HETATM   25  C   UNL     1      40.400 -12.259   6.227  1.00  0.00     0.064 A 
HETATM   26  C   UNL     1      41.545 -12.679   5.502  1.00  0.00     0.066 A 
BRANCH  25  27
HETATM   27  C   UNL     1      40.231 -11.063   7.150  1.00  0.00    -0.005 C 
HETATM   28  C   UNL     1      41.610 -10.581   7.645  1.00  0.00     0.021 C 
HETATM   29  C   UNL     1      39.367 -11.449   8.369  1.00  0.00     0.021 C 
HETATM   30  C   UNL     1      39.540  -9.882   6.438  1.00  0.00     0.021 C 
ENDBRANCH  25  27
ENDBRANCH   1  21
TORSDOF 2
ENDMDL
MODEL 7
REMARK VINA RESULT:      -7.3      5.509      8.759
REMARK  2 active torsions:
REMARK  status: ('A' for Active; 'I' for Inactive)
REMARK    1  A    between atoms: C_2  and  C_3 
REMARK    2  A    between atoms: C_7  and  C_8 
REMARK       I    between atoms: C_8  and  N_9 
ROOT
HETATM    1  C   UNL     1      44.845 -12.665   8.190  1.00  0.00     0.271 C 
HETATM    2  N   UNL     1      44.248 -13.700   7.446  1.00  0.00    -0.346 N 
HETATM    3  C   UNL     1      45.170 -14.628   6.796  1.00  0.00     0.130 C 
HETATM    4  C   UNL     1      44.492 -15.941   6.424  1.00  0.00     0.068 C 
HETATM    5  C   UNL     1      43.197 -15.733   5.622  1.00  0.00     0.094 C 
HETATM    6  N   UNL     1      42.525 -17.008   5.484  1.00  0.00    -0.334 N 
HETATM    7  C   UNL     1      41.526 -17.223   4.572  1.00  0.00     0.255 C 
HETATM    8  O   UNL     1      40.716 -18.130   4.716  1.00  0.00    -0.268 OA
HETATM    9  C   UNL     1      41.500 -16.314   3.411  1.00  0.00     0.053 A 
HETATM   10  C   UNL     1      42.518 -15.358   3.311  1.00  0.00     0.026 A 
HETATM   11  N   UNL     1      43.535 -15.277   4.274  1.00  0.00    -0.265 NA
HETATM   12  C   UNL     1      40.506 -16.431   2.435  1.00  0.00     0.019 A 
HETATM   13  C   UNL     1      40.540 -15.596   1.320  1.00  0.00     0.001 A 
HETATM   14  C   UNL     1      41.574 -14.670   1.180  1.00  0.00     0.002 A 
HETATM   15  C   UNL     1      42.566 -14.563   2.161  1.00  0.00     0.024 A 
HETATM   16  C   UNL     1      42.287 -14.726   6.350  1.00  0.00     0.068 C 
HETATM   17  C   UNL     1      43.017 -13.438   6.697  1.00  0.00     0.130 C 
HETATM   18  O   UNL     1      46.062 -12.486   8.178  1.00  0.00    -0.266 OA
HETATM   19  H   UNL     1      42.454 -17.610   6.293  1.00  0.00     0.164 HD
HETATM   20  H   UNL     1      44.042 -14.399   4.229  1.00  0.00     0.130 HD
ENDROOT
BRANCH   1  21
HETATM   21  C   UNL     1      43.970 -11.849   8.991  1.00  0.00     0.119 A 
HETATM   22  N   UNL     1      42.910 -11.131   8.515  1.00  0.00    -0.273 N 
HETATM   23  N   UNL     1      42.263 -10.424   9.451  1.00  0.00    -0.178 NA
HETATM   24  H   UNL     1      42.588 -11.067   7.556  1.00  0.00     0.189 HD
HETATM   25  C   UNL     1      42.864 -10.766  10.601  1.00  0.00     0.064 A 
HETATM   26  C   UNL     1      43.921 -11.681  10.359  1.00  0.00     0.066 A 
BRANCH  25  27
HETATM   27  C   UNL     1      42.379 -10.182  11.918  1.00  0.00    -0.005 C 
HETATM   28  C   UNL     1      41.450 -11.187  12.630  1.00  0.00     0.021 C 
HETATM   29  C   UNL     1      41.602  -8.872  11.666  1.00  0.00     0.021 C 
HETATM   30  C   UNL     1      43.550  -9.859  12.869  1.00  0.00     0.021 C 
ENDBRANCH  25  27
ENDBRANCH   1  21
TORSDOF 2
ENDMDL
MODEL 8
REMARK VINA RESULT:      -7.2      1.610      8.418
REMARK  2 active torsions:
REMARK  status: ('A' for Active; 'I' for Inactive)
REMARK    1  A    between atoms: C_2  and  C_3 
REMARK    2  A    between atoms: C_7  and  C_8 
REMARK       I    between atoms: C_8  and  N_9 
ROOT
HETATM    1  C   UNL     1      42.641 -17.269   1.683  1.00  0.00     0.271 C 
HETATM    2  N   UNL     1      41.947 -16.144   1.199  1.00  0.00    -0.346 N 
HETATM    3  C   UNL     1      41.772 -16.081  -0.250  1.00  0.00     0.130 C 
HETATM    4  C   UNL     1      40.650 -15.132  -0.650  1.00  0.00     0.068 C 
HETATM    5  C   UNL     1      40.793 -13.741  -0.010  1.00  0.00     0.094 C 
HETATM    6  N   UNL     1      39.594 -12.977  -0.282  1.00  0.00    -0.334 N 
HETATM    7  C   UNL     1      39.531 -11.618  -0.127  1.00  0.00     0.255 C 
HETATM    8  O   UNL     1      38.462 -11.042   0.026  1.00  0.00    -0.268 OA
HETATM    9  C   UNL     1      40.818 -10.899  -0.174  1.00  0.00     0.053 A 
HETATM   10  C   UNL     1      41.973 -11.650  -0.427  1.00  0.00     0.026 A 
HETATM   11  N   UNL     1      41.907 -13.034  -0.642  1.00  0.00    -0.265 NA
HETATM   12  C   UNL     1      40.869  -9.513   0.000  1.00  0.00     0.019 A 
HETATM   13  C   UNL     1      42.092  -8.854  -0.106  1.00  0.00     0.001 A 
HETATM   14  C   UNL     1      43.245  -9.579  -0.406  1.00  0.00     0.002 A 
HETATM   15  C   UNL     1      43.184 -10.966  -0.581  1.00  0.00     0.024 A 
HETATM   16  C   UNL     1      41.001 -13.884   1.510  1.00  0.00     0.068 C 
HETATM   17  C   UNL     1      42.131 -14.844   1.847  1.00  0.00     0.130 C 
HETATM   18  O   UNL     1      43.174 -18.072   0.919  1.00  0.00    -0.266 OA
HETATM   19  H   UNL     1      38.695 -13.426  -0.171  1.00  0.00     0.164 HD
HETATM   20  H   UNL     1      42.812 -13.485  -0.551  1.00  0.00     0.130 HD
ENDROOT
BRANCH   1  21
HETATM   21  C   UNL     1      42.668 -17.455   3.110  1.00  0.00     0.119 A 
HETATM   22  N   UNL     1      41.587 -17.348   3.939  1.00  0.00    -0.273 N 
HETATM   23  N   UNL     1      41.869 -17.535   5.234  1.00  0.00    -0.178 NA
HETATM   24  H   UNL     1      40.630 -17.130   3.681  1.00  0.00     0.189 HD
HETATM   25  C   UNL     1      43.168 -17.872   5.247  1.00  0.00     0.064 A 
HETATM   26  C   UNL     1      43.699 -17.862   3.931  1.00  0.00     0.066 A 
BRANCH  25  27
HETATM   27  C   UNL     1      43.858 -18.198   6.561  1.00  0.00    -0.005 C 
HETATM   28  C   UNL     1      43.225 -17.383   7.707  1.00  0.00     0.021 C 
HETATM   29  C   UNL     1      45.361 -17.855   6.473  1.00  0.00     0.021 C 
HETATM   30  C   UNL     1      43.737 -19.695   6.916  1.00  0.00     0.021 C 
ENDBRANCH  25  27
ENDBRANCH   1  21
TORSDOF 2
ENDMDL
MODEL 9
REMARK VINA RESULT:      -7.0      2.822      8.553
REMARK  2 active torsions:
REMARK  status: ('A' for Active; 'I' for Inactive)
REMARK    1  A    between atoms: C_2  and  C_3 
REMARK    2  A    between atoms: C_7  and  C_8 
REMARK       I    between atoms: C_8  and  N_9 
ROOT
HETATM    1  C   UNL     1      40.831 -16.826   2.251  1.00  0.00     0.271 C 
HETATM    2  N   UNL     1      40.212 -15.564   2.318  1.00  0.00    -0.346 N 
HETATM    3  C   UNL     1      39.393 -15.197   1.165  1.00  0.00     0.130 C 
HETATM    4  C   UNL     1      38.411 -14.080   1.494  1.00  0.00     0.068 C 
HETATM    5  C   UNL     1      39.091 -12.865   2.148  1.00  0.00     0.094 C 
HETATM    6  N   UNL     1      38.067 -11.947   2.601  1.00  0.00    -0.334 N 
HETATM    7  C   UNL     1      38.336 -10.647   2.935  1.00  0.00     0.255 C 
HETATM    8  O   UNL     1      37.589 -10.009   3.667  1.00  0.00    -0.268 OA
HETATM    9  C   UNL     1      39.558 -10.065   2.349  1.00  0.00     0.053 A 
HETATM   10  C   UNL     1      40.299 -10.861   1.467  1.00  0.00     0.026 A 
HETATM   11  N   UNL     1      39.886 -12.162   1.142  1.00  0.00    -0.265 NA
HETATM   12  C   UNL     1      39.938  -8.752   2.647  1.00  0.00     0.019 A 
HETATM   13  C   UNL     1      41.066  -8.211   2.034  1.00  0.00     0.001 A 
HETATM   14  C   UNL     1      41.789  -8.974   1.117  1.00  0.00     0.002 A 
HETATM   15  C   UNL     1      41.398 -10.285   0.823  1.00  0.00     0.024 A 
HETATM   16  C   UNL     1      39.956 -13.328   3.335  1.00  0.00     0.068 C 
HETATM   17  C   UNL     1      40.914 -14.443   2.948  1.00  0.00     0.130 C 
HETATM   18  O   UNL     1      40.786 -17.510   1.230  1.00  0.00    -0.266 OA
HETATM   19  H   UNL     1      37.260 -12.317   3.084  1.00  0.00     0.164 HD
HETATM   20  H   UNL     1      40.627 -12.709   0.718  1.00  0.00     0.130 HD
ENDROOT
BRANCH   1  21
HETATM   21  C   UNL     1      41.490 -17.293   3.443  1.00  0.00     0.119 A 
HETATM   22  N   UNL     1      40.961 -17.251   4.703  1.00  0.00    -0.273 N 
HETATM   23  N   UNL     1      41.778 -17.718   5.656  1.00  0.00    -0.178 NA
HETATM   24  H   UNL     1      40.052 -16.896   4.979  1.00  0.00     0.189 HD
HETATM   25  C   UNL     1      42.848 -18.172   4.984  1.00  0.00     0.064 A 
HETATM   26  C   UNL     1      42.693 -17.951   3.591  1.00  0.00     0.066 A 
BRANCH  25  27
HETATM   27  C   UNL     1      44.002 -18.818   5.733  1.00  0.00    -0.005 C 
HETATM   28  C   UNL     1      44.854 -19.661   4.764  1.00  0.00     0.021 C 
HETATM   29  C   UNL     1      43.464 -19.733   6.854  1.00  0.00     0.021 C 
HETATM   30  C   UNL     1      44.922 -17.765   6.386  1.00  0.00     0.021 C 
ENDBRANCH  25  27
ENDBRANCH   1  21
TORSDOF 2
ENDMDL
MODEL 10
REMARK VINA RESULT:      -6.9      3.727      5.123
REMARK  2 active torsions:
REMARK  status: ('A' for Active; 'I' for Inactive)
REMARK    1  A    between atoms: C_2  and  C_3 
REMARK    2  A    between atoms: C_7  and  C_8 
REMARK       I    between atoms: C_8  and  N_9 
ROOT
HETATM    1  C   UNL     1      40.549 -12.729  -2.533  1.00  0.00     0.271 C 
HETATM    2  N   UNL     1      40.804 -13.233  -1.243  1.00  0.00    -0.346 N 
HETATM    3  C   UNL     1      42.010 -12.727  -0.591  1.00  0.00     0.130 C 
HETATM    4  C   UNL     1      41.973 -12.933   0.917  1.00  0.00     0.068 C 
HETATM    5  C   UNL     1      41.653 -14.385   1.310  1.00  0.00     0.094 C 
HETATM    6  N   UNL     1      41.446 -14.446   2.741  1.00  0.00    -0.334 N 
HETATM    7  C   UNL     1      41.455 -15.622   3.441  1.00  0.00     0.255 C 
HETATM    8  O   UNL     1      40.908 -15.720   4.532  1.00  0.00    -0.268 OA
HETATM    9  C   UNL     1      42.174 -16.746   2.812  1.00  0.00     0.053 A 
HETATM   10  C   UNL     1      42.826 -16.502   1.597  1.00  0.00     0.026 A 
HETATM   11  N   UNL     1      42.807 -15.230   1.006  1.00  0.00    -0.265 NA
HETATM   12  C   UNL     1      42.222 -17.999   3.431  1.00  0.00     0.019 A 
HETATM   13  C   UNL     1      42.957 -19.026   2.841  1.00  0.00     0.001 A 
HETATM   14  C   UNL     1      43.652 -18.787   1.655  1.00  0.00     0.002 A 
HETATM   15  C   UNL     1      43.600 -17.528   1.046  1.00  0.00     0.024 A 
HETATM   16  C   UNL     1      40.390 -14.860   0.567  1.00  0.00     0.068 C 
HETATM   17  C   UNL     1      40.483 -14.628  -0.932  1.00  0.00     0.130 C 
HETATM   18  O   UNL     1      41.362 -12.013  -3.114  1.00  0.00    -0.266 OA
HETATM   19  H   UNL     1      40.881 -13.732   3.182  1.00  0.00     0.164 HD
HETATM   20  H   UNL     1      43.081 -15.252   0.029  1.00  0.00     0.130 HD
ENDROOT
BRANCH   1  21
HETATM   21  C   UNL     1      39.279 -13.064  -3.124  1.00  0.00     0.119 A 
HETATM   22  N   UNL     1      38.850 -14.330  -3.403  1.00  0.00    -0.273 N 
HETATM   23  N   UNL     1      37.643 -14.385  -3.980  1.00  0.00    -0.178 NA
HETATM   24  H   UNL     1      39.346 -15.200  -3.240  1.00  0.00     0.189 HD
HETATM   25  C   UNL     1      37.222 -13.111  -3.994  1.00  0.00     0.064 A 
HETATM   26  C   UNL     1      38.207 -12.254  -3.438  1.00  0.00     0.066 A 
BRANCH  25  27
HETATM   27  C   UNL     1      35.852 -12.766  -4.555  1.00  0.00    -0.005 C 
HETATM   28  C   UNL     1      35.037 -14.054  -4.785  1.00  0.00     0.021 C 
HETATM   29  C   UNL     1      35.999 -12.018  -5.897  1.00  0.00     0.021 C 
HETATM   30  C   UNL     1      35.052 -11.860  -3.596  1.00  0.00     0.021 C 
ENDBRANCH  25  27
ENDBRANCH   1  21
TORSDOF 2
ENDMDL
