MODEL 1
REMARK VINA RESULT:      -9.5      0.000      0.000
REMARK  7 active torsions:
REMARK  status: ('A' for Active; 'I' for Inactive)
REMARK    1  A    between atoms: C_2  and  C_3 
REMARK    2  A    between atoms: C_4  and  N_5 
REMARK       I    between atoms: N_5  and  C_6 
REMARK    3  A    between atoms: C_6  and  C_7 
REMARK    4  A    between atoms: C_8  and  N_9 
REMARK       I    between atoms: N_9  and  C_10 
REMARK    5  A    between atoms: C_10  and  C_11 
REMARK    6  A    between atoms: C_11  and  N_12 
REMARK    7  A    between atoms: C_25  and  C_26 
ROOT
HETATM    1  C   UNL     1      42.940 -15.707   5.644  1.00  0.00     0.073 A 
HETATM    2  C   UNL     1      43.117 -14.542   6.371  1.00  0.00     0.093 A 
HETATM    3  S   UNL     1      42.297 -13.201   5.734  1.00  0.00    -0.075 SA
HETATM    4  C   UNL     1      41.598 -14.147   4.509  1.00  0.00    -0.008 A 
HETATM    5  C   UNL     1      42.021 -15.463   4.544  1.00  0.00    -0.026 A 
HETATM    6  C   UNL     1      41.589 -16.427   3.476  1.00  0.00     0.041 C 
HETATM    7  C   UNL     1      41.108 -15.700   2.207  1.00  0.00     0.010 C 
HETATM    8  C   UNL     1      40.077 -14.585   2.530  1.00  0.00    -0.002 C 
HETATM    9  C   UNL     1      40.716 -13.523   3.466  1.00  0.00     0.052 C 
ENDROOT
BRANCH   1  10
HETATM   10  C   UNL     1      43.713 -16.935   5.897  1.00  0.00     0.259 C 
HETATM   11  N   UNL     1      43.181 -18.058   5.295  1.00  0.00    -0.322 N 
HETATM   12  H   UNL     1      42.258 -17.940   4.902  1.00  0.00     0.169 HD
HETATM   13  O   UNL     1      44.714 -16.901   6.610  1.00  0.00    -0.267 OA
BRANCH  11  14
HETATM   14  C   UNL     1      43.725 -19.364   5.249  1.00  0.00     0.041 A 
HETATM   15  C   UNL     1      44.240 -19.858   4.028  1.00  0.00    -0.032 A 
HETATM   16  C   UNL     1      44.771 -21.163   3.983  1.00  0.00     0.009 A 
HETATM   17  C   UNL     1      44.820 -21.959   5.124  1.00  0.00     0.001 A 
HETATM   18  C   UNL     1      44.341 -21.464   6.328  1.00  0.00     0.002 A 
HETATM   19  C   UNL     1      43.800 -20.177   6.389  1.00  0.00     0.030 A 
BRANCH  15  20
HETATM   20  C   UNL     1      44.237 -19.070   2.735  1.00  0.00     0.036 C 
HETATM   21  C   UNL     1      43.045 -19.415   1.855  1.00  0.00     0.010 C 
ENDBRANCH  15  20
ENDBRANCH  11  14
ENDBRANCH   1  10
BRANCH   2  22
HETATM   22  N   UNL     1      43.868 -14.214   7.477  1.00  0.00    -0.319 N 
HETATM   23  C   UNL     1      45.039 -13.497   7.379  1.00  0.00     0.248 C 
HETATM   24  O   UNL     1      45.765 -13.420   6.387  1.00  0.00    -0.271 OA
HETATM   25  H   UNL     1      43.628 -14.704   8.332  1.00  0.00     0.169 HD
BRANCH  23  26
HETATM   26  C   UNL     1      45.435 -12.781   8.667  1.00  0.00     0.337 C 
BRANCH  26  27
HETATM   27  N   UNL     1      44.213 -12.363   9.478  1.00  0.00    -0.059 N 
HETATM   28  H   UNL     1      43.563 -13.164   9.418  1.00  0.00     0.280 HD
HETATM   29  C   UNL     1      44.525 -12.207  10.969  1.00  0.00     0.261 C 
HETATM   30  C   UNL     1      43.249 -11.796  11.712  1.00  0.00     0.195 C 
HETATM   31  O   UNL     1      42.698 -10.592  11.161  1.00  0.00    -0.388 OA
HETATM   32  C   UNL     1      42.329 -10.762   9.788  1.00  0.00     0.195 C 
HETATM   33  C   UNL     1      43.549 -11.117   8.934  1.00  0.00     0.261 C 
ENDBRANCH  26  27
ENDBRANCH  23  26
ENDBRANCH   2  22
BRANCH   8  34
HETATM   34  C   UNL     1      39.408 -13.951   1.251  1.00  0.00    -0.047 C 
HETATM   35  C   UNL     1      39.495 -12.411   1.314  1.00  0.00     0.015 C 
HETATM   36  C   UNL     1      40.152 -14.399  -0.026  1.00  0.00     0.015 C 
HETATM   37  C   UNL     1      37.924 -14.340   1.104  1.00  0.00     0.015 C 
ENDBRANCH   8  34
TORSDOF 7
ENDMDL
MODEL 2
REMARK VINA RESULT:      -8.9      2.311      3.483
REMARK  7 active torsions:
REMARK  status: ('A' for Active; 'I' for Inactive)
REMARK    1  A    between atoms: C_2  and  C_3 
REMARK    2  A    between atoms: C_4  and  N_5 
REMARK       I    between atoms: N_5  and  C_6 
REMARK    3  A    between atoms: C_6  and  C_7 
REMARK    4  A    between atoms: C_8  and  N_9 
REMARK       I    between atoms: N_9  and  C_10 
REMARK    5  A    between atoms: C_10  and  C_11 
REMARK    6  A    between atoms: C_11  and  N_12 
REMARK    7  A    between atoms: C_25  and  C_26 
ROOT
HETATM    1  C   UNL     1      42.567 -15.336   1.874  1.00  0.00     0.073 A 
HETATM    2  C   UNL     1      42.559 -14.219   2.692  1.00  0.00     0.093 A 
HETATM    3  S   UNL     1      41.589 -12.951   2.118  1.00  0.00    -0.075 SA
HETATM    4  C   UNL     1      41.068 -13.882   0.796  1.00  0.00    -0.008 A 
HETATM    5  C   UNL     1      41.662 -15.129   0.754  1.00  0.00    -0.026 A 
HETATM    6  C   UNL     1      41.403 -16.055  -0.400  1.00  0.00     0.041 C 
HETATM    7  C   UNL     1      40.873 -15.300  -1.633  1.00  0.00     0.010 C 
HETATM    8  C   UNL     1      39.690 -14.359  -1.276  1.00  0.00    -0.002 C 
HETATM    9  C   UNL     1      40.147 -13.300  -0.236  1.00  0.00     0.052 C 
ENDROOT
BRANCH   1  10
HETATM   10  C   UNL     1      43.489 -16.467   2.070  1.00  0.00     0.259 C 
HETATM   11  N   UNL     1      42.968 -17.476   2.857  1.00  0.00    -0.322 N 
HETATM   12  H   UNL     1      42.105 -17.251   3.330  1.00  0.00     0.169 HD
HETATM   13  O   UNL     1      44.615 -16.442   1.577  1.00  0.00    -0.267 OA
BRANCH  11  14
HETATM   14  C   UNL     1      43.542 -18.735   3.153  1.00  0.00     0.041 A 
HETATM   15  C   UNL     1      43.986 -19.003   4.468  1.00  0.00    -0.032 A 
HETATM   16  C   UNL     1      44.568 -20.254   4.757  1.00  0.00     0.009 A 
HETATM   17  C   UNL     1      44.687 -21.235   3.776  1.00  0.00     0.001 A 
HETATM   18  C   UNL     1      44.227 -20.983   2.492  1.00  0.00     0.002 A 
HETATM   19  C   UNL     1      43.658 -19.743   2.185  1.00  0.00     0.030 A 
BRANCH  15  20
HETATM   20  C   UNL     1      43.895 -18.006   5.605  1.00  0.00     0.036 C 
HETATM   21  C   UNL     1      45.166 -17.975   6.442  1.00  0.00     0.010 C 
ENDBRANCH  15  20
ENDBRANCH  11  14
ENDBRANCH   1  10
BRANCH   2  22
HETATM   22  N   UNL     1      43.220 -13.882   3.852  1.00  0.00    -0.319 N 
HETATM   23  C   UNL     1      42.856 -14.394   5.076  1.00  0.00     0.248 C 
HETATM   24  O   UNL     1      41.745 -14.829   5.382  1.00  0.00    -0.271 OA
HETATM   25  H   UNL     1      43.844 -13.086   3.786  1.00  0.00     0.169 HD
BRANCH  23  26
HETATM   26  C   UNL     1      43.970 -14.358   6.117  1.00  0.00     0.337 C 
BRANCH  26  27
HETATM   27  N   UNL     1      43.630 -13.426   7.276  1.00  0.00    -0.059 N 
HETATM   28  H   UNL     1      43.035 -13.987   7.907  1.00  0.00     0.280 HD
HETATM   29  C   UNL     1      44.860 -13.051   8.106  1.00  0.00     0.261 C 
HETATM   30  C   UNL     1      44.434 -12.123   9.250  1.00  0.00     0.195 C 
HETATM   31  O   UNL     1      43.764 -10.960   8.747  1.00  0.00    -0.388 OA
HETATM   32  C   UNL     1      42.569 -11.305   8.039  1.00  0.00     0.195 C 
HETATM   33  C   UNL     1      42.884 -12.187   6.829  1.00  0.00     0.261 C 
ENDBRANCH  26  27
ENDBRANCH  23  26
ENDBRANCH   2  22
BRANCH   8  34
HETATM   34  C   UNL     1      38.987 -13.721  -2.534  1.00  0.00    -0.047 C 
HETATM   35  C   UNL     1      38.034 -12.589  -2.093  1.00  0.00     0.015 C 
HETATM   36  C   UNL     1      40.036 -13.093  -3.479  1.00  0.00     0.015 C 
HETATM   37  C   UNL     1      38.168 -14.748  -3.340  1.00  0.00     0.015 C 
ENDBRANCH   8  34
TORSDOF 7
ENDMDL
MODEL 3
REMARK VINA RESULT:      -8.8      4.258      9.750
REMARK  7 active torsions:
REMARK  status: ('A' for Active; 'I' for Inactive)
REMARK    1  A    between atoms: C_2  and  C_3 
REMARK    2  A    between atoms: C_4  and  N_5 
REMARK       I    between atoms: N_5  and  C_6 
REMARK    3  A    between atoms: C_6  and  C_7 
REMARK    4  A    between atoms: C_8  and  N_9 
REMARK       I    between atoms: N_9  and  C_10 
REMARK    5  A    between atoms: C_10  and  C_11 
REMARK    6  A    between atoms: C_11  and  N_12 
REMARK    7  A    between atoms: C_25  and  C_26 
ROOT
HETATM    1  C   UNL     1      40.784 -16.156   2.021  1.00  0.00     0.073 A 
HETATM    2  C   UNL     1      41.350 -16.372   0.776  1.00  0.00     0.093 A 
HETATM    3  S   UNL     1      42.703 -17.394   0.803  1.00  0.00    -0.075 SA
HETATM    4  C   UNL     1      42.530 -17.663   2.470  1.00  0.00    -0.008 A 
HETATM    5  C   UNL     1      41.487 -16.943   3.022  1.00  0.00    -0.026 A 
HETATM    6  C   UNL     1      41.244 -16.972   4.504  1.00  0.00     0.041 C 
HETATM    7  C   UNL     1      42.492 -17.432   5.280  1.00  0.00     0.010 C 
HETATM    8  C   UNL     1      43.094 -18.738   4.695  1.00  0.00    -0.002 C 
HETATM    9  C   UNL     1      43.517 -18.513   3.217  1.00  0.00     0.052 C 
ENDROOT
BRANCH   1  10
HETATM   10  C   UNL     1      39.733 -15.152   2.261  1.00  0.00     0.259 C 
HETATM   11  N   UNL     1      40.203 -13.983   2.825  1.00  0.00    -0.322 N 
HETATM   12  H   UNL     1      41.158 -14.016   3.153  1.00  0.00     0.169 HD
HETATM   13  O   UNL     1      38.561 -15.405   1.988  1.00  0.00    -0.267 OA
BRANCH  11  14
HETATM   14  C   UNL     1      39.486 -12.790   3.084  1.00  0.00     0.041 A 
HETATM   15  C   UNL     1      39.363 -12.330   4.416  1.00  0.00    -0.032 A 
HETATM   16  C   UNL     1      38.639 -11.148   4.671  1.00  0.00     0.009 A 
HETATM   17  C   UNL     1      38.066 -10.417   3.634  1.00  0.00     0.001 A 
HETATM   18  C   UNL     1      38.210 -10.853   2.325  1.00  0.00     0.002 A 
HETATM   19  C   UNL     1      38.915 -12.029   2.054  1.00  0.00     0.030 A 
BRANCH  15  20
HETATM   20  C   UNL     1      39.953 -13.050   5.611  1.00  0.00     0.036 C 
HETATM   21  C   UNL     1      41.394 -12.637   5.874  1.00  0.00     0.010 C 
ENDBRANCH  15  20
ENDBRANCH  11  14
ENDBRANCH   1  10
BRANCH   2  22
HETATM   22  N   UNL     1      41.091 -15.886  -0.486  1.00  0.00    -0.319 N 
HETATM   23  C   UNL     1      41.385 -14.590  -0.845  1.00  0.00     0.248 C 
HETATM   24  O   UNL     1      41.498 -13.630  -0.082  1.00  0.00    -0.271 OA
HETATM   25  H   UNL     1      40.487 -16.461  -1.062  1.00  0.00     0.169 HD
BRANCH  23  26
HETATM   26  C   UNL     1      41.541 -14.386  -2.349  1.00  0.00     0.337 C 
BRANCH  26  27
HETATM   27  N   UNL     1      40.200 -14.472  -3.072  1.00  0.00    -0.059 N 
HETATM   28  H   UNL     1      40.327 -13.927  -3.940  1.00  0.00     0.280 HD
HETATM   29  C   UNL     1      39.873 -15.894  -3.532  1.00  0.00     0.261 C 
HETATM   30  C   UNL     1      38.520 -15.893  -4.254  1.00  0.00     0.195 C 
HETATM   31  O   UNL     1      37.488 -15.362  -3.412  1.00  0.00    -0.388 OA
HETATM   32  C   UNL     1      37.753 -14.003  -3.048  1.00  0.00     0.195 C 
HETATM   33  C   UNL     1      39.061 -13.893  -2.261  1.00  0.00     0.261 C 
ENDBRANCH  26  27
ENDBRANCH  23  26
ENDBRANCH   2  22
BRANCH   8  34
HETATM   34  C   UNL     1      44.248 -19.353   5.575  1.00  0.00    -0.047 C 
HETATM   35  C   UNL     1      45.149 -20.262   4.712  1.00  0.00     0.015 C 
HETATM   36  C   UNL     1      45.145 -18.234   6.150  1.00  0.00     0.015 C 
HETATM   37  C   UNL     1      43.712 -20.191   6.752  1.00  0.00     0.015 C 
ENDBRANCH   8  34
TORSDOF 7
ENDMDL
MODEL 4
REMARK VINA RESULT:      -8.8      3.186      7.724
REMARK  7 active torsions:
REMARK  status: ('A' for Active; 'I' for Inactive)
REMARK    1  A    between atoms: C_2  and  C_3 
REMARK    2  A    between atoms: C_4  and  N_5 
REMARK       I    between atoms: N_5  and  C_6 
REMARK    3  A    between atoms: C_6  and  C_7 
REMARK    4  A    between atoms: C_8  and  N_9 
REMARK       I    between atoms: N_9  and  C_10 
REMARK    5  A    between atoms: C_10  and  C_11 
REMARK    6  A    between atoms: C_11  and  N_12 
REMARK    7  A    between atoms: C_25  and  C_26 
ROOT
HETATM    1  C   UNL     1      42.225 -15.425   4.442  1.00  0.00     0.073 A 
HETATM    2  C   UNL     1      41.395 -14.496   3.837  1.00  0.00     0.093 A 
HETATM    3  S   UNL     1      41.443 -12.960   4.555  1.00  0.00    -0.075 SA
HETATM    4  C   UNL     1      42.645 -13.452   5.647  1.00  0.00    -0.008 A 
HETATM    5  C   UNL     1      42.977 -14.787   5.512  1.00  0.00    -0.026 A 
HETATM    6  C   UNL     1      43.949 -15.428   6.460  1.00  0.00     0.041 C 
HETATM    7  C   UNL     1      44.092 -14.623   7.765  1.00  0.00     0.010 C 
HETATM    8  C   UNL     1      44.347 -13.115   7.495  1.00  0.00    -0.002 C 
HETATM    9  C   UNL     1      43.160 -12.509   6.697  1.00  0.00     0.052 C 
ENDROOT
BRANCH   1  10
HETATM   10  C   UNL     1      42.195 -16.860   4.116  1.00  0.00     0.259 C 
HETATM   11  N   UNL     1      43.389 -17.340   3.616  1.00  0.00    -0.322 N 
HETATM   12  H   UNL     1      44.073 -16.635   3.382  1.00  0.00     0.169 HD
HETATM   13  O   UNL     1      41.161 -17.509   4.270  1.00  0.00    -0.267 OA
BRANCH  11  14
HETATM   14  C   UNL     1      43.729 -18.679   3.305  1.00  0.00     0.041 A 
HETATM   15  C   UNL     1      44.446 -19.449   4.250  1.00  0.00    -0.032 A 
HETATM   16  C   UNL     1      44.792 -20.778   3.932  1.00  0.00     0.009 A 
HETATM   17  C   UNL     1      44.419 -21.349   2.718  1.00  0.00     0.001 A 
HETATM   18  C   UNL     1      43.693 -20.602   1.803  1.00  0.00     0.002 A 
HETATM   19  C   UNL     1      43.350 -19.279   2.096  1.00  0.00     0.030 A 
BRANCH  15  20
HETATM   20  C   UNL     1      44.892 -18.924   5.598  1.00  0.00     0.036 C 
HETATM   21  C   UNL     1      43.897 -19.255   6.700  1.00  0.00     0.010 C 
ENDBRANCH  15  20
ENDBRANCH  11  14
ENDBRANCH   1  10
BRANCH   2  22
HETATM   22  N   UNL     1      40.484 -14.561   2.807  1.00  0.00    -0.319 N 
HETATM   23  C   UNL     1      40.843 -14.338   1.498  1.00  0.00     0.248 C 
HETATM   24  O   UNL     1      41.812 -13.685   1.109  1.00  0.00    -0.271 OA
HETATM   25  H   UNL     1      39.509 -14.571   3.085  1.00  0.00     0.169 HD
BRANCH  23  26
HETATM   26  C   UNL     1      39.889 -14.957   0.481  1.00  0.00     0.337 C 
BRANCH  26  27
HETATM   27  N   UNL     1      40.271 -14.589  -0.948  1.00  0.00    -0.059 N 
HETATM   28  H   UNL     1      40.979 -13.841  -0.854  1.00  0.00     0.280 HD
HETATM   29  C   UNL     1      40.984 -15.730  -1.677  1.00  0.00     0.261 C 
HETATM   30  C   UNL     1      41.341 -15.278  -3.098  1.00  0.00     0.195 C 
HETATM   31  O   UNL     1      40.173 -14.848  -3.810  1.00  0.00    -0.388 OA
HETATM   32  C   UNL     1      39.552 -13.726  -3.173  1.00  0.00     0.195 C 
HETATM   33  C   UNL     1      39.095 -14.085  -1.757  1.00  0.00     0.261 C 
ENDBRANCH  26  27
ENDBRANCH  23  26
ENDBRANCH   2  22
BRANCH   8  34
HETATM   34  C   UNL     1      44.698 -12.291   8.792  1.00  0.00    -0.047 C 
HETATM   35  C   UNL     1      43.686 -11.140   8.980  1.00  0.00     0.015 C 
HETATM   36  C   UNL     1      44.607 -13.189  10.045  1.00  0.00     0.015 C 
HETATM   37  C   UNL     1      46.112 -11.679   8.740  1.00  0.00     0.015 C 
ENDBRANCH   8  34
TORSDOF 7
ENDMDL
MODEL 5
REMARK VINA RESULT:      -8.8      2.980      4.226
REMARK  7 active torsions:
REMARK  status: ('A' for Active; 'I' for Inactive)
REMARK    1  A    between atoms: C_2  and  C_3 
REMARK    2  A    between atoms: C_4  and  N_5 
REMARK       I    between atoms: N_5  and  C_6 
REMARK    3  A    between atoms: C_6  and  C_7 
REMARK    4  A    between atoms: C_8  and  N_9 
REMARK       I    between atoms: N_9  and  C_10 
REMARK    5  A    between atoms: C_10  and  C_11 
REMARK    6  A    between atoms: C_11  and  N_12 
REMARK    7  A    between atoms: C_25  and  C_26 
ROOT
HETATM    1  C   UNL     1      41.955 -15.878   1.724  1.00  0.00     0.073 A 
HETATM    2  C   UNL     1      41.644 -14.986   2.737  1.00  0.00     0.093 A 
HETATM    3  S   UNL     1      40.594 -13.742   2.261  1.00  0.00    -0.075 SA
HETATM    4  C   UNL     1      40.442 -14.398   0.702  1.00  0.00    -0.008 A 
HETATM    5  C   UNL     1      41.221 -15.526   0.519  1.00  0.00    -0.026 A 
HETATM    6  C   UNL     1      41.296 -16.186  -0.828  1.00  0.00     0.041 C 
HETATM    7  C   UNL     1      40.861 -15.234  -1.958  1.00  0.00     0.010 C 
HETATM    8  C   UNL     1      39.505 -14.543  -1.648  1.00  0.00    -0.002 C 
HETATM    9  C   UNL     1      39.621 -13.704  -0.345  1.00  0.00     0.052 C 
ENDROOT
BRANCH   1  10
HETATM   10  C   UNL     1      42.996 -16.910   1.857  1.00  0.00     0.259 C 
HETATM   11  N   UNL     1      42.563 -18.054   2.498  1.00  0.00    -0.322 N 
HETATM   12  H   UNL     1      41.657 -17.985   2.938  1.00  0.00     0.169 HD
HETATM   13  O   UNL     1      44.134 -16.700   1.439  1.00  0.00    -0.267 OA
BRANCH  11  14
HETATM   14  C   UNL     1      43.271 -19.265   2.694  1.00  0.00     0.041 A 
HETATM   15  C   UNL     1      44.084 -19.414   3.841  1.00  0.00    -0.032 A 
HETATM   16  C   UNL     1      44.795 -20.617   4.028  1.00  0.00     0.009 A 
HETATM   17  C   UNL     1      44.690 -21.664   3.116  1.00  0.00     0.001 A 
HETATM   18  C   UNL     1      43.871 -21.527   2.005  1.00  0.00     0.002 A 
HETATM   19  C   UNL     1      43.167 -20.338   1.798  1.00  0.00     0.030 A 
BRANCH  15  20
HETATM   20  C   UNL     1      44.260 -18.339   4.892  1.00  0.00     0.036 C 
HETATM   21  C   UNL     1      44.495 -18.924   6.277  1.00  0.00     0.010 C 
ENDBRANCH  15  20
ENDBRANCH  11  14
ENDBRANCH   1  10
BRANCH   2  22
HETATM   22  N   UNL     1      42.050 -14.851   4.045  1.00  0.00    -0.319 N 
HETATM   23  C   UNL     1      42.979 -13.911   4.429  1.00  0.00     0.248 C 
HETATM   24  O   UNL     1      43.834 -13.395   3.708  1.00  0.00    -0.271 OA
HETATM   25  H   UNL     1      41.792 -15.610   4.666  1.00  0.00     0.169 HD
BRANCH  23  26
HETATM   26  C   UNL     1      42.910 -13.541   5.908  1.00  0.00     0.337 C 
BRANCH  26  27
HETATM   27  N   UNL     1      41.672 -12.708   6.224  1.00  0.00    -0.059 N 
HETATM   28  H   UNL     1      41.844 -12.316   7.164  1.00  0.00     0.280 HD
HETATM   29  C   UNL     1      41.531 -11.496   5.300  1.00  0.00     0.261 C 
HETATM   30  C   UNL     1      40.273 -10.709   5.687  1.00  0.00     0.195 C 
HETATM   31  O   UNL     1      39.109 -11.545   5.641  1.00  0.00    -0.388 OA
HETATM   32  C   UNL     1      39.205 -12.634   6.564  1.00  0.00     0.195 C 
HETATM   33  C   UNL     1      40.401 -13.530   6.232  1.00  0.00     0.261 C 
ENDBRANCH  26  27
ENDBRANCH  23  26
ENDBRANCH   2  22
BRANCH   8  34
HETATM   34  C   UNL     1      38.924 -13.718  -2.859  1.00  0.00    -0.047 C 
HETATM   35  C   UNL     1      40.071 -13.041  -3.639  1.00  0.00     0.015 C 
HETATM   36  C   UNL     1      38.188 -14.651  -3.846  1.00  0.00     0.015 C 
HETATM   37  C   UNL     1      37.939 -12.621  -2.410  1.00  0.00     0.015 C 
ENDBRANCH   8  34
TORSDOF 7
ENDMDL
MODEL 6
REMARK VINA RESULT:      -8.6      2.422      3.657
REMARK  7 active torsions:
REMARK  status: ('A' for Active; 'I' for Inactive)
REMARK    1  A    between atoms: C_2  and  C_3 
REMARK    2  A    between atoms: C_4  and  N_5 
REMARK       I    between atoms: N_5  and  C_6 
REMARK    3  A    between atoms: C_6  and  C_7 
REMARK    4  A    between atoms: C_8  and  N_9 
REMARK       I    between atoms: N_9  and  C_10 
REMARK    5  A    between atoms: C_10  and  C_11 
REMARK    6  A    between atoms: C_11  and  N_12 
REMARK    7  A    between atoms: C_25  and  C_26 
ROOT
HETATM    1  C   UNL     1      40.457 -14.698   3.614  1.00  0.00     0.073 A 
HETATM    2  C   UNL     1      39.851 -13.505   3.970  1.00  0.00     0.093 A 
HETATM    3  S   UNL     1      39.408 -12.535   2.651  1.00  0.00    -0.075 SA
HETATM    4  C   UNL     1      39.927 -13.716   1.546  1.00  0.00    -0.008 A 
HETATM    5  C   UNL     1      40.483 -14.820   2.164  1.00  0.00    -0.026 A 
HETATM    6  C   UNL     1      41.091 -15.922   1.346  1.00  0.00     0.041 C 
HETATM    7  C   UNL     1      41.441 -15.453  -0.078  1.00  0.00     0.010 C 
HETATM    8  C   UNL     1      40.254 -14.719  -0.758  1.00  0.00    -0.002 C 
HETATM    9  C   UNL     1      39.861 -13.463   0.067  1.00  0.00     0.052 C 
ENDROOT
BRANCH   1  10
HETATM   10  C   UNL     1      41.099 -15.595   4.589  1.00  0.00     0.259 C 
HETATM   11  N   UNL     1      42.341 -16.047   4.192  1.00  0.00    -0.322 N 
HETATM   12  H   UNL     1      42.585 -15.850   3.232  1.00  0.00     0.169 HD
HETATM   13  O   UNL     1      40.516 -15.896   5.630  1.00  0.00    -0.267 OA
BRANCH  11  14
HETATM   14  C   UNL     1      43.262 -16.828   4.931  1.00  0.00     0.041 A 
HETATM   15  C   UNL     1      43.632 -18.105   4.448  1.00  0.00    -0.032 A 
HETATM   16  C   UNL     1      44.540 -18.885   5.192  1.00  0.00     0.009 A 
HETATM   17  C   UNL     1      45.096 -18.409   6.377  1.00  0.00     0.001 A 
HETATM   18  C   UNL     1      44.754 -17.145   6.836  1.00  0.00     0.002 A 
HETATM   19  C   UNL     1      43.846 -16.362   6.118  1.00  0.00     0.030 A 
BRANCH  15  20
HETATM   20  C   UNL     1      43.089 -18.709   3.170  1.00  0.00     0.036 C 
HETATM   21  C   UNL     1      43.954 -18.374   1.965  1.00  0.00     0.010 C 
ENDBRANCH  15  20
ENDBRANCH  11  14
ENDBRANCH   1  10
BRANCH   2  22
HETATM   22  N   UNL     1      39.581 -12.897   5.176  1.00  0.00    -0.319 N 
HETATM   23  C   UNL     1      40.528 -12.166   5.856  1.00  0.00     0.248 C 
HETATM   24  O   UNL     1      41.750 -12.282   5.752  1.00  0.00    -0.271 OA
HETATM   25  H   UNL     1      38.724 -13.190   5.632  1.00  0.00     0.169 HD
BRANCH  23  26
HETATM   26  C   UNL     1      39.942 -11.157   6.838  1.00  0.00     0.337 C 
BRANCH  26  27
HETATM   27  N   UNL     1      40.609 -11.250   8.207  1.00  0.00    -0.059 N 
HETATM   28  H   UNL     1      41.004 -12.204   8.250  1.00  0.00     0.280 HD
HETATM   29  C   UNL     1      41.809 -10.309   8.339  1.00  0.00     0.261 C 
HETATM   30  C   UNL     1      42.426 -10.469   9.734  1.00  0.00     0.195 C 
HETATM   31  O   UNL     1      41.452 -10.227  10.758  1.00  0.00    -0.388 OA
HETATM   32  C   UNL     1      40.368 -11.159  10.685  1.00  0.00     0.195 C 
HETATM   33  C   UNL     1      39.635 -11.043   9.347  1.00  0.00     0.261 C 
ENDBRANCH  26  27
ENDBRANCH  23  26
ENDBRANCH   2  22
BRANCH   8  34
HETATM   34  C   UNL     1      40.497 -14.400  -2.282  1.00  0.00    -0.047 C 
HETATM   35  C   UNL     1      40.641 -15.712  -3.084  1.00  0.00     0.015 C 
HETATM   36  C   UNL     1      39.293 -13.634  -2.873  1.00  0.00     0.015 C 
HETATM   37  C   UNL     1      41.765 -13.556  -2.516  1.00  0.00     0.015 C 
ENDBRANCH   8  34
TORSDOF 7
ENDMDL
MODEL 7
REMARK VINA RESULT:      -8.5      4.315      9.767
REMARK  7 active torsions:
REMARK  status: ('A' for Active; 'I' for Inactive)
REMARK    1  A    between atoms: C_2  and  C_3 
REMARK    2  A    between atoms: C_4  and  N_5 
REMARK       I    between atoms: N_5  and  C_6 
REMARK    3  A    between atoms: C_6  and  C_7 
REMARK    4  A    between atoms: C_8  and  N_9 
REMARK       I    between atoms: N_9  and  C_10 
REMARK    5  A    between atoms: C_10  and  C_11 
REMARK    6  A    between atoms: C_11  and  N_12 
REMARK    7  A    between atoms: C_25  and  C_26 
ROOT
HETATM    1  C   UNL     1      40.940 -15.669   2.626  1.00  0.00     0.073 A 
HETATM    2  C   UNL     1      40.980 -16.279   1.384  1.00  0.00     0.093 A 
HETATM    3  S   UNL     1      41.910 -17.697   1.342  1.00  0.00    -0.075 SA
HETATM    4  C   UNL     1      42.223 -17.601   3.008  1.00  0.00    -0.008 A 
HETATM    5  C   UNL     1      41.673 -16.474   3.591  1.00  0.00    -0.026 A 
HETATM    6  C   UNL     1      41.931 -16.165   5.037  1.00  0.00     0.041 C 
HETATM    7  C   UNL     1      43.175 -16.901   5.568  1.00  0.00     0.010 C 
HETATM    8  C   UNL     1      43.148 -18.415   5.222  1.00  0.00    -0.002 C 
HETATM    9  C   UNL     1      43.109 -18.609   3.681  1.00  0.00     0.052 C 
ENDROOT
BRANCH   1  10
HETATM   10  C   UNL     1      40.364 -14.332   2.845  1.00  0.00     0.259 C 
HETATM   11  N   UNL     1      41.296 -13.313   2.801  1.00  0.00    -0.322 N 
HETATM   12  H   UNL     1      42.260 -13.612   2.793  1.00  0.00     0.169 HD
HETATM   13  O   UNL     1      39.162 -14.204   3.068  1.00  0.00    -0.267 OA
BRANCH  11  14
HETATM   14  C   UNL     1      41.066 -11.918   2.866  1.00  0.00     0.041 A 
HETATM   15  C   UNL     1      41.115 -11.265   4.119  1.00  0.00    -0.032 A 
HETATM   16  C   UNL     1      40.875  -9.877   4.181  1.00  0.00     0.009 A 
HETATM   17  C   UNL     1      40.616  -9.139   3.028  1.00  0.00     0.001 A 
HETATM   18  C   UNL     1      40.595  -9.776   1.796  1.00  0.00     0.002 A 
HETATM   19  C   UNL     1      40.820 -11.153   1.717  1.00  0.00     0.030 A 
BRANCH  15  20
HETATM   20  C   UNL     1      41.393 -11.975   5.427  1.00  0.00     0.036 C 
HETATM   21  C   UNL     1      40.115 -12.440   6.109  1.00  0.00     0.010 C 
ENDBRANCH  15  20
ENDBRANCH  11  14
ENDBRANCH   1  10
BRANCH   2  22
HETATM   22  N   UNL     1      40.474 -15.953   0.145  1.00  0.00    -0.319 N 
HETATM   23  C   UNL     1      41.093 -15.044  -0.681  1.00  0.00     0.248 C 
HETATM   24  O   UNL     1      41.856 -14.142  -0.331  1.00  0.00    -0.271 OA
HETATM   25  H   UNL     1      39.522 -16.254  -0.033  1.00  0.00     0.169 HD
BRANCH  23  26
HETATM   26  C   UNL     1      40.731 -15.201  -2.155  1.00  0.00     0.337 C 
BRANCH  26  27
HETATM   27  N   UNL     1      39.286 -14.794  -2.427  1.00  0.00    -0.059 N 
HETATM   28  H   UNL     1      38.753 -15.130  -1.608  1.00  0.00     0.280 HD
HETATM   29  C   UNL     1      39.097 -13.275  -2.438  1.00  0.00     0.261 C 
HETATM   30  C   UNL     1      37.623 -12.952  -2.709  1.00  0.00     0.195 C 
HETATM   31  O   UNL     1      37.183 -13.546  -3.937  1.00  0.00    -0.388 OA
HETATM   32  C   UNL     1      37.282 -14.973  -3.897  1.00  0.00     0.195 C 
HETATM   33  C   UNL     1      38.733 -15.415  -3.692  1.00  0.00     0.261 C 
ENDBRANCH  26  27
ENDBRANCH  23  26
ENDBRANCH   2  22
BRANCH   8  34
HETATM   34  C   UNL     1      44.296 -19.243   5.915  1.00  0.00    -0.047 C 
HETATM   35  C   UNL     1      45.293 -18.291   6.611  1.00  0.00     0.015 C 
HETATM   36  C   UNL     1      43.713 -20.170   7.004  1.00  0.00     0.015 C 
HETATM   37  C   UNL     1      45.085 -20.112   4.916  1.00  0.00     0.015 C 
ENDBRANCH   8  34
TORSDOF 7
ENDMDL
MODEL 8
REMARK VINA RESULT:      -8.5      3.072      4.111
REMARK  7 active torsions:
REMARK  status: ('A' for Active; 'I' for Inactive)
REMARK    1  A    between atoms: C_2  and  C_3 
REMARK    2  A    between atoms: C_4  and  N_5 
REMARK       I    between atoms: N_5  and  C_6 
REMARK    3  A    between atoms: C_6  and  C_7 
REMARK    4  A    between atoms: C_8  and  N_9 
REMARK       I    between atoms: N_9  and  C_10 
REMARK    5  A    between atoms: C_10  and  C_11 
REMARK    6  A    between atoms: C_11  and  N_12 
REMARK    7  A    between atoms: C_25  and  C_26 
ROOT
HETATM    1  C   UNL     1      40.810 -15.298   2.685  1.00  0.00     0.073 A 
HETATM    2  C   UNL     1      39.854 -14.524   3.321  1.00  0.00     0.093 A 
HETATM    3  S   UNL     1      38.839 -13.674   2.261  1.00  0.00    -0.075 SA
HETATM    4  C   UNL     1      39.581 -14.379   0.906  1.00  0.00    -0.008 A 
HETATM    5  C   UNL     1      40.628 -15.215   1.244  1.00  0.00    -0.026 A 
HETATM    6  C   UNL     1      41.470 -15.848   0.174  1.00  0.00     0.041 C 
HETATM    7  C   UNL     1      41.350 -15.102  -1.167  1.00  0.00     0.010 C 
HETATM    8  C   UNL     1      39.869 -14.856  -1.566  1.00  0.00    -0.002 C 
HETATM    9  C   UNL     1      39.162 -13.995  -0.484  1.00  0.00     0.052 C 
ENDROOT
BRANCH   1  10
HETATM   10  C   UNL     1      41.916 -15.956   3.402  1.00  0.00     0.259 C 
HETATM   11  N   UNL     1      41.742 -17.317   3.556  1.00  0.00    -0.322 N 
HETATM   12  H   UNL     1      40.826 -17.665   3.315  1.00  0.00     0.169 HD
HETATM   13  O   UNL     1      42.862 -15.294   3.823  1.00  0.00    -0.267 OA
BRANCH  11  14
HETATM   14  C   UNL     1      42.653 -18.256   4.098  1.00  0.00     0.041 A 
HETATM   15  C   UNL     1      43.522 -18.958   3.232  1.00  0.00    -0.032 A 
HETATM   16  C   UNL     1      44.420 -19.900   3.773  1.00  0.00     0.009 A 
HETATM   17  C   UNL     1      44.481 -20.130   5.145  1.00  0.00     0.001 A 
HETATM   18  C   UNL     1      43.647 -19.421   5.998  1.00  0.00     0.002 A 
HETATM   19  C   UNL     1      42.742 -18.492   5.477  1.00  0.00     0.030 A 
BRANCH  15  20
HETATM   20  C   UNL     1      43.538 -18.776   1.728  1.00  0.00     0.036 C 
HETATM   21  C   UNL     1      44.350 -17.560   1.307  1.00  0.00     0.010 C 
ENDBRANCH  15  20
ENDBRANCH  11  14
ENDBRANCH   1  10
BRANCH   2  22
HETATM   22  N   UNL     1      39.580 -14.242   4.641  1.00  0.00    -0.319 N 
HETATM   23  C   UNL     1      40.191 -13.206   5.309  1.00  0.00     0.248 C 
HETATM   24  O   UNL     1      41.276 -12.696   5.027  1.00  0.00    -0.271 OA
HETATM   25  H   UNL     1      39.072 -14.959   5.146  1.00  0.00     0.169 HD
BRANCH  23  26
HETATM   26  C   UNL     1      39.413 -12.711   6.525  1.00  0.00     0.337 C 
BRANCH  26  27
HETATM   27  N   UNL     1      39.912 -11.349   6.997  1.00  0.00    -0.059 N 
HETATM   28  H   UNL     1      40.934 -11.369   6.846  1.00  0.00     0.280 HD
HETATM   29  C   UNL     1      39.397 -10.202   6.123  1.00  0.00     0.261 C 
HETATM   30  C   UNL     1      39.949  -8.874   6.657  1.00  0.00     0.195 C 
HETATM   31  O   UNL     1      39.595  -8.687   8.034  1.00  0.00    -0.388 OA
HETATM   32  C   UNL     1      40.146  -9.715   8.863  1.00  0.00     0.195 C 
HETATM   33  C   UNL     1      39.611 -11.090   8.457  1.00  0.00     0.261 C 
ENDBRANCH  26  27
ENDBRANCH  23  26
ENDBRANCH   2  22
BRANCH   8  34
HETATM   34  C   UNL     1      39.695 -14.276  -3.022  1.00  0.00    -0.047 C 
HETATM   35  C   UNL     1      41.056 -13.794  -3.568  1.00  0.00     0.015 C 
HETATM   36  C   UNL     1      39.178 -15.371  -3.981  1.00  0.00     0.015 C 
HETATM   37  C   UNL     1      38.712 -13.090  -3.073  1.00  0.00     0.015 C 
ENDBRANCH   8  34
TORSDOF 7
ENDMDL
MODEL 9
REMARK VINA RESULT:      -8.5      2.662      3.787
REMARK  7 active torsions:
REMARK  status: ('A' for Active; 'I' for Inactive)
REMARK    1  A    between atoms: C_2  and  C_3 
REMARK    2  A    between atoms: C_4  and  N_5 
REMARK       I    between atoms: N_5  and  C_6 
REMARK    3  A    between atoms: C_6  and  C_7 
REMARK    4  A    between atoms: C_8  and  N_9 
REMARK       I    between atoms: N_9  and  C_10 
REMARK    5  A    between atoms: C_10  and  C_11 
REMARK    6  A    between atoms: C_11  and  N_12 
REMARK    7  A    between atoms: C_25  and  C_26 
ROOT
HETATM    1  C   UNL     1      41.734 -13.668   2.644  1.00  0.00     0.073 A 
HETATM    2  C   UNL     1      41.162 -12.501   3.121  1.00  0.00     0.093 A 
HETATM    3  S   UNL     1      40.089 -11.764   2.034  1.00  0.00    -0.075 SA
HETATM    4  C   UNL     1      40.276 -13.028   0.915  1.00  0.00    -0.008 A 
HETATM    5  C   UNL     1      41.186 -13.981   1.333  1.00  0.00    -0.026 A 
HETATM    6  C   UNL     1      41.560 -15.121   0.430  1.00  0.00     0.041 C 
HETATM    7  C   UNL     1      41.231 -14.817  -1.043  1.00  0.00     0.010 C 
HETATM    8  C   UNL     1      39.778 -14.297  -1.221  1.00  0.00    -0.002 C 
HETATM    9  C   UNL     1      39.580 -12.984  -0.414  1.00  0.00     0.052 C 
ENDROOT
BRANCH   1  10
HETATM   10  C   UNL     1      42.837 -14.360   3.331  1.00  0.00     0.259 C 
HETATM   11  N   UNL     1      42.434 -15.469   4.048  1.00  0.00    -0.322 N 
HETATM   12  H   UNL     1      41.435 -15.575   4.153  1.00  0.00     0.169 HD
HETATM   13  O   UNL     1      43.984 -13.924   3.256  1.00  0.00    -0.267 OA
BRANCH  11  14
HETATM   14  C   UNL     1      43.244 -16.409   4.730  1.00  0.00     0.041 A 
HETATM   15  C   UNL     1      43.606 -17.611   4.080  1.00  0.00    -0.032 A 
HETATM   16  C   UNL     1      44.404 -18.550   4.766  1.00  0.00     0.009 A 
HETATM   17  C   UNL     1      44.860 -18.300   6.058  1.00  0.00     0.001 A 
HETATM   18  C   UNL     1      44.527 -17.108   6.685  1.00  0.00     0.002 A 
HETATM   19  C   UNL     1      43.727 -16.171   6.025  1.00  0.00     0.030 A 
BRANCH  15  20
HETATM   20  C   UNL     1      43.168 -17.974   2.677  1.00  0.00     0.036 C 
HETATM   21  C   UNL     1      44.155 -17.490   1.625  1.00  0.00     0.010 C 
ENDBRANCH  15  20
ENDBRANCH  11  14
ENDBRANCH   1  10
BRANCH   2  22
HETATM   22  N   UNL     1      41.321 -11.764   4.274  1.00  0.00    -0.319 N 
HETATM   23  C   UNL     1      41.241 -12.335   5.523  1.00  0.00     0.248 C 
HETATM   24  O   UNL     1      40.646 -13.374   5.813  1.00  0.00    -0.271 OA
HETATM   25  H   UNL     1      41.288 -10.758   4.159  1.00  0.00     0.169 HD
BRANCH  23  26
HETATM   26  C   UNL     1      41.949 -11.538   6.614  1.00  0.00     0.337 C 
BRANCH  26  27
HETATM   27  N   UNL     1      41.085 -11.399   7.863  1.00  0.00    -0.059 N 
HETATM   28  H   UNL     1      40.895 -12.368   8.168  1.00  0.00     0.280 HD
HETATM   29  C   UNL     1      41.837 -10.748   9.027  1.00  0.00     0.261 C 
HETATM   30  C   UNL     1      40.905 -10.654  10.241  1.00  0.00     0.195 C 
HETATM   31  O   UNL     1      39.710  -9.931   9.917  1.00  0.00    -0.388 OA
HETATM   32  C   UNL     1      38.963 -10.584   8.885  1.00  0.00     0.195 C 
HETATM   33  C   UNL     1      39.781 -10.678   7.594  1.00  0.00     0.261 C 
ENDBRANCH  26  27
ENDBRANCH  23  26
ENDBRANCH   2  22
BRANCH   8  34
HETATM   34  C   UNL     1      39.333 -14.165  -2.727  1.00  0.00    -0.047 C 
HETATM   35  C   UNL     1      39.974 -12.912  -3.362  1.00  0.00     0.015 C 
HETATM   36  C   UNL     1      39.811 -15.386  -3.542  1.00  0.00     0.015 C 
HETATM   37  C   UNL     1      37.804 -14.050  -2.885  1.00  0.00     0.015 C 
ENDBRANCH   8  34
TORSDOF 7
ENDMDL
MODEL 10
REMARK VINA RESULT:      -8.3      4.391      9.618
REMARK  7 active torsions:
REMARK  status: ('A' for Active; 'I' for Inactive)
REMARK    1  A    between atoms: C_2  and  C_3 
REMARK    2  A    between atoms: C_4  and  N_5 
REMARK       I    between atoms: N_5  and  C_6 
REMARK    3  A    between atoms: C_6  and  C_7 
REMARK    4  A    between atoms: C_8  and  N_9 
REMARK       I    between atoms: N_9  and  C_10 
REMARK    5  A    between atoms: C_10  and  C_11 
REMARK    6  A    between atoms: C_11  and  N_12 
REMARK    7  A    between atoms: C_25  and  C_26 
ROOT
HETATM    1  C   UNL     1      40.791 -16.159   1.998  1.00  0.00     0.073 A 
HETATM    2  C   UNL     1      41.362 -16.342   0.750  1.00  0.00     0.093 A 
HETATM    3  S   UNL     1      42.728 -17.347   0.758  1.00  0.00    -0.075 SA
HETATM    4  C   UNL     1      42.557 -17.651   2.420  1.00  0.00    -0.008 A 
HETATM    5  C   UNL     1      41.503 -16.957   2.984  1.00  0.00    -0.026 A 
HETATM    6  C   UNL     1      41.259 -17.020   4.465  1.00  0.00     0.041 C 
HETATM    7  C   UNL     1      42.512 -17.478   5.233  1.00  0.00     0.010 C 
HETATM    8  C   UNL     1      43.133 -18.764   4.622  1.00  0.00    -0.002 C 
HETATM    9  C   UNL     1      43.554 -18.504   3.150  1.00  0.00     0.052 C 
ENDROOT
BRANCH   1  10
HETATM   10  C   UNL     1      39.727 -15.175   2.257  1.00  0.00     0.259 C 
HETATM   11  N   UNL     1      40.185 -13.996   2.810  1.00  0.00    -0.322 N 
HETATM   12  H   UNL     1      41.147 -14.010   3.118  1.00  0.00     0.169 HD
HETATM   13  O   UNL     1      38.554 -15.451   2.008  1.00  0.00    -0.267 OA
BRANCH  11  14
HETATM   14  C   UNL     1      39.451 -12.816   3.081  1.00  0.00     0.041 A 
HETATM   15  C   UNL     1      39.488 -12.260   4.380  1.00  0.00    -0.032 A 
HETATM   16  C   UNL     1      38.746 -11.092   4.649  1.00  0.00     0.009 A 
HETATM   17  C   UNL     1      38.002 -10.466   3.653  1.00  0.00     0.001 A 
HETATM   18  C   UNL     1      37.989 -10.996   2.371  1.00  0.00     0.002 A 
HETATM   19  C   UNL     1      38.708 -12.161   2.088  1.00  0.00     0.030 A 
BRANCH  15  20
HETATM   20  C   UNL     1      40.269 -12.861   5.530  1.00  0.00     0.036 C 
HETATM   21  C   UNL     1      40.678 -11.813   6.555  1.00  0.00     0.010 C 
ENDBRANCH  15  20
ENDBRANCH  11  14
ENDBRANCH   1  10
BRANCH   2  22
HETATM   22  N   UNL     1      41.097 -15.834  -0.502  1.00  0.00    -0.319 N 
HETATM   23  C   UNL     1      41.424 -14.544  -0.852  1.00  0.00     0.248 C 
HETATM   24  O   UNL     1      41.576 -13.597  -0.079  1.00  0.00    -0.271 OA
HETATM   25  H   UNL     1      40.467 -16.385  -1.075  1.00  0.00     0.169 HD
BRANCH  23  26
HETATM   26  C   UNL     1      41.562 -14.327  -2.355  1.00  0.00     0.337 C 
BRANCH  26  27
HETATM   27  N   UNL     1      41.324 -12.870  -2.739  1.00  0.00    -0.059 N 
HETATM   28  H   UNL     1      41.187 -12.374  -1.843  1.00  0.00     0.280 HD
HETATM   29  C   UNL     1      42.557 -12.223  -3.375  1.00  0.00     0.261 C 
HETATM   30  C   UNL     1      42.239 -10.764  -3.722  1.00  0.00     0.195 C 
HETATM   31  O   UNL     1      41.096 -10.677  -4.583  1.00  0.00    -0.388 OA
HETATM   32  C   UNL     1      39.924 -11.207  -3.956  1.00  0.00     0.195 C 
HETATM   33  C   UNL     1      40.106 -12.689  -3.619  1.00  0.00     0.261 C 
ENDBRANCH  26  27
ENDBRANCH  23  26
ENDBRANCH   2  22
BRANCH   8  34
HETATM   34  C   UNL     1      44.294 -19.381   5.492  1.00  0.00    -0.047 C 
HETATM   35  C   UNL     1      45.171 -18.256   6.083  1.00  0.00     0.015 C 
HETATM   36  C   UNL     1      43.714 -20.180   6.680  1.00  0.00     0.015 C 
HETATM   37  C   UNL     1      45.207 -20.321   4.680  1.00  0.00     0.015 C 
ENDBRANCH   8  34
TORSDOF 7
ENDMDL
