MODEL 1
REMARK VINA RESULT:      -8.1      0.000      0.000
REMARK  3 active torsions:
REMARK  status: ('A' for Active; 'I' for Inactive)
REMARK    1  A    between atoms: C_7  and  C_8 
REMARK       I    between atoms: C_8  and  N_9 
REMARK    2  A    between atoms: N_9  and  C_10 
REMARK    3  A    between atoms: C_13  and  C_14 
REMARK       I    between atoms: C_14  and  N_15 
ROOT
HETATM    1  C   UNL     1      43.524 -17.533   2.514  1.00  0.00     0.257 C 
HETATM    2  N   UNL     1      42.161 -17.296   2.484  1.00  0.00    -0.323 N 
HETATM    3  O   UNL     1      44.357 -17.004   1.789  1.00  0.00    -0.267 OA
HETATM    4  H   UNL     1      41.614 -17.738   3.211  1.00  0.00     0.169 HD
ENDROOT
BRANCH   2   5
HETATM    5  C   UNL     1      41.451 -16.448   1.610  1.00  0.00     0.035 A 
HETATM    6  C   UNL     1      41.734 -16.307   0.250  1.00  0.00     0.030 A 
HETATM    7  C   UNL     1      40.992 -15.427  -0.550  1.00  0.00     0.019 A 
HETATM    8  C   UNL     1      39.939 -14.686  -0.003  1.00  0.00     0.032 A 
HETATM    9  C   UNL     1      39.652 -14.831   1.360  1.00  0.00     0.019 A 
HETATM   10  C   UNL     1      40.403 -15.700   2.159  1.00  0.00     0.030 A 
BRANCH   8  11
HETATM   11  C   UNL     1      39.112 -13.729  -0.792  1.00  0.00     0.249 C 
HETATM   12  N   UNL     1      38.088 -14.220  -1.553  1.00  0.00    -0.366 N 
HETATM   13  H   UNL     1      37.781 -15.179  -1.561  1.00  0.00     0.159 HD
HETATM   14  H   UNL     1      37.525 -13.539  -2.045  1.00  0.00     0.159 HD
HETATM   15  O   UNL     1      39.327 -12.523  -0.759  1.00  0.00    -0.268 OA
ENDBRANCH   8  11
ENDBRANCH   2   5
BRANCH   1  16
HETATM   16  C   UNL     1      43.940 -18.460   3.575  1.00  0.00     0.050 A 
HETATM   17  C   UNL     1      44.198 -19.890   3.488  1.00  0.00    -0.003 A 
HETATM   18  C   UNL     1      44.201 -20.785   2.383  1.00  0.00     0.014 A 
HETATM   19  C   UNL     1      44.506 -20.428   4.743  1.00  0.00     0.016 A 
HETATM   20  C   UNL     1      44.448 -22.152   2.561  1.00  0.00     0.001 A 
HETATM   21  C   UNL     1      44.713 -22.656   3.824  1.00  0.00     0.001 A 
HETATM   22  C   UNL     1      44.754 -21.804   4.927  1.00  0.00     0.019 A 
HETATM   23  S   UNL     1      44.552 -19.218   5.963  1.00  0.00    -0.100 SA
HETATM   24  C   UNL     1      44.164 -17.990   4.856  1.00  0.00     0.068 A 
ENDBRANCH   1  16
TORSDOF 3
ENDMDL
MODEL 2
REMARK VINA RESULT:      -7.9      3.192      8.065
REMARK  3 active torsions:
REMARK  status: ('A' for Active; 'I' for Inactive)
REMARK    1  A    between atoms: C_7  and  C_8 
REMARK       I    between atoms: C_8  and  N_9 
REMARK    2  A    between atoms: N_9  and  C_10 
REMARK    3  A    between atoms: C_13  and  C_14 
REMARK       I    between atoms: C_14  and  N_15 
ROOT
HETATM    1  C   UNL     1      41.714 -16.625   1.326  1.00  0.00     0.257 C 
HETATM    2  N   UNL     1      43.009 -17.043   1.570  1.00  0.00    -0.323 N 
HETATM    3  O   UNL     1      40.696 -17.209   1.677  1.00  0.00    -0.267 OA
HETATM    4  H   UNL     1      43.744 -16.402   1.300  1.00  0.00     0.169 HD
ENDROOT
BRANCH   2   5
HETATM    5  C   UNL     1      43.429 -18.221   2.221  1.00  0.00     0.035 A 
HETATM    6  C   UNL     1      43.882 -18.268   3.541  1.00  0.00     0.030 A 
HETATM    7  C   UNL     1      44.301 -19.479   4.113  1.00  0.00     0.019 A 
HETATM    8  C   UNL     1      44.257 -20.665   3.374  1.00  0.00     0.032 A 
HETATM    9  C   UNL     1      43.798 -20.618   2.052  1.00  0.00     0.019 A 
HETATM   10  C   UNL     1      43.392 -19.407   1.480  1.00  0.00     0.030 A 
BRANCH   8  11
HETATM   11  C   UNL     1      44.691 -21.985   3.915  1.00  0.00     0.249 C 
HETATM   12  N   UNL     1      45.055 -22.067   5.229  1.00  0.00    -0.366 N 
HETATM   13  H   UNL     1      44.972 -21.322   5.902  1.00  0.00     0.159 HD
HETATM   14  H   UNL     1      45.308 -22.986   5.571  1.00  0.00     0.159 HD
HETATM   15  O   UNL     1      44.714 -22.987   3.208  1.00  0.00    -0.268 OA
ENDBRANCH   8  11
ENDBRANCH   2   5
BRANCH   1  16
HETATM   16  C   UNL     1      41.630 -15.328   0.642  1.00  0.00     0.050 A 
HETATM   17  C   UNL     1      41.349 -15.052  -0.760  1.00  0.00    -0.003 A 
HETATM   18  C   UNL     1      41.009 -15.908  -1.843  1.00  0.00     0.014 A 
HETATM   19  C   UNL     1      41.428 -13.681  -1.034  1.00  0.00     0.016 A 
HETATM   20  C   UNL     1      40.819 -15.400  -3.134  1.00  0.00     0.001 A 
HETATM   21  C   UNL     1      40.942 -14.042  -3.375  1.00  0.00     0.001 A 
HETATM   22  C   UNL     1      41.238 -13.166  -2.332  1.00  0.00     0.019 A 
HETATM   23  S   UNL     1      41.757 -12.764   0.383  1.00  0.00    -0.100 SA
HETATM   24  C   UNL     1      41.802 -14.156   1.356  1.00  0.00     0.068 A 
ENDBRANCH   1  16
TORSDOF 3
ENDMDL
MODEL 3
REMARK VINA RESULT:      -7.9      1.749      2.040
REMARK  3 active torsions:
REMARK  status: ('A' for Active; 'I' for Inactive)
REMARK    1  A    between atoms: C_7  and  C_8 
REMARK       I    between atoms: C_8  and  N_9 
REMARK    2  A    between atoms: N_9  and  C_10 
REMARK    3  A    between atoms: C_13  and  C_14 
REMARK       I    between atoms: C_14  and  N_15 
ROOT
HETATM    1  C   UNL     1      42.983 -17.001   2.989  1.00  0.00     0.257 C 
HETATM    2  N   UNL     1      41.741 -16.654   3.489  1.00  0.00    -0.323 N 
HETATM    3  O   UNL     1      43.580 -16.420   2.092  1.00  0.00    -0.267 OA
HETATM    4  H   UNL     1      41.423 -17.174   4.297  1.00  0.00     0.169 HD
ENDROOT
BRANCH   2   5
HETATM    5  C   UNL     1      40.897 -15.612   3.058  1.00  0.00     0.035 A 
HETATM    6  C   UNL     1      40.978 -14.295   3.518  1.00  0.00     0.030 A 
HETATM    7  C   UNL     1      40.087 -13.317   3.053  1.00  0.00     0.019 A 
HETATM    8  C   UNL     1      39.110 -13.639   2.106  1.00  0.00     0.032 A 
HETATM    9  C   UNL     1      39.031 -14.958   1.643  1.00  0.00     0.019 A 
HETATM   10  C   UNL     1      39.913 -15.935   2.117  1.00  0.00     0.030 A 
BRANCH   8  11
HETATM   11  C   UNL     1      38.128 -12.652   1.573  1.00  0.00     0.249 C 
HETATM   12  N   UNL     1      37.769 -11.594   2.359  1.00  0.00    -0.366 N 
HETATM   13  H   UNL     1      38.181 -11.367   3.250  1.00  0.00     0.159 HD
HETATM   14  H   UNL     1      37.129 -10.924   1.951  1.00  0.00     0.159 HD
HETATM   15  O   UNL     1      37.652 -12.770   0.449  1.00  0.00    -0.268 OA
ENDBRANCH   8  11
ENDBRANCH   2   5
BRANCH   1  16
HETATM   16  C   UNL     1      43.608 -18.132   3.689  1.00  0.00     0.050 A 
HETATM   17  C   UNL     1      43.849 -19.484   3.206  1.00  0.00    -0.003 A 
HETATM   18  C   UNL     1      43.632 -20.087   1.937  1.00  0.00     0.014 A 
HETATM   19  C   UNL     1      44.406 -20.290   4.207  1.00  0.00     0.016 A 
HETATM   20  C   UNL     1      43.915 -21.442   1.723  1.00  0.00     0.001 A 
HETATM   21  C   UNL     1      44.431 -22.218   2.748  1.00  0.00     0.001 A 
HETATM   22  C   UNL     1      44.691 -21.654   3.996  1.00  0.00     0.019 A 
HETATM   23  S   UNL     1      44.693 -19.405   5.653  1.00  0.00    -0.100 SA
HETATM   24  C   UNL     1      44.085 -17.970   4.977  1.00  0.00     0.068 A 
ENDBRANCH   1  16
TORSDOF 3
ENDMDL
MODEL 4
REMARK VINA RESULT:      -7.8      1.554      1.820
REMARK  3 active torsions:
REMARK  status: ('A' for Active; 'I' for Inactive)
REMARK    1  A    between atoms: C_7  and  C_8 
REMARK       I    between atoms: C_8  and  N_9 
REMARK    2  A    between atoms: N_9  and  C_10 
REMARK    3  A    between atoms: C_13  and  C_14 
REMARK       I    between atoms: C_14  and  N_15 
ROOT
HETATM    1  C   UNL     1      42.155 -17.069   2.859  1.00  0.00     0.257 C 
HETATM    2  N   UNL     1      42.685 -16.496   1.717  1.00  0.00    -0.323 N 
HETATM    3  O   UNL     1      41.014 -16.909   3.275  1.00  0.00    -0.267 OA
HETATM    4  H   UNL     1      43.613 -16.802   1.452  1.00  0.00     0.169 HD
ENDROOT
BRANCH   2   5
HETATM    5  C   UNL     1      42.058 -15.598   0.830  1.00  0.00     0.035 A 
HETATM    6  C   UNL     1      41.911 -14.230   1.072  1.00  0.00     0.030 A 
HETATM    7  C   UNL     1      41.258 -13.403   0.147  1.00  0.00     0.019 A 
HETATM    8  C   UNL     1      40.756 -13.933  -1.046  1.00  0.00     0.032 A 
HETATM    9  C   UNL     1      40.907 -15.303  -1.291  1.00  0.00     0.019 A 
HETATM   10  C   UNL     1      41.548 -16.128  -0.360  1.00  0.00     0.030 A 
BRANCH   8  11
HETATM   11  C   UNL     1      40.046 -13.115  -2.072  1.00  0.00     0.249 C 
HETATM   12  N   UNL     1      40.216 -13.427  -3.391  1.00  0.00    -0.366 N 
HETATM   13  H   UNL     1      40.717 -14.230  -3.738  1.00  0.00     0.159 HD
HETATM   14  H   UNL     1      39.690 -12.876  -4.057  1.00  0.00     0.159 HD
HETATM   15  O   UNL     1      39.314 -12.185  -1.751  1.00  0.00    -0.268 OA
ENDBRANCH   8  11
ENDBRANCH   2   5
BRANCH   1  16
HETATM   16  C   UNL     1      43.076 -17.986   3.543  1.00  0.00     0.050 A 
HETATM   17  C   UNL     1      43.512 -19.314   3.135  1.00  0.00    -0.003 A 
HETATM   18  C   UNL     1      43.254 -20.075   1.962  1.00  0.00     0.014 A 
HETATM   19  C   UNL     1      44.343 -19.896   4.100  1.00  0.00     0.016 A 
HETATM   20  C   UNL     1      43.767 -21.370   1.812  1.00  0.00     0.001 A 
HETATM   21  C   UNL     1      44.554 -21.928   2.805  1.00  0.00     0.001 A 
HETATM   22  C   UNL     1      44.860 -21.199   3.954  1.00  0.00     0.019 A 
HETATM   23  S   UNL     1      44.637 -18.829   5.415  1.00  0.00    -0.100 SA
HETATM   24  C   UNL     1      43.677 -17.608   4.730  1.00  0.00     0.068 A 
ENDBRANCH   1  16
TORSDOF 3
ENDMDL
MODEL 5
REMARK VINA RESULT:      -7.3      3.507      8.045
REMARK  3 active torsions:
REMARK  status: ('A' for Active; 'I' for Inactive)
REMARK    1  A    between atoms: C_7  and  C_8 
REMARK       I    between atoms: C_8  and  N_9 
REMARK    2  A    between atoms: N_9  and  C_10 
REMARK    3  A    between atoms: C_13  and  C_14 
REMARK       I    between atoms: C_14  and  N_15 
ROOT
HETATM    1  C   UNL     1      41.554 -16.371   2.572  1.00  0.00     0.257 C 
HETATM    2  N   UNL     1      42.847 -16.779   2.842  1.00  0.00    -0.323 N 
HETATM    3  O   UNL     1      40.581 -17.106   2.462  1.00  0.00    -0.267 OA
HETATM    4  H   UNL     1      43.525 -16.043   2.998  1.00  0.00     0.169 HD
ENDROOT
BRANCH   2   5
HETATM    5  C   UNL     1      43.322 -18.096   3.004  1.00  0.00     0.035 A 
HETATM    6  C   UNL     1      43.437 -19.022   1.965  1.00  0.00     0.030 A 
HETATM    7  C   UNL     1      43.902 -20.322   2.211  1.00  0.00     0.019 A 
HETATM    8  C   UNL     1      44.276 -20.710   3.502  1.00  0.00     0.032 A 
HETATM    9  C   UNL     1      44.164 -19.780   4.542  1.00  0.00     0.019 A 
HETATM   10  C   UNL     1      43.688 -18.487   4.296  1.00  0.00     0.030 A 
BRANCH   8  11
HETATM   11  C   UNL     1      44.773 -22.075   3.837  1.00  0.00     0.249 C 
HETATM   12  N   UNL     1      45.283 -22.299   5.085  1.00  0.00    -0.366 N 
HETATM   13  H   UNL     1      45.274 -21.636   5.842  1.00  0.00     0.159 HD
HETATM   14  H   UNL     1      45.576 -23.246   5.289  1.00  0.00     0.159 HD
HETATM   15  O   UNL     1      44.720 -22.990   3.023  1.00  0.00    -0.268 OA
ENDBRANCH   8  11
ENDBRANCH   2   5
BRANCH   1  16
HETATM   16  C   UNL     1      41.399 -14.912   2.489  1.00  0.00     0.050 A 
HETATM   17  C   UNL     1      40.768 -14.007   3.438  1.00  0.00    -0.003 A 
HETATM   18  C   UNL     1      40.196 -14.228   4.721  1.00  0.00     0.014 A 
HETATM   19  C   UNL     1      40.761 -12.691   2.958  1.00  0.00     0.016 A 
HETATM   20  C   UNL     1      39.606 -13.182   5.440  1.00  0.00     0.001 A 
HETATM   21  C   UNL     1      39.584 -11.900   4.917  1.00  0.00     0.001 A 
HETATM   22  C   UNL     1      40.167 -11.635   3.678  1.00  0.00     0.019 A 
HETATM   23  S   UNL     1      41.562 -12.560   1.442  1.00  0.00    -0.100 SA
HETATM   24  C   UNL     1      41.915 -14.221   1.408  1.00  0.00     0.068 A 
ENDBRANCH   1  16
TORSDOF 3
ENDMDL
MODEL 6
REMARK VINA RESULT:      -7.3      3.252      4.024
REMARK  3 active torsions:
REMARK  status: ('A' for Active; 'I' for Inactive)
REMARK    1  A    between atoms: C_7  and  C_8 
REMARK       I    between atoms: C_8  and  N_9 
REMARK    2  A    between atoms: N_9  and  C_10 
REMARK    3  A    between atoms: C_13  and  C_14 
REMARK       I    between atoms: C_14  and  N_15 
ROOT
HETATM    1  C   UNL     1      42.925 -15.744   5.177  1.00  0.00     0.257 C 
HETATM    2  N   UNL     1      41.594 -15.640   4.817  1.00  0.00    -0.323 N 
HETATM    3  O   UNL     1      43.639 -14.820   5.547  1.00  0.00    -0.267 OA
HETATM    4  H   UNL     1      41.113 -16.510   4.627  1.00  0.00     0.169 HD
ENDROOT
BRANCH   2   5
HETATM    5  C   UNL     1      40.802 -14.475   4.760  1.00  0.00     0.035 A 
HETATM    6  C   UNL     1      40.105 -13.947   5.849  1.00  0.00     0.030 A 
HETATM    7  C   UNL     1      39.322 -12.792   5.707  1.00  0.00     0.019 A 
HETATM    8  C   UNL     1      39.238 -12.139   4.473  1.00  0.00     0.032 A 
HETATM    9  C   UNL     1      39.940 -12.666   3.383  1.00  0.00     0.019 A 
HETATM   10  C   UNL     1      40.712 -13.826   3.524  1.00  0.00     0.030 A 
BRANCH   8  11
HETATM   11  C   UNL     1      38.422 -10.911   4.249  1.00  0.00     0.249 C 
HETATM   12  N   UNL     1      37.707 -10.802   3.089  1.00  0.00    -0.366 N 
HETATM   13  H   UNL     1      37.611 -11.528   2.397  1.00  0.00     0.159 HD
HETATM   14  H   UNL     1      37.136  -9.974   2.987  1.00  0.00     0.159 HD
HETATM   15  O   UNL     1      38.374 -10.015   5.084  1.00  0.00    -0.268 OA
ENDBRANCH   8  11
ENDBRANCH   2   5
BRANCH   1  16
HETATM   16  C   UNL     1      43.440 -17.119   5.152  1.00  0.00     0.050 A 
HETATM   17  C   UNL     1      43.622 -18.005   4.012  1.00  0.00    -0.003 A 
HETATM   18  C   UNL     1      43.438 -17.801   2.617  1.00  0.00     0.014 A 
HETATM   19  C   UNL     1      44.073 -19.268   4.415  1.00  0.00     0.016 A 
HETATM   20  C   UNL     1      43.648 -18.839   1.700  1.00  0.00     0.001 A 
HETATM   21  C   UNL     1      44.057 -20.087   2.140  1.00  0.00     0.001 A 
HETATM   22  C   UNL     1      44.284 -20.316   3.496  1.00  0.00     0.019 A 
HETATM   23  S   UNL     1      44.335 -19.340   6.113  1.00  0.00    -0.100 SA
HETATM   24  C   UNL     1      43.855 -17.724   6.325  1.00  0.00     0.068 A 
ENDBRANCH   1  16
TORSDOF 3
ENDMDL
MODEL 7
REMARK VINA RESULT:      -7.3      3.117      3.636
REMARK  3 active torsions:
REMARK  status: ('A' for Active; 'I' for Inactive)
REMARK    1  A    between atoms: C_7  and  C_8 
REMARK       I    between atoms: C_8  and  N_9 
REMARK    2  A    between atoms: N_9  and  C_10 
REMARK    3  A    between atoms: C_13  and  C_14 
REMARK       I    between atoms: C_14  and  N_15 
ROOT
HETATM    1  C   UNL     1      43.458 -17.887   5.168  1.00  0.00     0.257 C 
HETATM    2  N   UNL     1      42.221 -17.612   4.614  1.00  0.00    -0.323 N 
HETATM    3  O   UNL     1      44.152 -17.096   5.795  1.00  0.00    -0.267 OA
HETATM    4  H   UNL     1      41.727 -18.398   4.210  1.00  0.00     0.169 HD
ENDROOT
BRANCH   2   5
HETATM    5  C   UNL     1      41.528 -16.385   4.612  1.00  0.00     0.035 A 
HETATM    6  C   UNL     1      41.366 -15.577   3.484  1.00  0.00     0.030 A 
HETATM    7  C   UNL     1      40.678 -14.357   3.568  1.00  0.00     0.019 A 
HETATM    8  C   UNL     1      40.126 -13.937   4.782  1.00  0.00     0.032 A 
HETATM    9  C   UNL     1      40.285 -14.749   5.911  1.00  0.00     0.019 A 
HETATM   10  C   UNL     1      40.983 -15.959   5.828  1.00  0.00     0.030 A 
BRANCH   8  11
HETATM   11  C   UNL     1      39.387 -12.652   4.945  1.00  0.00     0.249 C 
HETATM   12  N   UNL     1      39.285 -12.108   6.195  1.00  0.00    -0.366 N 
HETATM   13  H   UNL     1      39.748 -12.458   7.019  1.00  0.00     0.159 HD
HETATM   14  H   UNL     1      38.810 -11.218   6.263  1.00  0.00     0.159 HD
HETATM   15  O   UNL     1      38.885 -12.078   3.985  1.00  0.00    -0.268 OA
ENDBRANCH   8  11
ENDBRANCH   2   5
BRANCH   1  16
HETATM   16  C   UNL     1      43.879 -19.286   5.011  1.00  0.00     0.050 A 
HETATM   17  C   UNL     1      44.011 -20.067   3.790  1.00  0.00    -0.003 A 
HETATM   18  C   UNL     1      43.853 -19.717   2.421  1.00  0.00     0.014 A 
HETATM   19  C   UNL     1      44.373 -21.391   4.070  1.00  0.00     0.016 A 
HETATM   20  C   UNL     1      43.999 -20.673   1.409  1.00  0.00     0.001 A 
HETATM   21  C   UNL     1      44.321 -21.982   1.725  1.00  0.00     0.001 A 
HETATM   22  C   UNL     1      44.520 -22.357   3.054  1.00  0.00     0.019 A 
HETATM   23  S   UNL     1      44.615 -21.644   5.753  1.00  0.00    -0.100 SA
HETATM   24  C   UNL     1      44.243 -20.028   6.120  1.00  0.00     0.068 A 
ENDBRANCH   1  16
TORSDOF 3
ENDMDL
MODEL 8
REMARK VINA RESULT:      -7.3      3.151      8.098
REMARK  3 active torsions:
REMARK  status: ('A' for Active; 'I' for Inactive)
REMARK    1  A    between atoms: C_7  and  C_8 
REMARK       I    between atoms: C_8  and  N_9 
REMARK    2  A    between atoms: N_9  and  C_10 
REMARK    3  A    between atoms: C_13  and  C_14 
REMARK       I    between atoms: C_14  and  N_15 
ROOT
HETATM    1  C   UNL     1      41.214 -15.300   1.549  1.00  0.00     0.257 C 
HETATM    2  N   UNL     1      41.048 -16.645   1.826  1.00  0.00    -0.323 N 
HETATM    3  O   UNL     1      42.137 -14.599   1.943  1.00  0.00    -0.267 OA
HETATM    4  H   UNL     1      40.287 -17.109   1.347  1.00  0.00     0.169 HD
ENDROOT
BRANCH   2   5
HETATM    5  C   UNL     1      41.859 -17.468   2.634  1.00  0.00     0.035 A 
HETATM    6  C   UNL     1      41.859 -17.440   4.030  1.00  0.00     0.030 A 
HETATM    7  C   UNL     1      42.711 -18.279   4.764  1.00  0.00     0.019 A 
HETATM    8  C   UNL     1      43.563 -19.173   4.109  1.00  0.00     0.032 A 
HETATM    9  C   UNL     1      43.559 -19.204   2.709  1.00  0.00     0.019 A 
HETATM   10  C   UNL     1      42.718 -18.356   1.979  1.00  0.00     0.030 A 
BRANCH   8  11
HETATM   11  C   UNL     1      44.497 -20.089   4.823  1.00  0.00     0.249 C 
HETATM   12  N   UNL     1      44.191 -20.474   6.099  1.00  0.00    -0.366 N 
HETATM   13  H   UNL     1      43.331 -20.260   6.578  1.00  0.00     0.159 HD
HETATM   14  H   UNL     1      44.827 -21.125   6.539  1.00  0.00     0.159 HD
HETATM   15  O   UNL     1      45.517 -20.506   4.286  1.00  0.00    -0.268 OA
ENDBRANCH   8  11
ENDBRANCH   2   5
BRANCH   1  16
HETATM   16  C   UNL     1      40.195 -14.752   0.644  1.00  0.00     0.050 A 
HETATM   17  C   UNL     1      40.224 -14.651  -0.808  1.00  0.00    -0.003 A 
HETATM   18  C   UNL     1      41.171 -15.100  -1.769  1.00  0.00     0.014 A 
HETATM   19  C   UNL     1      39.084 -13.999  -1.295  1.00  0.00     0.016 A 
HETATM   20  C   UNL     1      40.991 -14.847  -3.134  1.00  0.00     0.001 A 
HETATM   21  C   UNL     1      39.869 -14.166  -3.577  1.00  0.00     0.001 A 
HETATM   22  C   UNL     1      38.900 -13.742  -2.669  1.00  0.00     0.019 A 
HETATM   23  S   UNL     1      37.991 -13.596  -0.032  1.00  0.00    -0.100 SA
HETATM   24  C   UNL     1      39.005 -14.267   1.154  1.00  0.00     0.068 A 
ENDBRANCH   1  16
TORSDOF 3
ENDMDL
MODEL 9
REMARK VINA RESULT:      -7.2      3.537      8.380
REMARK  3 active torsions:
REMARK  status: ('A' for Active; 'I' for Inactive)
REMARK    1  A    between atoms: C_7  and  C_8 
REMARK       I    between atoms: C_8  and  N_9 
REMARK    2  A    between atoms: N_9  and  C_10 
REMARK    3  A    between atoms: C_13  and  C_14 
REMARK       I    between atoms: C_14  and  N_15 
ROOT
HETATM    1  C   UNL     1      41.479 -15.977   0.544  1.00  0.00     0.257 C 
HETATM    2  N   UNL     1      42.749 -16.458   0.805  1.00  0.00    -0.323 N 
HETATM    3  O   UNL     1      40.487 -16.168   1.237  1.00  0.00    -0.267 OA
HETATM    4  H   UNL     1      43.485 -16.134   0.190  1.00  0.00     0.169 HD
ENDROOT
BRANCH   2   5
HETATM    5  C   UNL     1      43.159 -17.283   1.871  1.00  0.00     0.035 A 
HETATM    6  C   UNL     1      43.307 -16.846   3.189  1.00  0.00     0.030 A 
HETATM    7  C   UNL     1      43.739 -17.726   4.193  1.00  0.00     0.019 A 
HETATM    8  C   UNL     1      44.012 -19.065   3.893  1.00  0.00     0.032 A 
HETATM    9  C   UNL     1      43.859 -19.504   2.573  1.00  0.00     0.019 A 
HETATM   10  C   UNL     1      43.440 -18.621   1.571  1.00  0.00     0.030 A 
BRANCH   8  11
HETATM   11  C   UNL     1      44.478 -20.054   4.907  1.00  0.00     0.249 C 
HETATM   12  N   UNL     1      45.181 -21.146   4.483  1.00  0.00    -0.366 N 
HETATM   13  H   UNL     1      45.494 -21.303   3.538  1.00  0.00     0.159 HD
HETATM   14  H   UNL     1      45.514 -21.776   5.201  1.00  0.00     0.159 HD
HETATM   15  O   UNL     1      44.252 -19.897   6.102  1.00  0.00    -0.268 OA
ENDBRANCH   8  11
ENDBRANCH   2   5
BRANCH   1  16
HETATM   16  C   UNL     1      41.403 -15.117  -0.644  1.00  0.00     0.050 A 
HETATM   17  C   UNL     1      41.637 -13.685  -0.750  1.00  0.00    -0.003 A 
HETATM   18  C   UNL     1      42.065 -12.723   0.206  1.00  0.00     0.014 A 
HETATM   19  C   UNL     1      41.395 -13.224  -2.050  1.00  0.00     0.016 A 
HETATM   20  C   UNL     1      42.182 -11.369  -0.133  1.00  0.00     0.001 A 
HETATM   21  C   UNL     1      41.898 -10.944  -1.419  1.00  0.00     0.001 A 
HETATM   22  C   UNL     1      41.511 -11.862  -2.395  1.00  0.00     0.019 A 
HETATM   23  S   UNL     1      40.973 -14.507  -3.113  1.00  0.00    -0.100 SA
HETATM   24  C   UNL     1      41.101 -15.665  -1.877  1.00  0.00     0.068 A 
ENDBRANCH   1  16
TORSDOF 3
ENDMDL
MODEL 10
REMARK VINA RESULT:      -7.1      3.001      3.768
REMARK  3 active torsions:
REMARK  status: ('A' for Active; 'I' for Inactive)
REMARK    1  A    between atoms: C_7  and  C_8 
REMARK       I    between atoms: C_8  and  N_9 
REMARK    2  A    between atoms: N_9  and  C_10 
REMARK    3  A    between atoms: C_13  and  C_14 
REMARK       I    between atoms: C_14  and  N_15 
ROOT
HETATM    1  C   UNL     1      43.058 -17.334   3.202  1.00  0.00     0.257 C 
HETATM    2  N   UNL     1      41.867 -17.177   3.886  1.00  0.00    -0.323 N 
HETATM    3  O   UNL     1      43.778 -16.426   2.804  1.00  0.00    -0.267 OA
HETATM    4  H   UNL     1      41.436 -18.025   4.233  1.00  0.00     0.169 HD
ENDROOT
BRANCH   2   5
HETATM    5  C   UNL     1      41.217 -15.974   4.228  1.00  0.00     0.035 A 
HETATM    6  C   UNL     1      41.238 -15.407   5.504  1.00  0.00     0.030 A 
HETATM    7  C   UNL     1      40.549 -14.214   5.770  1.00  0.00     0.019 A 
HETATM    8  C   UNL     1      39.843 -13.561   4.755  1.00  0.00     0.032 A 
HETATM    9  C   UNL     1      39.826 -14.128   3.475  1.00  0.00     0.019 A 
HETATM   10  C   UNL     1      40.504 -15.325   3.215  1.00  0.00     0.030 A 
BRANCH   8  11
HETATM   11  C   UNL     1      39.086 -12.295   4.967  1.00  0.00     0.249 C 
HETATM   12  N   UNL     1      38.672 -11.587   3.873  1.00  0.00    -0.366 N 
HETATM   13  H   UNL     1      38.757 -11.894   2.918  1.00  0.00     0.159 HD
HETATM   14  H   UNL     1      38.128 -10.753   4.054  1.00  0.00     0.159 HD
HETATM   15  O   UNL     1      38.823 -11.890   6.094  1.00  0.00    -0.268 OA
ENDBRANCH   8  11
ENDBRANCH   2   5
BRANCH   1  16
HETATM   16  C   UNL     1      43.466 -18.735   3.034  1.00  0.00     0.050 A 
HETATM   17  C   UNL     1      43.838 -19.705   4.053  1.00  0.00    -0.003 A 
HETATM   18  C   UNL     1      43.851 -19.628   5.473  1.00  0.00     0.014 A 
HETATM   19  C   UNL     1      44.233 -20.920   3.479  1.00  0.00     0.016 A 
HETATM   20  C   UNL     1      44.293 -20.704   6.252  1.00  0.00     0.001 A 
HETATM   21  C   UNL     1      44.713 -21.877   5.648  1.00  0.00     0.001 A 
HETATM   22  C   UNL     1      44.680 -22.005   4.260  1.00  0.00     0.019 A 
HETATM   23  S   UNL     1      44.081 -20.896   1.767  1.00  0.00    -0.100 SA
HETATM   24  C   UNL     1      43.504 -19.299   1.772  1.00  0.00     0.068 A 
ENDBRANCH   1  16
TORSDOF 3
ENDMDL
