MODEL 1
REMARK VINA RESULT:      -8.8      0.000      0.000
REMARK  5 active torsions:
REMARK  status: ('A' for Active; 'I' for Inactive)
REMARK    1  A    between atoms: C_2  and  N_3 
REMARK       I    between atoms: N_3  and  C_4 
REMARK       I    between atoms: C_4  and  N_5 
REMARK    2  A    between atoms: N_5  and  C_6 
REMARK    3  A    between atoms: C_9  and  C_10 
REMARK    4  A    between atoms: C_10  and  N_11 
REMARK       I    between atoms: N_11  and  C_12 
REMARK    5  A    between atoms: C_12  and  C_13 
ROOT
HETATM    1  N   UNL     1      43.074 -16.703   1.801  1.00  0.00    -0.353 N 
HETATM    2  C   UNL     1      42.390 -17.744   2.399  1.00  0.00     0.254 C 
HETATM    3  O   UNL     1      41.213 -17.641   2.738  1.00  0.00    -0.268 OA
HETATM    4  H   UNL     1      44.076 -16.721   1.692  1.00  0.00     0.163 HD
ENDROOT
BRANCH   1   5
HETATM    5  C   UNL     1      42.420 -15.420   1.693  1.00  0.00     0.161 C 
BRANCH   5   6
HETATM    6  C   UNL     1      42.504 -14.610   2.956  1.00  0.00    -0.040 A 
HETATM    7  C   UNL     1      41.341 -14.275   3.659  1.00  0.00     0.011 A 
HETATM    8  C   UNL     1      41.417 -13.657   4.912  1.00  0.00     0.030 A 
HETATM    9  C   UNL     1      42.656 -13.359   5.482  1.00  0.00     0.036 A 
HETATM   10  C   UNL     1      43.815 -13.609   4.737  1.00  0.00     0.030 A 
HETATM   11  C   UNL     1      43.742 -14.232   3.487  1.00  0.00     0.011 A 
BRANCH   9  12
HETATM   12  N   UNL     1      42.824 -12.870   6.794  1.00  0.00    -0.309 N 
HETATM   13  C   UNL     1      43.881 -13.123   7.646  1.00  0.00     0.321 C 
HETATM   14  N   UNL     1      43.804 -12.308   8.761  1.00  0.00    -0.339 N 
HETATM   15  O   UNL     1      44.807 -13.897   7.450  1.00  0.00    -0.247 OA
HETATM   16  H   UNL     1      42.874 -12.054   9.057  1.00  0.00     0.164 HD
HETATM   17  H   UNL     1      42.249 -12.083   7.050  1.00  0.00     0.170 HD
BRANCH  14  18
HETATM   18  C   UNL     1      44.844 -12.240   9.783  1.00  0.00     0.078 C 
HETATM   19  C   UNL     1      44.293 -12.422  11.197  1.00  0.00     0.032 C 
HETATM   20  C   UNL     1      45.690 -10.976   9.667  1.00  0.00     0.032 C 
ENDBRANCH  14  18
ENDBRANCH   9  12
ENDBRANCH   5   6
ENDBRANCH   1   5
BRANCH   2  21
HETATM   21  C   UNL     1      43.124 -19.009   2.666  1.00  0.00     0.064 A 
HETATM   22  C   UNL     1      43.591 -19.270   3.946  1.00  0.00     0.077 A 
HETATM   23  C   UNL     1      44.297 -20.433   4.263  1.00  0.00     0.065 A 
HETATM   24  N   UNL     1      43.482 -18.516   5.120  1.00  0.00    -0.330 N 
HETATM   25  N   UNL     1      44.621 -20.392   5.619  1.00  0.00    -0.331 N 
HETATM   26  C   UNL     1      44.575 -21.399   3.329  1.00  0.00     0.074 A 
HETATM   27  C   UNL     1      44.111 -19.204   6.160  1.00  0.00     0.176 A 
HETATM   28  H   UNL     1      45.122 -21.092   6.146  1.00  0.00     0.168 HD
HETATM   29  S   UNL     1      44.231 -18.720   7.729  1.00  0.00    -0.041 SA
HETATM   30  C   UNL     1      44.103 -21.156   2.041  1.00  0.00     0.119 A 
HETATM   31  F   UNL     1      44.335 -22.066   1.085  1.00  0.00    -0.206 F 
HETATM   32  C   UNL     1      43.385 -19.990   1.700  1.00  0.00     0.061 A 
HETATM   33  H   UNL     1      42.995 -17.628   5.178  1.00  0.00     0.168 HD
ENDBRANCH   2  21
TORSDOF 5
ENDMDL
MODEL 2
REMARK VINA RESULT:      -8.5      4.199      6.755
REMARK  5 active torsions:
REMARK  status: ('A' for Active; 'I' for Inactive)
REMARK    1  A    between atoms: C_2  and  N_3 
REMARK       I    between atoms: N_3  and  C_4 
REMARK       I    between atoms: C_4  and  N_5 
REMARK    2  A    between atoms: N_5  and  C_6 
REMARK    3  A    between atoms: C_9  and  C_10 
REMARK    4  A    between atoms: C_10  and  N_11 
REMARK       I    between atoms: N_11  and  C_12 
REMARK    5  A    between atoms: C_12  and  C_13 
ROOT
HETATM    1  N   UNL     1      44.343 -13.787   8.197  1.00  0.00    -0.353 N 
HETATM    2  C   UNL     1      44.401 -14.293   6.913  1.00  0.00     0.254 C 
HETATM    3  O   UNL     1      45.237 -13.908   6.098  1.00  0.00    -0.268 OA
HETATM    4  H   UNL     1      43.555 -13.962   8.800  1.00  0.00     0.163 HD
ENDROOT
BRANCH   1   5
HETATM    5  C   UNL     1      45.207 -12.683   8.543  1.00  0.00     0.161 C 
BRANCH   5   6
HETATM    6  C   UNL     1      44.516 -11.633   9.368  1.00  0.00    -0.040 A 
HETATM    7  C   UNL     1      43.266 -11.139   8.978  1.00  0.00     0.011 A 
HETATM    8  C   UNL     1      42.545 -10.279   9.816  1.00  0.00     0.030 A 
HETATM    9  C   UNL     1      43.065  -9.895  11.053  1.00  0.00     0.036 A 
HETATM   10  C   UNL     1      44.356 -10.314  11.399  1.00  0.00     0.030 A 
HETATM   11  C   UNL     1      45.075 -11.178  10.567  1.00  0.00     0.011 A 
BRANCH   9  12
HETATM   12  N   UNL     1      42.348  -9.151  12.013  1.00  0.00    -0.309 N 
HETATM   13  C   UNL     1      41.790  -9.625  13.185  1.00  0.00     0.321 C 
HETATM   14  N   UNL     1      41.354  -8.573  13.968  1.00  0.00    -0.339 N 
HETATM   15  O   UNL     1      41.732 -10.793  13.545  1.00  0.00    -0.247 OA
HETATM   16  H   UNL     1      41.039  -7.755  13.470  1.00  0.00     0.164 HD
HETATM   17  H   UNL     1      42.452  -8.150  11.965  1.00  0.00     0.170 HD
BRANCH  14  18
HETATM   18  C   UNL     1      40.839  -8.736  15.324  1.00  0.00     0.078 C 
HETATM   19  C   UNL     1      39.791  -7.685  15.687  1.00  0.00     0.032 C 
HETATM   20  C   UNL     1      41.954  -8.804  16.364  1.00  0.00     0.032 C 
ENDBRANCH  14  18
ENDBRANCH   9  12
ENDBRANCH   5   6
ENDBRANCH   1   5
BRANCH   2  21
HETATM   21  C   UNL     1      43.393 -15.309   6.508  1.00  0.00     0.064 A 
HETATM   22  C   UNL     1      42.104 -14.904   6.195  1.00  0.00     0.077 A 
HETATM   23  C   UNL     1      41.106 -15.806   5.819  1.00  0.00     0.065 A 
HETATM   24  N   UNL     1      41.537 -13.625   6.176  1.00  0.00    -0.330 N 
HETATM   25  N   UNL     1      39.936 -15.087   5.573  1.00  0.00    -0.331 N 
HETATM   26  C   UNL     1      41.335 -17.156   5.730  1.00  0.00     0.074 A 
HETATM   27  C   UNL     1      40.200 -13.728   5.788  1.00  0.00     0.176 A 
HETATM   28  H   UNL     1      39.046 -15.457   5.277  1.00  0.00     0.168 HD
HETATM   29  S   UNL     1      39.128 -12.490   5.609  1.00  0.00    -0.041 SA
HETATM   30  C   UNL     1      42.629 -17.578   6.031  1.00  0.00     0.119 A 
HETATM   31  F   UNL     1      42.917 -18.884   5.956  1.00  0.00    -0.206 F 
HETATM   32  C   UNL     1      43.652 -16.683   6.410  1.00  0.00     0.061 A 
HETATM   33  H   UNL     1      42.050 -12.775   6.390  1.00  0.00     0.168 HD
ENDBRANCH   2  21
TORSDOF 5
ENDMDL
MODEL 3
REMARK VINA RESULT:      -8.4      1.947      2.084
REMARK  5 active torsions:
REMARK  status: ('A' for Active; 'I' for Inactive)
REMARK    1  A    between atoms: C_2  and  N_3 
REMARK       I    between atoms: N_3  and  C_4 
REMARK       I    between atoms: C_4  and  N_5 
REMARK    2  A    between atoms: N_5  and  C_6 
REMARK    3  A    between atoms: C_9  and  C_10 
REMARK    4  A    between atoms: C_10  and  N_11 
REMARK       I    between atoms: N_11  and  C_12 
REMARK    5  A    between atoms: C_12  and  C_13 
ROOT
HETATM    1  N   UNL     1      43.082 -16.713   1.575  1.00  0.00    -0.353 N 
HETATM    2  C   UNL     1      42.428 -17.701   2.285  1.00  0.00     0.254 C 
HETATM    3  O   UNL     1      41.249 -17.595   2.615  1.00  0.00    -0.268 OA
HETATM    4  H   UNL     1      44.084 -16.715   1.465  1.00  0.00     0.163 HD
ENDROOT
BRANCH   1   5
HETATM    5  C   UNL     1      42.393 -15.468   1.331  1.00  0.00     0.161 C 
BRANCH   5   6
HETATM    6  C   UNL     1      42.284 -14.607   2.559  1.00  0.00    -0.040 A 
HETATM    7  C   UNL     1      41.030 -14.188   3.018  1.00  0.00     0.011 A 
HETATM    8  C   UNL     1      40.904 -13.519   4.242  1.00  0.00     0.030 A 
HETATM    9  C   UNL     1      42.030 -13.254   5.022  1.00  0.00     0.036 A 
HETATM   10  C   UNL     1      43.293 -13.589   4.517  1.00  0.00     0.030 A 
HETATM   11  C   UNL     1      43.420 -14.262   3.298  1.00  0.00     0.011 A 
BRANCH   9  12
HETATM   12  N   UNL     1      41.978 -12.715   6.325  1.00  0.00    -0.309 N 
HETATM   13  C   UNL     1      41.591 -11.437   6.681  1.00  0.00     0.321 C 
HETATM   14  N   UNL     1      41.465 -11.340   8.054  1.00  0.00    -0.339 N 
HETATM   15  O   UNL     1      41.325 -10.517   5.921  1.00  0.00    -0.247 OA
HETATM   16  H   UNL     1      42.080 -11.927   8.596  1.00  0.00     0.164 HD
HETATM   17  H   UNL     1      41.994 -13.382   7.080  1.00  0.00     0.170 HD
BRANCH  14  18
HETATM   18  C   UNL     1      40.943 -10.158   8.734  1.00  0.00     0.078 C 
HETATM   19  C   UNL     1      41.863  -9.668   9.853  1.00  0.00     0.032 C 
HETATM   20  C   UNL     1      39.513 -10.356   9.226  1.00  0.00     0.032 C 
ENDBRANCH  14  18
ENDBRANCH   9  12
ENDBRANCH   5   6
ENDBRANCH   1   5
BRANCH   2  21
HETATM   21  C   UNL     1      43.196 -18.910   2.684  1.00  0.00     0.064 A 
HETATM   22  C   UNL     1      43.586 -19.065   4.007  1.00  0.00     0.077 A 
HETATM   23  C   UNL     1      44.319 -20.170   4.447  1.00  0.00     0.065 A 
HETATM   24  N   UNL     1      43.364 -18.243   5.117  1.00  0.00    -0.330 N 
HETATM   25  N   UNL     1      44.547 -20.025   5.815  1.00  0.00    -0.331 N 
HETATM   26  C   UNL     1      44.702 -21.179   3.601  1.00  0.00     0.074 A 
HETATM   27  C   UNL     1      43.949 -18.831   6.240  1.00  0.00     0.176 A 
HETATM   28  H   UNL     1      45.040 -20.664   6.420  1.00  0.00     0.168 HD
HETATM   29  S   UNL     1      43.941 -18.241   7.777  1.00  0.00    -0.041 SA
HETATM   30  C   UNL     1      44.309 -21.043   2.271  1.00  0.00     0.119 A 
HETATM   31  F   UNL     1      44.646 -22.000   1.396  1.00  0.00    -0.206 F 
HETATM   32  C   UNL     1      43.566 -19.938   1.805  1.00  0.00     0.061 A 
HETATM   33  H   UNL     1      42.835 -17.377   5.083  1.00  0.00     0.168 HD
ENDBRANCH   2  21
TORSDOF 5
ENDMDL
MODEL 4
REMARK VINA RESULT:      -8.3      4.623      9.762
REMARK  5 active torsions:
REMARK  status: ('A' for Active; 'I' for Inactive)
REMARK    1  A    between atoms: C_2  and  N_3 
REMARK       I    between atoms: N_3  and  C_4 
REMARK       I    between atoms: C_4  and  N_5 
REMARK    2  A    between atoms: N_5  and  C_6 
REMARK    3  A    between atoms: C_9  and  C_10 
REMARK    4  A    between atoms: C_10  and  N_11 
REMARK       I    between atoms: N_11  and  C_12 
REMARK    5  A    between atoms: C_12  and  C_13 
ROOT
HETATM    1  N   UNL     1      40.972 -11.578   7.725  1.00  0.00    -0.353 N 
HETATM    2  C   UNL     1      41.777 -10.501   8.044  1.00  0.00     0.254 C 
HETATM    3  O   UNL     1      42.076  -9.644   7.215  1.00  0.00    -0.268 OA
HETATM    4  H   UNL     1      40.878 -12.369   8.343  1.00  0.00     0.163 HD
ENDROOT
BRANCH   1   5
HETATM    5  C   UNL     1      40.583 -11.766   6.348  1.00  0.00     0.161 C 
BRANCH   5   6
HETATM    6  C   UNL     1      41.039 -13.082   5.783  1.00  0.00    -0.040 A 
HETATM    7  C   UNL     1      42.398 -13.420   5.791  1.00  0.00     0.011 A 
HETATM    8  C   UNL     1      42.817 -14.700   5.411  1.00  0.00     0.030 A 
HETATM    9  C   UNL     1      41.887 -15.661   5.012  1.00  0.00     0.036 A 
HETATM   10  C   UNL     1      40.539 -15.292   4.915  1.00  0.00     0.030 A 
HETATM   11  C   UNL     1      40.117 -14.015   5.299  1.00  0.00     0.011 A 
BRANCH   9  12
HETATM   12  N   UNL     1      42.208 -17.010   4.752  1.00  0.00    -0.309 N 
HETATM   13  C   UNL     1      43.012 -17.492   3.737  1.00  0.00     0.321 C 
HETATM   14  N   UNL     1      43.265 -18.838   3.925  1.00  0.00    -0.339 N 
HETATM   15  O   UNL     1      43.505 -16.842   2.825  1.00  0.00    -0.247 OA
HETATM   16  H   UNL     1      42.535 -19.364   4.380  1.00  0.00     0.164 HD
HETATM   17  H   UNL     1      42.033 -17.659   5.502  1.00  0.00     0.170 HD
BRANCH  14  18
HETATM   18  C   UNL     1      44.191 -19.607   3.098  1.00  0.00     0.078 C 
HETATM   19  C   UNL     1      43.496 -20.306   1.930  1.00  0.00     0.032 C 
HETATM   20  C   UNL     1      45.030 -20.581   3.919  1.00  0.00     0.032 C 
ENDBRANCH  14  18
ENDBRANCH   9  12
ENDBRANCH   5   6
ENDBRANCH   1   5
BRANCH   2  21
HETATM   21  C   UNL     1      42.318 -10.408   9.425  1.00  0.00     0.064 A 
HETATM   22  C   UNL     1      41.477 -10.036  10.464  1.00  0.00     0.077 A 
HETATM   23  C   UNL     1      41.923  -9.917  11.783  1.00  0.00     0.065 A 
HETATM   24  N   UNL     1      40.114  -9.722  10.456  1.00  0.00    -0.330 N 
HETATM   25  N   UNL     1      40.843  -9.532  12.576  1.00  0.00    -0.331 N 
HETATM   26  C   UNL     1      43.224 -10.164  12.141  1.00  0.00     0.074 A 
HETATM   27  C   UNL     1      39.712  -9.415  11.757  1.00  0.00     0.176 A 
HETATM   28  H   UNL     1      40.846  -9.373  13.573  1.00  0.00     0.168 HD
HETATM   29  S   UNL     1      38.196  -8.996  12.247  1.00  0.00    -0.041 SA
HETATM   30  C   UNL     1      44.079 -10.549  11.110  1.00  0.00     0.119 A 
HETATM   31  F   UNL     1      45.361 -10.811  11.397  1.00  0.00    -0.206 F 
HETATM   32  C   UNL     1      43.649 -10.678   9.772  1.00  0.00     0.061 A 
HETATM   33  H   UNL     1      39.532  -9.748   9.624  1.00  0.00     0.168 HD
ENDBRANCH   2  21
TORSDOF 5
ENDMDL
MODEL 5
REMARK VINA RESULT:      -8.1      3.983      6.352
REMARK  5 active torsions:
REMARK  status: ('A' for Active; 'I' for Inactive)
REMARK    1  A    between atoms: C_2  and  N_3 
REMARK       I    between atoms: N_3  and  C_4 
REMARK       I    between atoms: C_4  and  N_5 
REMARK    2  A    between atoms: N_5  and  C_6 
REMARK    3  A    between atoms: C_9  and  C_10 
REMARK    4  A    between atoms: C_10  and  N_11 
REMARK       I    between atoms: N_11  and  C_12 
REMARK    5  A    between atoms: C_12  and  C_13 
ROOT
HETATM    1  N   UNL     1      44.108 -13.868   7.791  1.00  0.00    -0.353 N 
HETATM    2  C   UNL     1      44.073 -14.123   6.433  1.00  0.00     0.254 C 
HETATM    3  O   UNL     1      44.954 -13.728   5.673  1.00  0.00    -0.268 OA
HETATM    4  H   UNL     1      43.306 -14.027   8.381  1.00  0.00     0.163 HD
ENDROOT
BRANCH   1   5
HETATM    5  C   UNL     1      45.144 -13.003   8.304  1.00  0.00     0.161 C 
BRANCH   5   6
HETATM    6  C   UNL     1      44.610 -11.899   9.173  1.00  0.00    -0.040 A 
HETATM    7  C   UNL     1      43.396 -11.276   8.857  1.00  0.00     0.011 A 
HETATM    8  C   UNL     1      42.814 -10.358   9.739  1.00  0.00     0.030 A 
HETATM    9  C   UNL     1      43.437 -10.044  10.947  1.00  0.00     0.036 A 
HETATM   10  C   UNL     1      44.696 -10.594  11.218  1.00  0.00     0.030 A 
HETATM   11  C   UNL     1      45.277 -11.516  10.341  1.00  0.00     0.011 A 
BRANCH   9  12
HETATM   12  N   UNL     1      42.854  -9.242  11.951  1.00  0.00    -0.309 N 
HETATM   13  C   UNL     1      42.035  -9.665  12.981  1.00  0.00     0.321 C 
HETATM   14  N   UNL     1      41.831  -8.638  13.883  1.00  0.00    -0.339 N 
HETATM   15  O   UNL     1      41.591 -10.793  13.144  1.00  0.00    -0.247 OA
HETATM   16  H   UNL     1      41.837  -7.706  13.498  1.00  0.00     0.164 HD
HETATM   17  H   UNL     1      43.252  -8.325  12.072  1.00  0.00     0.170 HD
BRANCH  14  18
HETATM   18  C   UNL     1      41.121  -8.805  15.148  1.00  0.00     0.078 C 
HETATM   19  C   UNL     1      40.127  -7.676  15.419  1.00  0.00     0.032 C 
HETATM   20  C   UNL     1      42.071  -9.014  16.323  1.00  0.00     0.032 C 
ENDBRANCH  14  18
ENDBRANCH   9  12
ENDBRANCH   5   6
ENDBRANCH   1   5
BRANCH   2  21
HETATM   21  C   UNL     1      42.909 -14.868   5.885  1.00  0.00     0.064 A 
HETATM   22  C   UNL     1      43.053 -16.206   5.548  1.00  0.00     0.077 A 
HETATM   23  C   UNL     1      42.004 -16.962   5.018  1.00  0.00     0.065 A 
HETATM   24  N   UNL     1      44.164 -17.049   5.647  1.00  0.00    -0.330 N 
HETATM   25  N   UNL     1      42.470 -18.257   4.791  1.00  0.00    -0.331 N 
HETATM   26  C   UNL     1      40.758 -16.432   4.796  1.00  0.00     0.074 A 
HETATM   27  C   UNL     1      43.812 -18.320   5.187  1.00  0.00     0.176 A 
HETATM   28  H   UNL     1      41.945 -19.036   4.422  1.00  0.00     0.168 HD
HETATM   29  S   UNL     1      44.784 -19.648   5.122  1.00  0.00    -0.041 SA
HETATM   30  C   UNL     1      40.595 -15.091   5.139  1.00  0.00     0.119 A 
HETATM   31  F   UNL     1      39.399 -14.517   4.952  1.00  0.00    -0.206 F 
HETATM   32  C   UNL     1      41.639 -14.310   5.678  1.00  0.00     0.061 A 
HETATM   33  H   UNL     1      45.062 -16.760   6.023  1.00  0.00     0.168 HD
ENDBRANCH   2  21
TORSDOF 5
ENDMDL
MODEL 6
REMARK VINA RESULT:      -7.9      5.548      8.462
REMARK  5 active torsions:
REMARK  status: ('A' for Active; 'I' for Inactive)
REMARK    1  A    between atoms: C_2  and  N_3 
REMARK       I    between atoms: N_3  and  C_4 
REMARK       I    between atoms: C_4  and  N_5 
REMARK    2  A    between atoms: N_5  and  C_6 
REMARK    3  A    between atoms: C_9  and  C_10 
REMARK    4  A    between atoms: C_10  and  N_11 
REMARK       I    between atoms: N_11  and  C_12 
REMARK    5  A    between atoms: C_12  and  C_13 
ROOT
HETATM    1  N   UNL     1      41.433 -15.503   1.713  1.00  0.00    -0.353 N 
HETATM    2  C   UNL     1      41.689 -16.843   1.930  1.00  0.00     0.254 C 
HETATM    3  O   UNL     1      41.232 -17.720   1.200  1.00  0.00    -0.268 OA
HETATM    4  H   UNL     1      41.649 -14.804   2.407  1.00  0.00     0.163 HD
ENDROOT
BRANCH   1   5
HETATM    5  C   UNL     1      40.496 -15.139   0.677  1.00  0.00     0.161 C 
BRANCH   5   6
HETATM    6  C   UNL     1      41.155 -14.490  -0.508  1.00  0.00    -0.040 A 
HETATM    7  C   UNL     1      41.004 -15.039  -1.788  1.00  0.00     0.011 A 
HETATM    8  C   UNL     1      41.482 -14.361  -2.916  1.00  0.00     0.030 A 
HETATM    9  C   UNL     1      42.122 -13.128  -2.783  1.00  0.00     0.036 A 
HETATM   10  C   UNL     1      42.356 -12.627  -1.496  1.00  0.00     0.030 A 
HETATM   11  C   UNL     1      41.874 -13.299  -0.368  1.00  0.00     0.011 A 
BRANCH   9  12
HETATM   12  N   UNL     1      42.505 -12.317  -3.872  1.00  0.00    -0.309 N 
HETATM   13  C   UNL     1      41.715 -11.406  -4.547  1.00  0.00     0.321 C 
HETATM   14  N   UNL     1      42.487 -10.651  -5.411  1.00  0.00    -0.339 N 
HETATM   15  O   UNL     1      40.518 -11.217  -4.386  1.00  0.00    -0.247 OA
HETATM   16  H   UNL     1      43.293 -11.114  -5.801  1.00  0.00     0.164 HD
HETATM   17  H   UNL     1      43.496 -12.215  -4.021  1.00  0.00     0.170 HD
BRANCH  14  18
HETATM   18  C   UNL     1      41.971  -9.515  -6.169  1.00  0.00     0.078 C 
HETATM   19  C   UNL     1      41.263  -9.938  -7.456  1.00  0.00     0.032 C 
HETATM   20  C   UNL     1      43.041  -8.460  -6.435  1.00  0.00     0.032 C 
ENDBRANCH  14  18
ENDBRANCH   9  12
ENDBRANCH   5   6
ENDBRANCH   1   5
BRANCH   2  21
HETATM   21  C   UNL     1      42.516 -17.223   3.107  1.00  0.00     0.064 A 
HETATM   22  C   UNL     1      43.166 -18.448   3.117  1.00  0.00     0.077 A 
HETATM   23  C   UNL     1      43.948 -18.872   4.194  1.00  0.00     0.065 A 
HETATM   24  N   UNL     1      43.202 -19.461   2.153  1.00  0.00    -0.330 N 
HETATM   25  N   UNL     1      44.458 -20.135   3.894  1.00  0.00    -0.331 N 
HETATM   26  C   UNL     1      44.129 -18.103   5.316  1.00  0.00     0.074 A 
HETATM   27  C   UNL     1      44.002 -20.505   2.622  1.00  0.00     0.176 A 
HETATM   28  H   UNL     1      45.065 -20.699   4.471  1.00  0.00     0.168 HD
HETATM   29  S   UNL     1      44.353 -21.908   1.834  1.00  0.00    -0.041 SA
HETATM   30  C   UNL     1      43.490 -16.864   5.316  1.00  0.00     0.119 A 
HETATM   31  F   UNL     1      43.634 -16.063   6.380  1.00  0.00    -0.206 F 
HETATM   32  C   UNL     1      42.698 -16.415   4.238  1.00  0.00     0.061 A 
HETATM   33  H   UNL     1      42.732 -19.405   1.255  1.00  0.00     0.168 HD
ENDBRANCH   2  21
TORSDOF 5
ENDMDL
MODEL 7
REMARK VINA RESULT:      -7.9      4.337      7.753
REMARK  5 active torsions:
REMARK  status: ('A' for Active; 'I' for Inactive)
REMARK    1  A    between atoms: C_2  and  N_3 
REMARK       I    between atoms: N_3  and  C_4 
REMARK       I    between atoms: C_4  and  N_5 
REMARK    2  A    between atoms: N_5  and  C_6 
REMARK    3  A    between atoms: C_9  and  C_10 
REMARK    4  A    between atoms: C_10  and  N_11 
REMARK       I    between atoms: N_11  and  C_12 
REMARK    5  A    between atoms: C_12  and  C_13 
ROOT
HETATM    1  N   UNL     1      42.980 -16.457   1.900  1.00  0.00    -0.353 N 
HETATM    2  C   UNL     1      42.385 -17.433   2.675  1.00  0.00     0.254 C 
HETATM    3  O   UNL     1      41.299 -17.258   3.223  1.00  0.00    -0.268 OA
HETATM    4  H   UNL     1      43.942 -16.528   1.605  1.00  0.00     0.163 HD
ENDROOT
BRANCH   1   5
HETATM    5  C   UNL     1      42.366 -15.151   1.842  1.00  0.00     0.161 C 
BRANCH   5   6
HETATM    6  C   UNL     1      41.794 -14.831   0.490  1.00  0.00    -0.040 A 
HETATM    7  C   UNL     1      41.475 -15.860  -0.404  1.00  0.00     0.011 A 
HETATM    8  C   UNL     1      40.801 -15.584  -1.600  1.00  0.00     0.030 A 
HETATM    9  C   UNL     1      40.442 -14.275  -1.924  1.00  0.00     0.036 A 
HETATM   10  C   UNL     1      40.845 -13.237  -1.075  1.00  0.00     0.030 A 
HETATM   11  C   UNL     1      41.513 -13.510   0.123  1.00  0.00     0.011 A 
BRANCH   9  12
HETATM   12  N   UNL     1      39.641 -13.929  -3.033  1.00  0.00    -0.309 N 
HETATM   13  C   UNL     1      38.263 -13.834  -3.067  1.00  0.00     0.321 C 
HETATM   14  N   UNL     1      37.851 -13.269  -4.259  1.00  0.00    -0.339 N 
HETATM   15  O   UNL     1      37.489 -14.134  -2.168  1.00  0.00    -0.247 OA
HETATM   16  H   UNL     1      38.435 -13.453  -5.059  1.00  0.00     0.164 HD
HETATM   17  H   UNL     1      40.118 -13.483  -3.800  1.00  0.00     0.170 HD
BRANCH  14  18
HETATM   18  C   UNL     1      36.464 -12.912  -4.545  1.00  0.00     0.078 C 
HETATM   19  C   UNL     1      35.894 -11.910  -3.540  1.00  0.00     0.032 C 
HETATM   20  C   UNL     1      35.567 -14.137  -4.689  1.00  0.00     0.032 C 
ENDBRANCH  14  18
ENDBRANCH   9  12
ENDBRANCH   5   6
ENDBRANCH   1   5
BRANCH   2  21
HETATM   21  C   UNL     1      43.109 -18.717   2.872  1.00  0.00     0.064 A 
HETATM   22  C   UNL     1      43.569 -19.054   4.137  1.00  0.00     0.077 A 
HETATM   23  C   UNL     1      44.266 -20.238   4.390  1.00  0.00     0.065 A 
HETATM   24  N   UNL     1      43.462 -18.368   5.351  1.00  0.00    -0.330 N 
HETATM   25  N   UNL     1      44.585 -20.277   5.747  1.00  0.00    -0.331 N 
HETATM   26  C   UNL     1      44.540 -21.151   3.403  1.00  0.00     0.074 A 
HETATM   27  C   UNL     1      44.081 -19.118   6.352  1.00  0.00     0.176 A 
HETATM   28  H   UNL     1      45.079 -21.009   6.235  1.00  0.00     0.168 HD
HETATM   29  S   UNL     1      44.199 -18.725   7.947  1.00  0.00    -0.041 SA
HETATM   30  C   UNL     1      44.075 -20.832   2.129  1.00  0.00     0.119 A 
HETATM   31  F   UNL     1      44.305 -21.688   1.123  1.00  0.00    -0.206 F 
HETATM   32  C   UNL     1      43.367 -19.643   1.852  1.00  0.00     0.061 A 
HETATM   33  H   UNL     1      42.980 -17.480   5.459  1.00  0.00     0.168 HD
ENDBRANCH   2  21
TORSDOF 5
ENDMDL
MODEL 8
REMARK VINA RESULT:      -7.9      4.556      9.329
REMARK  5 active torsions:
REMARK  status: ('A' for Active; 'I' for Inactive)
REMARK    1  A    between atoms: C_2  and  N_3 
REMARK       I    between atoms: N_3  and  C_4 
REMARK       I    between atoms: C_4  and  N_5 
REMARK    2  A    between atoms: N_5  and  C_6 
REMARK    3  A    between atoms: C_9  and  C_10 
REMARK    4  A    between atoms: C_10  and  N_11 
REMARK       I    between atoms: N_11  and  C_12 
REMARK    5  A    between atoms: C_12  and  C_13 
ROOT
HETATM    1  N   UNL     1      39.578 -12.274   7.141  1.00  0.00    -0.353 N 
HETATM    2  C   UNL     1      39.948 -11.005   7.544  1.00  0.00     0.254 C 
HETATM    3  O   UNL     1      40.004 -10.063   6.757  1.00  0.00    -0.268 OA
HETATM    4  H   UNL     1      39.708 -13.077   7.736  1.00  0.00     0.163 HD
ENDROOT
BRANCH   1   5
HETATM    5  C   UNL     1      39.380 -12.520   5.732  1.00  0.00     0.161 C 
BRANCH   5   6
HETATM    6  C   UNL     1      40.095 -13.749   5.245  1.00  0.00    -0.040 A 
HETATM    7  C   UNL     1      40.401 -14.787   6.134  1.00  0.00     0.011 A 
HETATM    8  C   UNL     1      40.926 -15.997   5.666  1.00  0.00     0.030 A 
HETATM    9  C   UNL     1      41.158 -16.188   4.303  1.00  0.00     0.036 A 
HETATM   10  C   UNL     1      40.940 -15.117   3.427  1.00  0.00     0.030 A 
HETATM   11  C   UNL     1      40.411 -13.909   3.892  1.00  0.00     0.011 A 
BRANCH   9  12
HETATM   12  N   UNL     1      41.548 -17.419   3.734  1.00  0.00    -0.309 N 
HETATM   13  C   UNL     1      42.827 -17.802   3.378  1.00  0.00     0.321 C 
HETATM   14  N   UNL     1      42.852 -19.145   3.053  1.00  0.00    -0.339 N 
HETATM   15  O   UNL     1      43.830 -17.102   3.398  1.00  0.00    -0.247 OA
HETATM   16  H   UNL     1      42.006 -19.516   2.648  1.00  0.00     0.164 HD
HETATM   17  H   UNL     1      40.884 -18.172   3.811  1.00  0.00     0.170 HD
BRANCH  14  18
HETATM   18  C   UNL     1      44.078 -19.882   2.763  1.00  0.00     0.078 C 
HETATM   19  C   UNL     1      43.843 -21.078   1.840  1.00  0.00     0.032 C 
HETATM   20  C   UNL     1      44.826 -20.286   4.030  1.00  0.00     0.032 C 
ENDBRANCH  14  18
ENDBRANCH   9  12
ENDBRANCH   5   6
ENDBRANCH   1   5
BRANCH   2  21
HETATM   21  C   UNL     1      40.320 -10.797   8.968  1.00  0.00     0.064 A 
HETATM   22  C   UNL     1      41.635 -10.992   9.366  1.00  0.00     0.077 A 
HETATM   23  C   UNL     1      42.050 -10.825  10.690  1.00  0.00     0.065 A 
HETATM   24  N   UNL     1      42.759 -11.364   8.621  1.00  0.00    -0.330 N 
HETATM   25  N   UNL     1      43.416 -11.094  10.757  1.00  0.00    -0.331 N 
HETATM   26  C   UNL     1      41.184 -10.454  11.687  1.00  0.00     0.074 A 
HETATM   27  C   UNL     1      43.866 -11.424   9.471  1.00  0.00     0.176 A 
HETATM   28  H   UNL     1      44.005 -11.051  11.575  1.00  0.00     0.168 HD
HETATM   29  S   UNL     1      45.411 -11.805   9.049  1.00  0.00    -0.041 SA
HETATM   30  C   UNL     1      39.861 -10.243  11.301  1.00  0.00     0.119 A 
HETATM   31  F   UNL     1      38.969  -9.871  12.229  1.00  0.00    -0.206 F 
HETATM   32  C   UNL     1      39.422 -10.403   9.970  1.00  0.00     0.061 A 
HETATM   33  H   UNL     1      42.745 -11.530   7.620  1.00  0.00     0.168 HD
ENDBRANCH   2  21
TORSDOF 5
ENDMDL
MODEL 9
REMARK VINA RESULT:      -7.9      4.196      6.846
REMARK  5 active torsions:
REMARK  status: ('A' for Active; 'I' for Inactive)
REMARK    1  A    between atoms: C_2  and  N_3 
REMARK       I    between atoms: N_3  and  C_4 
REMARK       I    between atoms: C_4  and  N_5 
REMARK    2  A    between atoms: N_5  and  C_6 
REMARK    3  A    between atoms: C_9  and  C_10 
REMARK    4  A    between atoms: C_10  and  N_11 
REMARK       I    between atoms: N_11  and  C_12 
REMARK    5  A    between atoms: C_12  and  C_13 
ROOT
HETATM    1  N   UNL     1      44.303 -13.784   7.800  1.00  0.00    -0.353 N 
HETATM    2  C   UNL     1      44.361 -14.035   6.443  1.00  0.00     0.254 C 
HETATM    3  O   UNL     1      45.282 -13.621   5.743  1.00  0.00    -0.268 OA
HETATM    4  H   UNL     1      43.467 -13.962   8.335  1.00  0.00     0.163 HD
ENDROOT
BRANCH   1   5
HETATM    5  C   UNL     1      45.284 -12.900   8.381  1.00  0.00     0.161 C 
BRANCH   5   6
HETATM    6  C   UNL     1      44.673 -11.820   9.229  1.00  0.00    -0.040 A 
HETATM    7  C   UNL     1      43.426 -11.280   8.894  1.00  0.00     0.011 A 
HETATM    8  C   UNL     1      42.778 -10.389   9.757  1.00  0.00     0.030 A 
HETATM    9  C   UNL     1      43.368 -10.019  10.967  1.00  0.00     0.036 A 
HETATM   10  C   UNL     1      44.656 -10.486  11.257  1.00  0.00     0.030 A 
HETATM   11  C   UNL     1      45.303 -11.381  10.399  1.00  0.00     0.011 A 
BRANCH   9  12
HETATM   12  N   UNL     1      42.724  -9.243  11.953  1.00  0.00    -0.309 N 
HETATM   13  C   UNL     1      41.991  -9.707  13.029  1.00  0.00     0.321 C 
HETATM   14  N   UNL     1      41.695  -8.668  13.891  1.00  0.00    -0.339 N 
HETATM   15  O   UNL     1      41.686 -10.869  13.257  1.00  0.00    -0.247 OA
HETATM   16  H   UNL     1      41.581  -7.761  13.465  1.00  0.00     0.164 HD
HETATM   17  H   UNL     1      43.016  -8.281  12.020  1.00  0.00     0.170 HD
BRANCH  14  18
HETATM   18  C   UNL     1      41.047  -8.854  15.186  1.00  0.00     0.078 C 
HETATM   19  C   UNL     1      39.959  -7.816  15.455  1.00  0.00     0.032 C 
HETATM   20  C   UNL     1      42.051  -8.929  16.332  1.00  0.00     0.032 C 
ENDBRANCH  14  18
ENDBRANCH   9  12
ENDBRANCH   5   6
ENDBRANCH   1   5
BRANCH   2  21
HETATM   21  C   UNL     1      43.251 -14.803   5.818  1.00  0.00     0.064 A 
HETATM   22  C   UNL     1      42.354 -14.150   4.985  1.00  0.00     0.077 A 
HETATM   23  C   UNL     1      41.283 -14.808   4.375  1.00  0.00     0.065 A 
HETATM   24  N   UNL     1      42.302 -12.810   4.585  1.00  0.00    -0.330 N 
HETATM   25  N   UNL     1      40.578 -13.879   3.610  1.00  0.00    -0.331 N 
HETATM   26  C   UNL     1      41.047 -16.147   4.557  1.00  0.00     0.074 A 
HETATM   27  C   UNL     1      41.212 -12.635   3.731  1.00  0.00     0.176 A 
HETATM   28  H   UNL     1      39.760 -14.052   3.045  1.00  0.00     0.168 HD
HETATM   29  S   UNL     1      40.751 -11.234   2.997  1.00  0.00    -0.041 SA
HETATM   30  C   UNL     1      41.946 -16.819   5.383  1.00  0.00     0.119 A 
HETATM   31  F   UNL     1      41.773 -18.131   5.593  1.00  0.00    -0.206 F 
HETATM   32  C   UNL     1      43.036 -16.175   6.006  1.00  0.00     0.061 A 
HETATM   33  H   UNL     1      42.979 -12.109   4.867  1.00  0.00     0.168 HD
ENDBRANCH   2  21
TORSDOF 5
ENDMDL
MODEL 10
REMARK VINA RESULT:      -7.9      4.733      7.798
REMARK  5 active torsions:
REMARK  status: ('A' for Active; 'I' for Inactive)
REMARK    1  A    between atoms: C_2  and  N_3 
REMARK       I    between atoms: N_3  and  C_4 
REMARK       I    between atoms: C_4  and  N_5 
REMARK    2  A    between atoms: N_5  and  C_6 
REMARK    3  A    between atoms: C_9  and  C_10 
REMARK    4  A    between atoms: C_10  and  N_11 
REMARK       I    between atoms: N_11  and  C_12 
REMARK    5  A    between atoms: C_12  and  C_13 
ROOT
HETATM    1  N   UNL     1      41.944 -16.838   1.522  1.00  0.00    -0.353 N 
HETATM    2  C   UNL     1      41.886 -17.541   2.710  1.00  0.00     0.254 C 
HETATM    3  O   UNL     1      41.131 -17.215   3.624  1.00  0.00    -0.268 OA
HETATM    4  H   UNL     1      42.683 -16.989   0.854  1.00  0.00     0.163 HD
ENDROOT
BRANCH   1   5
HETATM    5  C   UNL     1      41.189 -15.612   1.408  1.00  0.00     0.161 C 
BRANCH   5   6
HETATM    6  C   UNL     1      41.368 -14.935   0.079  1.00  0.00    -0.040 A 
HETATM    7  C   UNL     1      41.061 -15.615  -1.107  1.00  0.00     0.011 A 
HETATM    8  C   UNL     1      41.075 -14.947  -2.337  1.00  0.00     0.030 A 
HETATM    9  C   UNL     1      41.401 -13.592  -2.403  1.00  0.00     0.036 A 
HETATM   10  C   UNL     1      41.799 -12.937  -1.231  1.00  0.00     0.030 A 
HETATM   11  C   UNL     1      41.780 -13.601   0.000  1.00  0.00     0.011 A 
BRANCH   9  12
HETATM   12  N   UNL     1      41.302 -12.813  -3.576  1.00  0.00    -0.309 N 
HETATM   13  C   UNL     1      40.260 -11.980  -3.934  1.00  0.00     0.321 C 
HETATM   14  N   UNL     1      40.609 -11.226  -5.039  1.00  0.00    -0.339 N 
HETATM   15  O   UNL     1      39.196 -11.848  -3.347  1.00  0.00    -0.247 OA
HETATM   16  H   UNL     1      41.245 -11.662  -5.688  1.00  0.00     0.164 HD
HETATM   17  H   UNL     1      42.160 -12.665  -4.082  1.00  0.00     0.170 HD
BRANCH  14  18
HETATM   18  C   UNL     1      39.775 -10.156  -5.581  1.00  0.00     0.078 C 
HETATM   19  C   UNL     1      39.895 -10.027  -7.099  1.00  0.00     0.032 C 
HETATM   20  C   UNL     1      40.016  -8.822  -4.881  1.00  0.00     0.032 C 
ENDBRANCH  14  18
ENDBRANCH   9  12
ENDBRANCH   5   6
ENDBRANCH   1   5
BRANCH   2  21
HETATM   21  C   UNL     1      42.795 -18.704   2.888  1.00  0.00     0.064 A 
HETATM   22  C   UNL     1      43.373 -18.935   4.128  1.00  0.00     0.077 A 
HETATM   23  C   UNL     1      44.245 -20.002   4.361  1.00  0.00     0.065 A 
HETATM   24  N   UNL     1      43.241 -18.236   5.332  1.00  0.00    -0.330 N 
HETATM   25  N   UNL     1      44.646 -19.956   5.695  1.00  0.00    -0.331 N 
HETATM   26  C   UNL     1      44.587 -20.896   3.378  1.00  0.00     0.074 A 
HETATM   27  C   UNL     1      44.019 -18.862   6.308  1.00  0.00     0.176 A 
HETATM   28  H   UNL     1      45.267 -20.596   6.167  1.00  0.00     0.168 HD
HETATM   29  S   UNL     1      44.175 -18.409   7.883  1.00  0.00    -0.041 SA
HETATM   30  C   UNL     1      44.006 -20.684   2.129  1.00  0.00     0.119 A 
HETATM   31  F   UNL     1      44.294 -21.528   1.129  1.00  0.00    -0.206 F 
HETATM   32  C   UNL     1      43.121 -19.615   1.873  1.00  0.00     0.061 A 
HETATM   33  H   UNL     1      42.646 -17.422   5.451  1.00  0.00     0.168 HD
ENDBRANCH   2  21
TORSDOF 5
ENDMDL
