MODEL 1
REMARK VINA RESULT:      -8.7      0.000      0.000
REMARK  3 active torsions:
REMARK  status: ('A' for Active; 'I' for Inactive)
REMARK    1  A    between atoms: C_7  and  C_8 
REMARK    2  A    between atoms: N_9  and  C_11 
REMARK    3  A    between atoms: C_11  and  C_12 
ROOT
HETATM    1  C   UNL     1      44.091 -16.996   5.416  1.00  0.00     0.238 C 
HETATM    2  N   UNL     1      42.742 -16.503   5.921  1.00  0.00    -0.056 N 
HETATM    3  H   UNL     1      42.929 -15.574   6.314  1.00  0.00     0.281 HD
HETATM    4  C   UNL     1      42.160 -17.312   7.052  1.00  0.00     0.236 C 
HETATM    5  C   UNL     1      43.149 -17.401   8.202  1.00  0.00     0.028 C 
HETATM    6  C   UNL     1      44.489 -17.965   7.758  1.00  0.00     0.004 C 
HETATM    7  C   UNL     1      45.060 -17.163   6.594  1.00  0.00     0.040 C 
ENDROOT
BRANCH   2   8
HETATM    8  C   UNL     1      41.712 -16.277   4.831  1.00  0.00     0.294 C 
BRANCH   8   9
HETATM    9  C   UNL     1      41.925 -15.017   4.091  1.00  0.00     0.061 A 
HETATM   10  N   UNL     1      41.747 -14.866   2.729  1.00  0.00    -0.305 N 
HETATM   11  C   UNL     1      42.081 -13.566   2.433  1.00  0.00     0.151 A 
HETATM   12  C   UNL     1      41.356 -15.720   1.711  1.00  0.00     0.118 A 
HETATM   13  C   UNL     1      42.028 -13.132   1.064  1.00  0.00     0.167 A 
HETATM   14  N   UNL     1      42.425 -12.879   3.496  1.00  0.00    -0.239 NA
HETATM   15  N   UNL     1      41.680 -13.951   0.106  1.00  0.00    -0.268 NA
HETATM   16  C   UNL     1      41.336 -15.245   0.453  1.00  0.00     0.134 A 
HETATM   17  C   UNL     1      42.289 -13.757   4.535  1.00  0.00     0.146 A 
ENDBRANCH   8   9
ENDBRANCH   2   8
BRANCH   1  18
HETATM   18  C   UNL     1      44.021 -18.201   4.532  1.00  0.00     0.041 A 
HETATM   19  N   UNL     1      44.428 -19.439   4.994  1.00  0.00    -0.357 N 
HETATM   20  C   UNL     1      44.364 -20.378   3.991  1.00  0.00     0.042 A 
HETATM   21  H   UNL     1      44.762 -19.652   5.926  1.00  0.00     0.166 HD
HETATM   22  C   UNL     1      43.815 -19.752   2.877  1.00  0.00    -0.008 A 
HETATM   23  C   UNL     1      44.736 -21.727   3.994  1.00  0.00     0.030 A 
HETATM   24  C   UNL     1      43.613 -20.504   1.704  1.00  0.00     0.014 A 
HETATM   25  C   UNL     1      43.578 -18.398   3.235  1.00  0.00     0.040 A 
HETATM   26  C   UNL     1      43.981 -21.854   1.688  1.00  0.00     0.001 A 
HETATM   27  C   UNL     1      44.536 -22.453   2.817  1.00  0.00     0.002 A 
ENDBRANCH   1  18
TORSDOF 3
ENDMDL
MODEL 2
REMARK VINA RESULT:      -8.7      1.755      2.580
REMARK  3 active torsions:
REMARK  status: ('A' for Active; 'I' for Inactive)
REMARK    1  A    between atoms: C_7  and  C_8 
REMARK    2  A    between atoms: N_9  and  C_11 
REMARK    3  A    between atoms: C_11  and  C_12 
ROOT
HETATM    1  C   UNL     1      43.192 -16.634   4.150  1.00  0.00     0.238 C 
HETATM    2  N   UNL     1      41.686 -16.423   4.091  1.00  0.00    -0.056 N 
HETATM    3  H   UNL     1      41.563 -15.407   4.014  1.00  0.00     0.281 HD
HETATM    4  C   UNL     1      40.945 -16.829   5.339  1.00  0.00     0.236 C 
HETATM    5  C   UNL     1      41.525 -16.120   6.551  1.00  0.00     0.028 C 
HETATM    6  C   UNL     1      43.018 -16.369   6.696  1.00  0.00     0.004 C 
HETATM    7  C   UNL     1      43.760 -15.987   5.421  1.00  0.00     0.040 C 
ENDROOT
BRANCH   2   8
HETATM    8  C   UNL     1      41.023 -17.001   2.855  1.00  0.00     0.294 C 
BRANCH   8   9
HETATM    9  C   UNL     1      41.082 -16.093   1.692  1.00  0.00     0.061 A 
HETATM   10  N   UNL     1      40.047 -15.275   1.280  1.00  0.00    -0.305 N 
HETATM   11  C   UNL     1      40.488 -14.626   0.152  1.00  0.00     0.151 A 
HETATM   12  C   UNL     1      38.764 -15.042   1.746  1.00  0.00     0.118 A 
HETATM   13  C   UNL     1      39.591 -13.729  -0.525  1.00  0.00     0.167 A 
HETATM   14  N   UNL     1      41.721 -14.943  -0.164  1.00  0.00    -0.239 NA
HETATM   15  N   UNL     1      38.374 -13.532  -0.092  1.00  0.00    -0.268 NA
HETATM   16  C   UNL     1      37.980 -14.194   1.058  1.00  0.00     0.134 A 
HETATM   17  C   UNL     1      42.113 -15.818   0.810  1.00  0.00     0.146 A 
ENDBRANCH   8   9
ENDBRANCH   2   8
BRANCH   1  18
HETATM   18  C   UNL     1      43.630 -18.052   3.962  1.00  0.00     0.041 A 
HETATM   19  N   UNL     1      43.587 -18.644   2.713  1.00  0.00    -0.357 N 
HETATM   20  C   UNL     1      43.946 -19.969   2.789  1.00  0.00     0.042 A 
HETATM   21  H   UNL     1      43.304 -18.200   1.848  1.00  0.00     0.166 HD
HETATM   22  C   UNL     1      44.319 -20.218   4.106  1.00  0.00    -0.008 A 
HETATM   23  C   UNL     1      43.980 -20.952   1.795  1.00  0.00     0.030 A 
HETATM   24  C   UNL     1      44.760 -21.508   4.456  1.00  0.00     0.014 A 
HETATM   25  C   UNL     1      44.145 -19.005   4.824  1.00  0.00     0.040 A 
HETATM   26  C   UNL     1      44.800 -22.505   3.475  1.00  0.00     0.001 A 
HETATM   27  C   UNL     1      44.412 -22.229   2.165  1.00  0.00     0.002 A 
ENDBRANCH   1  18
TORSDOF 3
ENDMDL
MODEL 3
REMARK VINA RESULT:      -8.6      1.775      3.042
REMARK  3 active torsions:
REMARK  status: ('A' for Active; 'I' for Inactive)
REMARK    1  A    between atoms: C_7  and  C_8 
REMARK    2  A    between atoms: N_9  and  C_11 
REMARK    3  A    between atoms: C_11  and  C_12 
ROOT
HETATM    1  C   UNL     1      43.078 -15.656   3.354  1.00  0.00     0.238 C 
HETATM    2  N   UNL     1      41.697 -15.172   2.934  1.00  0.00    -0.056 N 
HETATM    3  H   UNL     1      41.770 -14.149   2.908  1.00  0.00     0.281 HD
HETATM    4  C   UNL     1      40.597 -15.476   3.920  1.00  0.00     0.236 C 
HETATM    5  C   UNL     1      40.951 -14.924   5.291  1.00  0.00     0.028 C 
HETATM    6  C   UNL     1      42.290 -15.445   5.786  1.00  0.00     0.004 C 
HETATM    7  C   UNL     1      43.393 -15.164   4.773  1.00  0.00     0.040 C 
ENDROOT
BRANCH   2   8
HETATM    8  C   UNL     1      41.293 -15.580   1.530  1.00  0.00     0.294 C 
BRANCH   8   9
HETATM    9  C   UNL     1      41.540 -14.523   0.529  1.00  0.00     0.061 A 
HETATM   10  N   UNL     1      41.385 -14.680  -0.834  1.00  0.00    -0.305 N 
HETATM   11  C   UNL     1      41.748 -13.485  -1.408  1.00  0.00     0.151 A 
HETATM   12  C   UNL     1      40.993 -15.735  -1.641  1.00  0.00     0.118 A 
HETATM   13  C   UNL     1      41.724 -13.370  -2.841  1.00  0.00     0.167 A 
HETATM   14  N   UNL     1      42.089 -12.582  -0.521  1.00  0.00    -0.239 NA
HETATM   15  N   UNL     1      41.375 -14.378  -3.596  1.00  0.00    -0.268 NA
HETATM   16  C   UNL     1      41.001 -15.556  -2.974  1.00  0.00     0.134 A 
HETATM   17  C   UNL     1      41.922 -13.201   0.686  1.00  0.00     0.146 A 
ENDBRANCH   8   9
ENDBRANCH   2   8
BRANCH   1  18
HETATM   18  C   UNL     1      43.305 -17.124   3.172  1.00  0.00     0.041 A 
HETATM   19  N   UNL     1      43.892 -17.876   4.173  1.00  0.00    -0.357 N 
HETATM   20  C   UNL     1      44.085 -19.172   3.758  1.00  0.00     0.042 A 
HETATM   21  H   UNL     1      44.181 -17.541   5.084  1.00  0.00     0.166 HD
HETATM   22  C   UNL     1      43.526 -19.285   2.489  1.00  0.00    -0.008 A 
HETATM   23  C   UNL     1      44.697 -20.246   4.413  1.00  0.00     0.030 A 
HETATM   24  C   UNL     1      43.565 -20.531   1.837  1.00  0.00     0.014 A 
HETATM   25  C   UNL     1      43.016 -18.005   2.144  1.00  0.00     0.040 A 
HETATM   26  C   UNL     1      44.174 -21.617   2.476  1.00  0.00     0.001 A 
HETATM   27  C   UNL     1      44.733 -21.473   3.744  1.00  0.00     0.002 A 
ENDBRANCH   1  18
TORSDOF 3
ENDMDL
MODEL 4
REMARK VINA RESULT:      -8.4      1.823      6.709
REMARK  3 active torsions:
REMARK  status: ('A' for Active; 'I' for Inactive)
REMARK    1  A    between atoms: C_7  and  C_8 
REMARK    2  A    between atoms: N_9  and  C_11 
REMARK    3  A    between atoms: C_11  and  C_12 
ROOT
HETATM    1  C   UNL     1      40.999 -15.825   2.816  1.00  0.00     0.238 C 
HETATM    2  N   UNL     1      42.289 -16.292   3.475  1.00  0.00    -0.056 N 
HETATM    3  H   UNL     1      41.989 -16.830   4.296  1.00  0.00     0.281 HD
HETATM    4  C   UNL     1      43.158 -15.184   4.012  1.00  0.00     0.236 C 
HETATM    5  C   UNL     1      42.367 -14.311   4.972  1.00  0.00     0.028 C 
HETATM    6  C   UNL     1      41.106 -13.756   4.328  1.00  0.00     0.004 C 
HETATM    7  C   UNL     1      40.246 -14.877   3.759  1.00  0.00     0.040 C 
ENDROOT
BRANCH   2   8
HETATM    8  C   UNL     1      43.103 -17.260   2.638  1.00  0.00     0.294 C 
BRANCH   8   9
HETATM    9  C   UNL     1      43.723 -18.335   3.439  1.00  0.00     0.061 A 
HETATM   10  N   UNL     1      43.889 -19.638   3.012  1.00  0.00    -0.305 N 
HETATM   11  C   UNL     1      44.464 -20.321   4.056  1.00  0.00     0.151 A 
HETATM   12  C   UNL     1      43.581 -20.311   1.842  1.00  0.00     0.118 A 
HETATM   13  C   UNL     1      44.719 -21.728   3.907  1.00  0.00     0.167 A 
HETATM   14  N   UNL     1      44.702 -19.552   5.093  1.00  0.00    -0.239 NA
HETATM   15  N   UNL     1      44.404 -22.361   2.808  1.00  0.00    -0.268 NA
HETATM   16  C   UNL     1      43.842 -21.629   1.777  1.00  0.00     0.134 A 
HETATM   17  C   UNL     1      44.286 -18.310   4.704  1.00  0.00     0.146 A 
ENDBRANCH   8   9
ENDBRANCH   2   8
BRANCH   1  18
HETATM   18  C   UNL     1      41.169 -15.275   1.435  1.00  0.00     0.041 A 
HETATM   19  N   UNL     1      40.724 -15.983   0.334  1.00  0.00    -0.357 N 
HETATM   20  C   UNL     1      41.064 -15.335  -0.830  1.00  0.00     0.042 A 
HETATM   21  H   UNL     1      40.242 -16.873   0.348  1.00  0.00     0.166 HD
HETATM   22  C   UNL     1      41.664 -14.132  -0.472  1.00  0.00    -0.008 A 
HETATM   23  C   UNL     1      40.874 -15.718  -2.163  1.00  0.00     0.030 A 
HETATM   24  C   UNL     1      42.088 -13.254  -1.486  1.00  0.00     0.014 A 
HETATM   25  C   UNL     1      41.698 -14.092   0.948  1.00  0.00     0.040 A 
HETATM   26  C   UNL     1      41.907 -13.621  -2.825  1.00  0.00     0.001 A 
HETATM   27  C   UNL     1      41.312 -14.836  -3.155  1.00  0.00     0.002 A 
ENDBRANCH   1  18
TORSDOF 3
ENDMDL
MODEL 5
REMARK VINA RESULT:      -8.3      1.958      3.050
REMARK  3 active torsions:
REMARK  status: ('A' for Active; 'I' for Inactive)
REMARK    1  A    between atoms: C_7  and  C_8 
REMARK    2  A    between atoms: N_9  and  C_11 
REMARK    3  A    between atoms: C_11  and  C_12 
ROOT
HETATM    1  C   UNL     1      42.914 -15.831   3.381  1.00  0.00     0.238 C 
HETATM    2  N   UNL     1      41.419 -15.552   3.423  1.00  0.00    -0.056 N 
HETATM    3  H   UNL     1      41.330 -14.548   3.232  1.00  0.00     0.281 HD
HETATM    4  C   UNL     1      40.776 -15.767   4.770  1.00  0.00     0.236 C 
HETATM    5  C   UNL     1      41.492 -14.948   5.832  1.00  0.00     0.028 C 
HETATM    6  C   UNL     1      42.980 -15.254   5.880  1.00  0.00     0.004 C 
HETATM    7  C   UNL     1      43.620 -15.066   4.510  1.00  0.00     0.040 C 
ENDROOT
BRANCH   2   8
HETATM    8  C   UNL     1      40.624 -16.239   2.329  1.00  0.00     0.294 C 
BRANCH   8   9
HETATM    9  C   UNL     1      40.569 -15.456   1.079  1.00  0.00     0.061 A 
HETATM   10  N   UNL     1      39.514 -14.647   0.704  1.00  0.00    -0.305 N 
HETATM   11  C   UNL     1      39.835 -14.131  -0.528  1.00  0.00     0.151 A 
HETATM   12  C   UNL     1      38.300 -14.321   1.287  1.00  0.00     0.118 A 
HETATM   13  C   UNL     1      38.888 -13.274  -1.188  1.00  0.00     0.167 A 
HETATM   14  N   UNL     1      41.014 -14.523  -0.948  1.00  0.00    -0.239 NA
HETATM   15  N   UNL     1      37.736 -12.990  -0.642  1.00  0.00    -0.268 NA
HETATM   16  C   UNL     1      37.462 -13.518   0.607  1.00  0.00     0.134 A 
HETATM   17  C   UNL     1      41.496 -15.310   0.061  1.00  0.00     0.146 A 
ENDBRANCH   8   9
ENDBRANCH   2   8
BRANCH   1  18
HETATM   18  C   UNL     1      43.276 -17.282   3.334  1.00  0.00     0.041 A 
HETATM   19  N   UNL     1      43.714 -17.937   4.470  1.00  0.00    -0.357 N 
HETATM   20  C   UNL     1      44.074 -19.231   4.177  1.00  0.00     0.042 A 
HETATM   21  H   UNL     1      43.800 -17.538   5.397  1.00  0.00     0.166 HD
HETATM   22  C   UNL     1      43.776 -19.447   2.836  1.00  0.00    -0.008 A 
HETATM   23  C   UNL     1      44.625 -20.221   4.998  1.00  0.00     0.030 A 
HETATM   24  C   UNL     1      44.025 -20.715   2.279  1.00  0.00     0.014 A 
HETATM   25  C   UNL     1      43.250 -18.230   2.325  1.00  0.00     0.040 A 
HETATM   26  C   UNL     1      44.578 -21.718   3.084  1.00  0.00     0.001 A 
HETATM   27  C   UNL     1      44.875 -21.470   4.423  1.00  0.00     0.002 A 
ENDBRANCH   1  18
TORSDOF 3
ENDMDL
MODEL 6
REMARK VINA RESULT:      -7.9      1.545      2.352
REMARK  3 active torsions:
REMARK  status: ('A' for Active; 'I' for Inactive)
REMARK    1  A    between atoms: C_7  and  C_8 
REMARK    2  A    between atoms: N_9  and  C_11 
REMARK    3  A    between atoms: C_11  and  C_12 
ROOT
HETATM    1  C   UNL     1      43.332 -16.497   4.152  1.00  0.00     0.238 C 
HETATM    2  N   UNL     1      41.943 -15.950   3.857  1.00  0.00    -0.056 N 
HETATM    3  H   UNL     1      42.025 -14.935   3.982  1.00  0.00     0.281 HD
HETATM    4  C   UNL     1      40.874 -16.394   4.822  1.00  0.00     0.236 C 
HETATM    5  C   UNL     1      41.277 -16.056   6.248  1.00  0.00     0.028 C 
HETATM    6  C   UNL     1      42.628 -16.651   6.614  1.00  0.00     0.004 C 
HETATM    7  C   UNL     1      43.699 -16.226   5.618  1.00  0.00     0.040 C 
ENDROOT
BRANCH   2   8
HETATM    8  C   UNL     1      41.490 -16.141   2.422  1.00  0.00     0.294 C 
BRANCH   8   9
HETATM    9  C   UNL     1      40.484 -15.146   1.999  1.00  0.00     0.061 A 
HETATM   10  N   UNL     1      40.775 -13.858   1.593  1.00  0.00    -0.305 N 
HETATM   11  C   UNL     1      39.571 -13.252   1.324  1.00  0.00     0.151 A 
HETATM   12  C   UNL     1      41.950 -13.138   1.452  1.00  0.00     0.118 A 
HETATM   13  C   UNL     1      39.566 -11.874   0.914  1.00  0.00     0.167 A 
HETATM   14  N   UNL     1      38.551 -14.057   1.496  1.00  0.00    -0.239 NA
HETATM   15  N   UNL     1      40.678 -11.195   0.806  1.00  0.00    -0.268 NA
HETATM   16  C   UNL     1      41.867 -11.851   1.071  1.00  0.00     0.134 A 
HETATM   17  C   UNL     1      39.108 -15.247   1.873  1.00  0.00     0.146 A 
ENDBRANCH   8   9
ENDBRANCH   2   8
BRANCH   1  18
HETATM   18  C   UNL     1      43.540 -17.922   3.745  1.00  0.00     0.041 A 
HETATM   19  N   UNL     1      44.049 -18.845   4.640  1.00  0.00    -0.357 N 
HETATM   20  C   UNL     1      44.240 -20.061   4.028  1.00  0.00     0.042 A 
HETATM   21  H   UNL     1      44.288 -18.672   5.609  1.00  0.00     0.166 HD
HETATM   22  C   UNL     1      43.759 -19.948   2.728  1.00  0.00    -0.008 A 
HETATM   23  C   UNL     1      44.788 -21.246   4.532  1.00  0.00     0.030 A 
HETATM   24  C   UNL     1      43.811 -21.072   1.883  1.00  0.00     0.014 A 
HETATM   25  C   UNL     1      43.297 -18.614   2.571  1.00  0.00     0.040 A 
HETATM   26  C   UNL     1      44.357 -22.266   2.368  1.00  0.00     0.001 A 
HETATM   27  C   UNL     1      44.840 -22.347   3.673  1.00  0.00     0.002 A 
ENDBRANCH   1  18
TORSDOF 3
ENDMDL
MODEL 7
REMARK VINA RESULT:      -7.8      1.965      6.853
REMARK  3 active torsions:
REMARK  status: ('A' for Active; 'I' for Inactive)
REMARK    1  A    between atoms: C_7  and  C_8 
REMARK    2  A    between atoms: N_9  and  C_11 
REMARK    3  A    between atoms: C_11  and  C_12 
ROOT
HETATM    1  C   UNL     1      41.142 -15.639   2.455  1.00  0.00     0.238 C 
HETATM    2  N   UNL     1      42.456 -15.622   3.224  1.00  0.00    -0.056 N 
HETATM    3  H   UNL     1      42.289 -16.207   4.049  1.00  0.00     0.281 HD
HETATM    4  C   UNL     1      42.853 -14.270   3.760  1.00  0.00     0.236 C 
HETATM    5  C   UNL     1      41.737 -13.693   4.616  1.00  0.00     0.028 C 
HETATM    6  C   UNL     1      40.420 -13.618   3.860  1.00  0.00     0.004 C 
HETATM    7  C   UNL     1      40.038 -14.979   3.293  1.00  0.00     0.040 C 
ENDROOT
BRANCH   2   8
HETATM    8  C   UNL     1      43.614 -16.276   2.495  1.00  0.00     0.294 C 
BRANCH   8   9
HETATM    9  C   UNL     1      43.825 -17.681   2.896  1.00  0.00     0.061 A 
HETATM   10  N   UNL     1      43.944 -18.118   4.201  1.00  0.00    -0.305 N 
HETATM   11  C   UNL     1      44.166 -19.472   4.142  1.00  0.00     0.151 A 
HETATM   12  C   UNL     1      43.908 -17.483   5.432  1.00  0.00     0.118 A 
HETATM   13  C   UNL     1      44.371 -20.194   5.369  1.00  0.00     0.167 A 
HETATM   14  N   UNL     1      44.167 -19.931   2.913  1.00  0.00    -0.239 NA
HETATM   15  N   UNL     1      44.358 -19.585   6.524  1.00  0.00    -0.268 NA
HETATM   16  C   UNL     1      44.114 -18.223   6.537  1.00  0.00     0.134 A 
HETATM   17  C   UNL     1      43.913 -18.836   2.136  1.00  0.00     0.146 A 
ENDBRANCH   8   9
ENDBRANCH   2   8
BRANCH   1  18
HETATM   18  C   UNL     1      41.229 -15.100   1.062  1.00  0.00     0.041 A 
HETATM   19  N   UNL     1      40.791 -15.851  -0.014  1.00  0.00    -0.357 N 
HETATM   20  C   UNL     1      41.048 -15.201  -1.198  1.00  0.00     0.042 A 
HETATM   21  H   UNL     1      40.365 -16.769   0.029  1.00  0.00     0.166 HD
HETATM   22  C   UNL     1      41.583 -13.958  -0.876  1.00  0.00    -0.008 A 
HETATM   23  C   UNL     1      40.835 -15.615  -2.517  1.00  0.00     0.030 A 
HETATM   24  C   UNL     1      41.916 -13.071  -1.917  1.00  0.00     0.014 A 
HETATM   25  C   UNL     1      41.665 -13.894   0.541  1.00  0.00     0.040 A 
HETATM   26  C   UNL     1      41.712 -13.467  -3.243  1.00  0.00     0.001 A 
HETATM   27  C   UNL     1      41.182 -14.723  -3.536  1.00  0.00     0.002 A 
ENDBRANCH   1  18
TORSDOF 3
ENDMDL
MODEL 8
REMARK VINA RESULT:      -7.7      2.341      4.131
REMARK  3 active torsions:
REMARK  status: ('A' for Active; 'I' for Inactive)
REMARK    1  A    between atoms: C_7  and  C_8 
REMARK    2  A    between atoms: N_9  and  C_11 
REMARK    3  A    between atoms: C_11  and  C_12 
ROOT
HETATM    1  C   UNL     1      42.388 -14.399   3.232  1.00  0.00     0.238 C 
HETATM    2  N   UNL     1      40.869 -14.336   3.153  1.00  0.00    -0.056 N 
HETATM    3  H   UNL     1      40.661 -13.408   2.767  1.00  0.00     0.281 HD
HETATM    4  C   UNL     1      40.167 -14.386   4.486  1.00  0.00     0.236 C 
HETATM    5  C   UNL     1      40.690 -13.290   5.399  1.00  0.00     0.028 C 
HETATM    6  C   UNL     1      42.199 -13.364   5.571  1.00  0.00     0.004 C 
HETATM    7  C   UNL     1      42.903 -13.345   4.220  1.00  0.00     0.040 C 
ENDROOT
BRANCH   2   8
HETATM    8  C   UNL     1      40.253 -15.322   2.179  1.00  0.00     0.294 C 
BRANCH   8   9
HETATM    9  C   UNL     1      40.005 -14.737   0.847  1.00  0.00     0.061 A 
HETATM   10  N   UNL     1      38.968 -13.874   0.547  1.00  0.00    -0.305 N 
HETATM   11  C   UNL     1      39.068 -13.594  -0.794  1.00  0.00     0.151 A 
HETATM   12  C   UNL     1      37.936 -13.321   1.287  1.00  0.00     0.118 A 
HETATM   13  C   UNL     1      38.081 -12.740  -1.398  1.00  0.00     0.167 A 
HETATM   14  N   UNL     1      40.095 -14.183  -1.358  1.00  0.00    -0.239 NA
HETATM   15  N   UNL     1      37.097 -12.241  -0.699  1.00  0.00    -0.268 NA
HETATM   16  C   UNL     1      37.046 -12.537   0.652  1.00  0.00     0.134 A 
HETATM   17  C   UNL     1      40.708 -14.858  -0.341  1.00  0.00     0.146 A 
ENDBRANCH   8   9
ENDBRANCH   2   8
BRANCH   1  18
HETATM   18  C   UNL     1      42.941 -15.767   3.483  1.00  0.00     0.041 A 
HETATM   19  N   UNL     1      43.316 -16.581   2.430  1.00  0.00    -0.357 N 
HETATM   20  C   UNL     1      43.708 -17.817   2.887  1.00  0.00     0.042 A 
HETATM   21  H   UNL     1      43.285 -16.342   1.447  1.00  0.00     0.166 HD
HETATM   22  C   UNL     1      43.674 -17.772   4.277  1.00  0.00    -0.008 A 
HETATM   23  C   UNL     1      44.100 -18.957   2.177  1.00  0.00     0.030 A 
HETATM   24  C   UNL     1      44.060 -18.913   5.005  1.00  0.00     0.014 A 
HETATM   25  C   UNL     1      43.221 -16.475   4.639  1.00  0.00     0.040 A 
HETATM   26  C   UNL     1      44.453 -20.063   4.312  1.00  0.00     0.001 A 
HETATM   27  C   UNL     1      44.469 -20.083   2.919  1.00  0.00     0.002 A 
ENDBRANCH   1  18
TORSDOF 3
ENDMDL
MODEL 9
REMARK VINA RESULT:      -7.6      2.428      5.127
REMARK  3 active torsions:
REMARK  status: ('A' for Active; 'I' for Inactive)
REMARK    1  A    between atoms: C_7  and  C_8 
REMARK    2  A    between atoms: N_9  and  C_11 
REMARK    3  A    between atoms: C_11  and  C_12 
ROOT
HETATM    1  C   UNL     1      40.865 -16.011   3.018  1.00  0.00     0.238 C 
HETATM    2  N   UNL     1      41.511 -14.945   2.145  1.00  0.00    -0.056 N 
HETATM    3  H   UNL     1      40.728 -14.472   1.681  1.00  0.00     0.281 HD
HETATM    4  C   UNL     1      42.376 -15.482   1.033  1.00  0.00     0.236 C 
HETATM    5  C   UNL     1      41.587 -16.455   0.173  1.00  0.00     0.028 C 
HETATM    6  C   UNL     1      40.989 -17.585   0.996  1.00  0.00     0.004 C 
HETATM    7  C   UNL     1      40.141 -17.039   2.137  1.00  0.00     0.040 C 
ENDROOT
BRANCH   2   8
HETATM    8  C   UNL     1      42.235 -13.859   2.917  1.00  0.00     0.294 C 
BRANCH   8   9
HETATM    9  C   UNL     1      41.405 -12.658   3.137  1.00  0.00     0.061 A 
HETATM   10  N   UNL     1      40.712 -12.383   4.300  1.00  0.00    -0.305 N 
HETATM   11  C   UNL     1      40.043 -11.202   4.086  1.00  0.00     0.151 A 
HETATM   12  C   UNL     1      40.570 -13.040   5.511  1.00  0.00     0.118 A 
HETATM   13  C   UNL     1      39.197 -10.688   5.129  1.00  0.00     0.167 A 
HETATM   14  N   UNL     1      40.278 -10.696   2.900  1.00  0.00    -0.239 NA
HETATM   15  N   UNL     1      39.050 -11.326   6.260  1.00  0.00    -0.268 NA
HETATM   16  C   UNL     1      39.757 -12.502   6.437  1.00  0.00     0.134 A 
HETATM   17  C   UNL     1      41.156 -11.568   2.319  1.00  0.00     0.146 A 
ENDBRANCH   8   9
ENDBRANCH   2   8
BRANCH   1  18
HETATM   18  C   UNL     1      41.785 -16.636   4.020  1.00  0.00     0.041 A 
HETATM   19  N   UNL     1      41.470 -16.629   5.366  1.00  0.00    -0.357 N 
HETATM   20  C   UNL     1      42.492 -17.172   6.108  1.00  0.00     0.042 A 
HETATM   21  H   UNL     1      40.626 -16.255   5.784  1.00  0.00     0.166 HD
HETATM   22  C   UNL     1      43.455 -17.625   5.211  1.00  0.00    -0.008 A 
HETATM   23  C   UNL     1      42.627 -17.306   7.494  1.00  0.00     0.030 A 
HETATM   24  C   UNL     1      44.609 -18.255   5.713  1.00  0.00     0.014 A 
HETATM   25  C   UNL     1      42.988 -17.310   3.907  1.00  0.00     0.040 A 
HETATM   26  C   UNL     1      44.762 -18.397   7.097  1.00  0.00     0.001 A 
HETATM   27  C   UNL     1      43.786 -17.926   7.972  1.00  0.00     0.002 A 
ENDBRANCH   1  18
TORSDOF 3
ENDMDL
MODEL 10
REMARK VINA RESULT:      -7.5      2.024      5.921
REMARK  3 active torsions:
REMARK  status: ('A' for Active; 'I' for Inactive)
REMARK    1  A    between atoms: C_7  and  C_8 
REMARK    2  A    between atoms: N_9  and  C_11 
REMARK    3  A    between atoms: C_11  and  C_12 
ROOT
HETATM    1  C   UNL     1      40.793 -14.710   5.461  1.00  0.00     0.238 C 
HETATM    2  N   UNL     1      42.067 -14.183   6.106  1.00  0.00    -0.056 N 
HETATM    3  H   UNL     1      41.948 -14.357   7.110  1.00  0.00     0.281 HD
HETATM    4  C   UNL     1      42.270 -12.695   5.974  1.00  0.00     0.236 C 
HETATM    5  C   UNL     1      41.062 -11.948   6.514  1.00  0.00     0.028 C 
HETATM    6  C   UNL     1      39.772 -12.387   5.839  1.00  0.00     0.004 C 
HETATM    7  C   UNL     1      39.586 -13.895   5.948  1.00  0.00     0.040 C 
ENDROOT
BRANCH   2   8
HETATM    8  C   UNL     1      43.323 -14.937   5.714  1.00  0.00     0.294 C 
BRANCH   8   9
HETATM    9  C   UNL     1      43.463 -16.228   6.418  1.00  0.00     0.061 A 
HETATM   10  N   UNL     1      43.741 -17.433   5.803  1.00  0.00    -0.305 N 
HETATM   11  C   UNL     1      43.751 -18.385   6.794  1.00  0.00     0.151 A 
HETATM   12  C   UNL     1      43.963 -17.811   4.489  1.00  0.00     0.118 A 
HETATM   13  C   UNL     1      43.978 -19.758   6.433  1.00  0.00     0.167 A 
HETATM   14  N   UNL     1      43.532 -17.877   7.983  1.00  0.00    -0.239 NA
HETATM   15  N   UNL     1      44.163 -20.110   5.188  1.00  0.00    -0.268 NA
HETATM   16  C   UNL     1      44.162 -19.115   4.226  1.00  0.00     0.134 A 
HETATM   17  C   UNL     1      43.395 -16.535   7.767  1.00  0.00     0.146 A 
ENDBRANCH   8   9
ENDBRANCH   2   8
BRANCH   1  18
HETATM   18  C   UNL     1      40.857 -14.840   3.972  1.00  0.00     0.041 A 
HETATM   19  N   UNL     1      40.954 -16.084   3.376  1.00  0.00    -0.357 N 
HETATM   20  C   UNL     1      41.090 -15.962   2.013  1.00  0.00     0.042 A 
HETATM   21  H   UNL     1      40.959 -16.979   3.852  1.00  0.00     0.166 HD
HETATM   22  C   UNL     1      40.987 -14.608   1.710  1.00  0.00    -0.008 A 
HETATM   23  C   UNL     1      41.282 -16.944   1.035  1.00  0.00     0.030 A 
HETATM   24  C   UNL     1      41.067 -14.204   0.365  1.00  0.00     0.014 A 
HETATM   25  C   UNL     1      40.812 -13.919   2.940  1.00  0.00     0.040 A 
HETATM   26  C   UNL     1      41.260 -15.172  -0.628  1.00  0.00     0.001 A 
HETATM   27  C   UNL     1      41.369 -16.521  -0.294  1.00  0.00     0.002 A 
ENDBRANCH   1  18
TORSDOF 3
ENDMDL
