MODEL 1
REMARK VINA RESULT:      -9.1      0.000      0.000
REMARK  6 active torsions:
REMARK  status: ('A' for Active; 'I' for Inactive)
REMARK    1  A    between atoms: C_2  and  C_3 
REMARK    2  A    between atoms: C_6  and  C_7 
REMARK    3  A    between atoms: C_11  and  C_12 
REMARK       I    between atoms: C_12  and  N_13 
REMARK    4  A    between atoms: N_13  and  N_14 
REMARK    5  A    between atoms: C_15  and  C_16 
REMARK    6  A    between atoms: C_19  and  O_20 
ROOT
HETATM    1  C   UNL     1      45.245 -13.354   7.565  1.00  0.00     0.289 C 
HETATM    2  N   UNL     1      44.336 -14.401   7.541  1.00  0.00    -0.241 N 
HETATM    3  O   UNL     1      46.196 -13.240   6.796  1.00  0.00    -0.264 OA
HETATM    4  H   UNL     1      43.588 -14.433   8.218  1.00  0.00     0.192 HD
ENDROOT
BRANCH   1   5
HETATM    5  C   UNL     1      45.008 -12.386   8.609  1.00  0.00     0.121 A 
HETATM    6  N   UNL     1      45.881 -11.361   8.843  1.00  0.00    -0.272 N 
HETATM    7  N   UNL     1      45.538 -10.570   9.871  1.00  0.00    -0.174 NA
HETATM    8  H   UNL     1      46.740 -11.168   8.335  1.00  0.00     0.189 HD
HETATM    9  C   UNL     1      44.372 -11.068  10.309  1.00  0.00     0.089 A 
HETATM   10  C   UNL     1      44.006 -12.210   9.543  1.00  0.00     0.071 A 
BRANCH   9  11
HETATM   11  C   UNL     1      43.648 -10.476  11.438  1.00  0.00    -0.006 A 
HETATM   12  C   UNL     1      43.275 -11.254  12.543  1.00  0.00     0.014 A 
HETATM   13  C   UNL     1      42.609 -10.679  13.630  1.00  0.00     0.008 A 
HETATM   14  C   UNL     1      42.298  -9.314  13.631  1.00  0.00    -0.059 A 
HETATM   15  C   UNL     1      42.664  -8.535  12.527  1.00  0.00     0.008 A 
HETATM   16  C   UNL     1      43.326  -9.112  11.441  1.00  0.00     0.014 A 
BRANCH  14  17
HETATM   17  C   UNL     1      41.607  -8.690  14.816  1.00  0.00     0.034 C 
HETATM   18  C   UNL     1      41.775  -9.530  16.074  1.00  0.00     0.010 C 
ENDBRANCH  14  17
ENDBRANCH   9  11
ENDBRANCH   1   5
BRANCH   2  19
HETATM   19  N   UNL     1      44.436 -15.381   6.601  1.00  0.00    -0.176 NA
HETATM   20  C   UNL     1      43.994 -16.576   6.872  1.00  0.00     0.061 C 
HETATM   21  C   UNL     1      43.415 -16.971   8.217  1.00  0.00     0.073 C 
BRANCH  20  22
HETATM   22  C   UNL     1      44.069 -17.617   5.794  1.00  0.00    -0.010 A 
HETATM   23  C   UNL     1      44.663 -18.854   6.089  1.00  0.00     0.016 A 
HETATM   24  C   UNL     1      44.755 -19.850   5.112  1.00  0.00     0.037 A 
HETATM   25  C   UNL     1      44.255 -19.604   3.839  1.00  0.00     0.065 A 
HETATM   26  C   UNL     1      43.675 -18.381   3.526  1.00  0.00     0.037 A 
HETATM   27  C   UNL     1      43.586 -17.382   4.500  1.00  0.00     0.016 A 
BRANCH  25  28
HETATM   28  O   UNL     1      44.320 -20.544   2.855  1.00  0.00    -0.361 OA
HETATM   29  H   UNL     1      45.237 -20.599   2.538  1.00  0.00     0.217 HD
ENDBRANCH  25  28
ENDBRANCH  20  22
ENDBRANCH   2  19
TORSDOF 6
ENDMDL
MODEL 2
REMARK VINA RESULT:      -8.4      2.653     10.790
REMARK  6 active torsions:
REMARK  status: ('A' for Active; 'I' for Inactive)
REMARK    1  A    between atoms: C_2  and  C_3 
REMARK    2  A    between atoms: C_6  and  C_7 
REMARK    3  A    between atoms: C_11  and  C_12 
REMARK       I    between atoms: C_12  and  N_13 
REMARK    4  A    between atoms: N_13  and  N_14 
REMARK    5  A    between atoms: C_15  and  C_16 
REMARK    6  A    between atoms: C_19  and  O_20 
ROOT
HETATM    1  C   UNL     1      44.135 -13.147   7.793  1.00  0.00     0.289 C 
HETATM    2  N   UNL     1      43.218 -12.129   8.009  1.00  0.00    -0.241 N 
HETATM    3  O   UNL     1      45.115 -13.364   8.502  1.00  0.00    -0.264 OA
HETATM    4  H   UNL     1      42.446 -12.005   7.371  1.00  0.00     0.192 HD
ENDROOT
BRANCH   1   5
HETATM    5  C   UNL     1      43.869 -13.947   6.622  1.00  0.00     0.121 A 
HETATM    6  N   UNL     1      43.276 -13.413   5.512  1.00  0.00    -0.272 N 
HETATM    7  N   UNL     1      43.062 -14.295   4.524  1.00  0.00    -0.174 NA
HETATM    8  H   UNL     1      42.981 -12.448   5.387  1.00  0.00     0.189 HD
HETATM    9  C   UNL     1      43.569 -15.449   4.983  1.00  0.00     0.089 A 
HETATM   10  C   UNL     1      44.084 -15.272   6.298  1.00  0.00     0.071 A 
BRANCH   9  11
HETATM   11  C   UNL     1      43.539 -16.681   4.190  1.00  0.00    -0.006 A 
HETATM   12  C   UNL     1      43.389 -16.639   2.796  1.00  0.00     0.014 A 
HETATM   13  C   UNL     1      43.389 -17.817   2.042  1.00  0.00     0.008 A 
HETATM   14  C   UNL     1      43.535 -19.061   2.666  1.00  0.00    -0.059 A 
HETATM   15  C   UNL     1      43.679 -19.108   4.057  1.00  0.00     0.008 A 
HETATM   16  C   UNL     1      43.676 -17.931   4.811  1.00  0.00     0.014 A 
BRANCH  14  17
HETATM   17  C   UNL     1      43.564 -20.327   1.848  1.00  0.00     0.034 C 
HETATM   18  C   UNL     1      44.354 -21.428   2.539  1.00  0.00     0.010 C 
ENDBRANCH  14  17
ENDBRANCH   9  11
ENDBRANCH   1   5
BRANCH   2  19
HETATM   19  N   UNL     1      43.344 -11.304   9.084  1.00  0.00    -0.176 NA
HETATM   20  C   UNL     1      42.302 -10.653   9.517  1.00  0.00     0.061 C 
HETATM   21  C   UNL     1      40.940 -10.712   8.852  1.00  0.00     0.073 C 
BRANCH  20  22
HETATM   22  C   UNL     1      42.463  -9.796  10.737  1.00  0.00    -0.010 A 
HETATM   23  C   UNL     1      43.301 -10.242  11.771  1.00  0.00     0.016 A 
HETATM   24  C   UNL     1      43.477  -9.475  12.926  1.00  0.00     0.037 A 
HETATM   25  C   UNL     1      42.809  -8.262  13.047  1.00  0.00     0.065 A 
HETATM   26  C   UNL     1      41.965  -7.810  12.039  1.00  0.00     0.037 A 
HETATM   27  C   UNL     1      41.785  -8.579  10.886  1.00  0.00     0.016 A 
BRANCH  25  28
HETATM   28  O   UNL     1      42.950  -7.479  14.153  1.00  0.00    -0.361 OA
HETATM   29  H   UNL     1      42.870  -6.549  13.887  1.00  0.00     0.217 HD
ENDBRANCH  25  28
ENDBRANCH  20  22
ENDBRANCH   2  19
TORSDOF 6
ENDMDL
MODEL 3
REMARK VINA RESULT:      -8.3      9.039     12.402
REMARK  6 active torsions:
REMARK  status: ('A' for Active; 'I' for Inactive)
REMARK    1  A    between atoms: C_2  and  C_3 
REMARK    2  A    between atoms: C_6  and  C_7 
REMARK    3  A    between atoms: C_11  and  C_12 
REMARK       I    between atoms: C_12  and  N_13 
REMARK    4  A    between atoms: N_13  and  N_14 
REMARK    5  A    between atoms: C_15  and  C_16 
REMARK    6  A    between atoms: C_19  and  O_20 
ROOT
HETATM    1  C   UNL     1      40.996 -14.749  -0.853  1.00  0.00     0.289 C 
HETATM    2  N   UNL     1      42.152 -14.158  -1.342  1.00  0.00    -0.241 N 
HETATM    3  O   UNL     1      39.858 -14.454  -1.212  1.00  0.00    -0.264 OA
HETATM    4  H   UNL     1      43.051 -14.444  -0.985  1.00  0.00     0.192 HD
ENDROOT
BRANCH   1   5
HETATM    5  C   UNL     1      41.223 -15.750   0.161  1.00  0.00     0.121 A 
HETATM    6  N   UNL     1      40.225 -16.152   1.004  1.00  0.00    -0.272 N 
HETATM    7  N   UNL     1      40.605 -17.060   1.915  1.00  0.00    -0.174 NA
HETATM    8  H   UNL     1      39.264 -15.820   1.007  1.00  0.00     0.189 HD
HETATM    9  C   UNL     1      41.896 -17.298   1.638  1.00  0.00     0.089 A 
HETATM   10  C   UNL     1      42.322 -16.493   0.544  1.00  0.00     0.071 A 
BRANCH   9  11
HETATM   11  C   UNL     1      42.695 -18.251   2.414  1.00  0.00    -0.006 A 
HETATM   12  C   UNL     1      43.328 -19.337   1.792  1.00  0.00     0.014 A 
HETATM   13  C   UNL     1      44.111 -20.228   2.532  1.00  0.00     0.008 A 
HETATM   14  C   UNL     1      44.274 -20.053   3.912  1.00  0.00    -0.059 A 
HETATM   15  C   UNL     1      43.640 -18.975   4.537  1.00  0.00     0.008 A 
HETATM   16  C   UNL     1      42.855 -18.087   3.797  1.00  0.00     0.014 A 
BRANCH  14  17
HETATM   17  C   UNL     1      45.143 -20.997   4.702  1.00  0.00     0.034 C 
HETATM   18  C   UNL     1      44.708 -22.445   4.527  1.00  0.00     0.010 C 
ENDBRANCH  14  17
ENDBRANCH   9  11
ENDBRANCH   1   5
BRANCH   2  19
HETATM   19  N   UNL     1      42.084 -13.204  -2.310  1.00  0.00    -0.176 NA
HETATM   20  C   UNL     1      42.380 -11.970  -2.015  1.00  0.00     0.061 C 
HETATM   21  C   UNL     1      42.749 -11.507  -0.620  1.00  0.00     0.073 C 
BRANCH  20  22
HETATM   22  C   UNL     1      42.349 -10.955  -3.120  1.00  0.00    -0.010 A 
HETATM   23  C   UNL     1      42.398  -9.592  -2.786  1.00  0.00     0.016 A 
HETATM   24  C   UNL     1      42.370  -8.614  -3.784  1.00  0.00     0.037 A 
HETATM   25  C   UNL     1      42.287  -9.002  -5.116  1.00  0.00     0.065 A 
HETATM   26  C   UNL     1      42.225 -10.346  -5.464  1.00  0.00     0.037 A 
HETATM   27  C   UNL     1      42.249 -11.325  -4.467  1.00  0.00     0.016 A 
BRANCH  25  28
HETATM   28  O   UNL     1      42.258  -8.085  -6.124  1.00  0.00    -0.361 OA
HETATM   29  H   UNL     1      42.095  -8.549  -6.961  1.00  0.00     0.217 HD
ENDBRANCH  25  28
ENDBRANCH  20  22
ENDBRANCH   2  19
TORSDOF 6
ENDMDL
MODEL 4
REMARK VINA RESULT:      -7.9      8.684     10.759
REMARK  6 active torsions:
REMARK  status: ('A' for Active; 'I' for Inactive)
REMARK    1  A    between atoms: C_2  and  C_3 
REMARK    2  A    between atoms: C_6  and  C_7 
REMARK    3  A    between atoms: C_11  and  C_12 
REMARK       I    between atoms: C_12  and  N_13 
REMARK    4  A    between atoms: N_13  and  N_14 
REMARK    5  A    between atoms: C_15  and  C_16 
REMARK    6  A    between atoms: C_19  and  O_20 
ROOT
HETATM    1  C   UNL     1      41.594 -16.655   0.586  1.00  0.00     0.289 C 
HETATM    2  N   UNL     1      42.940 -16.985   0.617  1.00  0.00    -0.241 N 
HETATM    3  O   UNL     1      40.690 -17.378   0.995  1.00  0.00    -0.264 OA
HETATM    4  H   UNL     1      43.624 -16.342   0.246  1.00  0.00     0.192 HD
ENDROOT
BRANCH   1   5
HETATM    5  C   UNL     1      41.311 -15.370  -0.006  1.00  0.00     0.121 A 
HETATM    6  N   UNL     1      40.070 -15.065  -0.493  1.00  0.00    -0.272 N 
HETATM    7  N   UNL     1      39.980 -13.847  -1.046  1.00  0.00    -0.174 NA
HETATM    8  H   UNL     1      39.252 -15.668  -0.487  1.00  0.00     0.189 HD
HETATM    9  C   UNL     1      41.197 -13.308  -0.882  1.00  0.00     0.089 A 
HETATM   10  C   UNL     1      42.062 -14.234  -0.235  1.00  0.00     0.071 A 
BRANCH   9  11
HETATM   11  C   UNL     1      41.520 -11.957  -1.352  1.00  0.00    -0.006 A 
HETATM   12  C   UNL     1      42.847 -11.574  -1.591  1.00  0.00     0.014 A 
HETATM   13  C   UNL     1      43.148 -10.294  -2.065  1.00  0.00     0.008 A 
HETATM   14  C   UNL     1      42.126  -9.367  -2.305  1.00  0.00    -0.059 A 
HETATM   15  C   UNL     1      40.800  -9.743  -2.062  1.00  0.00     0.008 A 
HETATM   16  C   UNL     1      40.502 -11.022  -1.585  1.00  0.00     0.014 A 
BRANCH  14  17
HETATM   17  C   UNL     1      42.449  -7.997  -2.845  1.00  0.00     0.034 C 
HETATM   18  C   UNL     1      42.414  -7.967  -4.365  1.00  0.00     0.010 C 
ENDBRANCH  14  17
ENDBRANCH   9  11
ENDBRANCH   1   5
BRANCH   2  19
HETATM   19  N   UNL     1      43.350 -18.166   1.158  1.00  0.00    -0.176 NA
HETATM   20  C   UNL     1      43.645 -18.221   2.425  1.00  0.00     0.061 C 
HETATM   21  C   UNL     1      43.616 -17.017   3.347  1.00  0.00     0.073 C 
BRANCH  20  22
HETATM   22  C   UNL     1      44.038 -19.550   2.999  1.00  0.00    -0.010 A 
HETATM   23  C   UNL     1      43.983 -20.685   2.176  1.00  0.00     0.016 A 
HETATM   24  C   UNL     1      44.339 -21.942   2.672  1.00  0.00     0.037 A 
HETATM   25  C   UNL     1      44.745 -22.063   3.996  1.00  0.00     0.065 A 
HETATM   26  C   UNL     1      44.794 -20.952   4.829  1.00  0.00     0.037 A 
HETATM   27  C   UNL     1      44.434 -19.694   4.335  1.00  0.00     0.016 A 
BRANCH  25  28
HETATM   28  O   UNL     1      45.103 -23.267   4.524  1.00  0.00    -0.361 OA
HETATM   29  H   UNL     1      44.976 -23.952   3.848  1.00  0.00     0.217 HD
ENDBRANCH  25  28
ENDBRANCH  20  22
ENDBRANCH   2  19
TORSDOF 6
ENDMDL
MODEL 5
REMARK VINA RESULT:      -7.9      8.365     12.169
REMARK  6 active torsions:
REMARK  status: ('A' for Active; 'I' for Inactive)
REMARK    1  A    between atoms: C_2  and  C_3 
REMARK    2  A    between atoms: C_6  and  C_7 
REMARK    3  A    between atoms: C_11  and  C_12 
REMARK       I    between atoms: C_12  and  N_13 
REMARK    4  A    between atoms: N_13  and  N_14 
REMARK    5  A    between atoms: C_15  and  C_16 
REMARK    6  A    between atoms: C_19  and  O_20 
ROOT
HETATM    1  C   UNL     1      40.021 -14.822   0.797  1.00  0.00     0.289 C 
HETATM    2  N   UNL     1      40.084 -14.874  -0.588  1.00  0.00    -0.241 N 
HETATM    3  O   UNL     1      39.147 -14.236   1.432  1.00  0.00    -0.264 OA
HETATM    4  H   UNL     1      40.844 -15.363  -1.038  1.00  0.00     0.192 HD
ENDROOT
BRANCH   1   5
HETATM    5  C   UNL     1      41.102 -15.503   1.467  1.00  0.00     0.121 A 
HETATM    6  N   UNL     1      42.269 -14.861   1.773  1.00  0.00    -0.272 N 
HETATM    7  N   UNL     1      43.189 -15.642   2.360  1.00  0.00    -0.174 NA
HETATM    8  H   UNL     1      42.494 -13.888   1.584  1.00  0.00     0.189 HD
HETATM    9  C   UNL     1      42.591 -16.837   2.484  1.00  0.00     0.089 A 
HETATM   10  C   UNL     1      41.280 -16.791   1.933  1.00  0.00     0.071 A 
BRANCH   9  11
HETATM   11  C   UNL     1      43.269 -17.986   3.091  1.00  0.00    -0.006 A 
HETATM   12  C   UNL     1      43.522 -18.028   4.470  1.00  0.00     0.014 A 
HETATM   13  C   UNL     1      44.144 -19.138   5.049  1.00  0.00     0.008 A 
HETATM   14  C   UNL     1      44.530 -20.229   4.259  1.00  0.00    -0.059 A 
HETATM   15  C   UNL     1      44.283 -20.189   2.883  1.00  0.00     0.008 A 
HETATM   16  C   UNL     1      43.664 -19.077   2.305  1.00  0.00     0.014 A 
BRANCH  14  17
HETATM   17  C   UNL     1      45.172 -21.437   4.890  1.00  0.00     0.034 C 
HETATM   18  C   UNL     1      44.670 -22.732   4.269  1.00  0.00     0.010 C 
ENDBRANCH  14  17
ENDBRANCH   9  11
ENDBRANCH   1   5
BRANCH   2  19
HETATM   19  N   UNL     1      39.122 -14.281  -1.346  1.00  0.00    -0.176 NA
HETATM   20  C   UNL     1      39.057 -14.546  -2.620  1.00  0.00     0.061 C 
HETATM   21  C   UNL     1      40.040 -15.449  -3.340  1.00  0.00     0.073 C 
BRANCH  20  22
HETATM   22  C   UNL     1      37.950 -13.919  -3.415  1.00  0.00    -0.010 A 
HETATM   23  C   UNL     1      37.879 -12.519  -3.487  1.00  0.00     0.016 A 
HETATM   24  C   UNL     1      36.863 -11.894  -4.215  1.00  0.00     0.037 A 
HETATM   25  C   UNL     1      35.913 -12.673  -4.866  1.00  0.00     0.065 A 
HETATM   26  C   UNL     1      35.960 -14.060  -4.795  1.00  0.00     0.037 A 
HETATM   27  C   UNL     1      36.974 -14.686  -4.064  1.00  0.00     0.016 A 
BRANCH  25  28
HETATM   28  O   UNL     1      34.905 -12.110  -5.590  1.00  0.00    -0.361 OA
HETATM   29  H   UNL     1      34.180 -11.881  -4.985  1.00  0.00     0.217 HD
ENDBRANCH  25  28
ENDBRANCH  20  22
ENDBRANCH   2  19
TORSDOF 6
ENDMDL
MODEL 6
REMARK VINA RESULT:      -7.8      2.956     10.885
REMARK  6 active torsions:
REMARK  status: ('A' for Active; 'I' for Inactive)
REMARK    1  A    between atoms: C_2  and  C_3 
REMARK    2  A    between atoms: C_6  and  C_7 
REMARK    3  A    between atoms: C_11  and  C_12 
REMARK       I    between atoms: C_12  and  N_13 
REMARK    4  A    between atoms: N_13  and  N_14 
REMARK    5  A    between atoms: C_15  and  C_16 
REMARK    6  A    between atoms: C_19  and  O_20 
ROOT
HETATM    1  C   UNL     1      42.109 -13.150   5.987  1.00  0.00     0.289 C 
HETATM    2  N   UNL     1      43.018 -12.772   6.963  1.00  0.00    -0.241 N 
HETATM    3  O   UNL     1      40.971 -12.699   5.883  1.00  0.00    -0.264 OA
HETATM    4  H   UNL     1      43.931 -13.202   6.992  1.00  0.00     0.192 HD
ENDROOT
BRANCH   1   5
HETATM    5  C   UNL     1      42.595 -14.165   5.083  1.00  0.00     0.121 A 
HETATM    6  N   UNL     1      43.099 -13.843   3.854  1.00  0.00    -0.272 N 
HETATM    7  N   UNL     1      43.473 -14.900   3.118  1.00  0.00    -0.174 NA
HETATM    8  H   UNL     1      43.193 -12.909   3.462  1.00  0.00     0.189 HD
HETATM    9  C   UNL     1      43.245 -15.961   3.907  1.00  0.00     0.089 A 
HETATM   10  C   UNL     1      42.691 -15.540   5.149  1.00  0.00     0.071 A 
BRANCH   9  11
HETATM   11  C   UNL     1      43.530 -17.331   3.471  1.00  0.00    -0.006 A 
HETATM   12  C   UNL     1      43.306 -17.727   2.145  1.00  0.00     0.014 A 
HETATM   13  C   UNL     1      43.605 -19.028   1.727  1.00  0.00     0.008 A 
HETATM   14  C   UNL     1      44.132 -19.961   2.630  1.00  0.00    -0.059 A 
HETATM   15  C   UNL     1      44.352 -19.571   3.955  1.00  0.00     0.008 A 
HETATM   16  C   UNL     1      44.049 -18.271   4.372  1.00  0.00     0.014 A 
BRANCH  14  17
HETATM   17  C   UNL     1      44.482 -21.353   2.170  1.00  0.00     0.034 C 
HETATM   18  C   UNL     1      44.464 -22.348   3.321  1.00  0.00     0.010 C 
ENDBRANCH  14  17
ENDBRANCH   9  11
ENDBRANCH   1   5
BRANCH   2  19
HETATM   19  N   UNL     1      42.694 -11.817   7.877  1.00  0.00    -0.176 NA
HETATM   20  C   UNL     1      43.423 -11.681   8.947  1.00  0.00     0.061 C 
HETATM   21  C   UNL     1      44.602 -12.575   9.279  1.00  0.00     0.073 C 
BRANCH  20  22
HETATM   22  C   UNL     1      43.071 -10.581   9.905  1.00  0.00    -0.010 A 
HETATM   23  C   UNL     1      42.009  -9.720   9.584  1.00  0.00     0.016 A 
HETATM   24  C   UNL     1      41.650  -8.681  10.448  1.00  0.00     0.037 A 
HETATM   25  C   UNL     1      42.358  -8.502  11.630  1.00  0.00     0.065 A 
HETATM   26  C   UNL     1      43.419  -9.337  11.958  1.00  0.00     0.037 A 
HETATM   27  C   UNL     1      43.782 -10.374  11.093  1.00  0.00     0.016 A 
BRANCH  25  28
HETATM   28  O   UNL     1      42.043  -7.505  12.504  1.00  0.00    -0.361 OA
HETATM   29  H   UNL     1      42.860  -7.042  12.754  1.00  0.00     0.217 HD
ENDBRANCH  25  28
ENDBRANCH  20  22
ENDBRANCH   2  19
TORSDOF 6
ENDMDL
MODEL 7
REMARK VINA RESULT:      -7.8      9.352     11.577
REMARK  6 active torsions:
REMARK  status: ('A' for Active; 'I' for Inactive)
REMARK    1  A    between atoms: C_2  and  C_3 
REMARK    2  A    between atoms: C_6  and  C_7 
REMARK    3  A    between atoms: C_11  and  C_12 
REMARK       I    between atoms: C_12  and  N_13 
REMARK    4  A    between atoms: N_13  and  N_14 
REMARK    5  A    between atoms: C_15  and  C_16 
REMARK    6  A    between atoms: C_19  and  O_20 
ROOT
HETATM    1  C   UNL     1      40.961 -16.454   1.542  1.00  0.00     0.289 C 
HETATM    2  N   UNL     1      41.613 -17.500   0.906  1.00  0.00    -0.241 N 
HETATM    3  O   UNL     1      40.759 -16.393   2.752  1.00  0.00    -0.264 OA
HETATM    4  H   UNL     1      41.726 -17.486  -0.097  1.00  0.00     0.192 HD
ENDROOT
BRANCH   1   5
HETATM    5  C   UNL     1      40.494 -15.418   0.653  1.00  0.00     0.121 A 
HETATM    6  N   UNL     1      39.285 -14.808   0.841  1.00  0.00    -0.272 N 
HETATM    7  N   UNL     1      38.979 -13.894  -0.092  1.00  0.00    -0.174 NA
HETATM    8  H   UNL     1      38.620 -14.997   1.586  1.00  0.00     0.189 HD
HETATM    9  C   UNL     1      40.045 -13.869  -0.905  1.00  0.00     0.089 A 
HETATM   10  C   UNL     1      41.017 -14.813  -0.472  1.00  0.00     0.071 A 
BRANCH   9  11
HETATM   11  C   UNL     1      40.114 -12.981  -2.070  1.00  0.00    -0.006 A 
HETATM   12  C   UNL     1      38.948 -12.542  -2.713  1.00  0.00     0.014 A 
HETATM   13  C   UNL     1      39.018 -11.674  -3.807  1.00  0.00     0.008 A 
HETATM   14  C   UNL     1      40.258 -11.230  -4.283  1.00  0.00    -0.059 A 
HETATM   15  C   UNL     1      41.424 -11.670  -3.648  1.00  0.00     0.008 A 
HETATM   16  C   UNL     1      41.352 -12.540  -2.557  1.00  0.00     0.014 A 
BRANCH  14  17
HETATM   17  C   UNL     1      40.329 -10.270  -5.443  1.00  0.00     0.034 C 
HETATM   18  C   UNL     1      41.768  -9.965  -5.835  1.00  0.00     0.010 C 
ENDBRANCH  14  17
ENDBRANCH   9  11
ENDBRANCH   1   5
BRANCH   2  19
HETATM   19  N   UNL     1      42.114 -18.541   1.626  1.00  0.00    -0.176 NA
HETATM   20  C   UNL     1      43.383 -18.566   1.917  1.00  0.00     0.061 C 
HETATM   21  C   UNL     1      44.373 -17.517   1.448  1.00  0.00     0.073 C 
BRANCH  20  22
HETATM   22  C   UNL     1      43.891 -19.699   2.760  1.00  0.00    -0.010 A 
HETATM   23  C   UNL     1      43.974 -20.980   2.191  1.00  0.00     0.016 A 
HETATM   24  C   UNL     1      44.440 -22.063   2.941  1.00  0.00     0.037 A 
HETATM   25  C   UNL     1      44.817 -21.864   4.264  1.00  0.00     0.065 A 
HETATM   26  C   UNL     1      44.730 -20.605   4.847  1.00  0.00     0.037 A 
HETATM   27  C   UNL     1      44.260 -19.522   4.099  1.00  0.00     0.016 A 
BRANCH  25  28
HETATM   28  O   UNL     1      45.278 -22.888   5.035  1.00  0.00    -0.361 OA
HETATM   29  H   UNL     1      46.248 -22.909   4.976  1.00  0.00     0.217 HD
ENDBRANCH  25  28
ENDBRANCH  20  22
ENDBRANCH   2  19
TORSDOF 6
ENDMDL
MODEL 8
REMARK VINA RESULT:      -7.7      3.406      4.374
REMARK  6 active torsions:
REMARK  status: ('A' for Active; 'I' for Inactive)
REMARK    1  A    between atoms: C_2  and  C_3 
REMARK    2  A    between atoms: C_6  and  C_7 
REMARK    3  A    between atoms: C_11  and  C_12 
REMARK       I    between atoms: C_12  and  N_13 
REMARK    4  A    between atoms: N_13  and  N_14 
REMARK    5  A    between atoms: C_15  and  C_16 
REMARK    6  A    between atoms: C_19  and  O_20 
ROOT
HETATM    1  C   UNL     1      42.735 -14.427   3.872  1.00  0.00     0.289 C 
HETATM    2  N   UNL     1      42.271 -15.640   4.357  1.00  0.00    -0.241 N 
HETATM    3  O   UNL     1      43.525 -14.305   2.940  1.00  0.00    -0.264 OA
HETATM    4  H   UNL     1      41.632 -15.658   5.138  1.00  0.00     0.192 HD
ENDROOT
BRANCH   1   5
HETATM    5  C   UNL     1      42.230 -13.273   4.578  1.00  0.00     0.121 A 
HETATM    6  N   UNL     1      41.990 -12.092   3.934  1.00  0.00    -0.272 N 
HETATM    7  N   UNL     1      41.560 -11.106   4.735  1.00  0.00    -0.174 NA
HETATM    8  H   UNL     1      42.122 -11.903   2.944  1.00  0.00     0.189 HD
HETATM    9  C   UNL     1      41.474 -11.668   5.950  1.00  0.00     0.089 A 
HETATM   10  C   UNL     1      41.888 -13.029   5.893  1.00  0.00     0.071 A 
BRANCH   9  11
HETATM   11  C   UNL     1      41.029 -10.915   7.126  1.00  0.00    -0.006 A 
HETATM   12  C   UNL     1      39.673 -10.615   7.320  1.00  0.00     0.014 A 
HETATM   13  C   UNL     1      39.250  -9.920   8.458  1.00  0.00     0.008 A 
HETATM   14  C   UNL     1      40.177  -9.507   9.423  1.00  0.00    -0.059 A 
HETATM   15  C   UNL     1      41.531  -9.800   9.231  1.00  0.00     0.008 A 
HETATM   16  C   UNL     1      41.952 -10.492   8.092  1.00  0.00     0.014 A 
BRANCH  14  17
HETATM   17  C   UNL     1      39.715  -8.785  10.663  1.00  0.00     0.034 C 
HETATM   18  C   UNL     1      39.715  -9.697  11.881  1.00  0.00     0.010 C 
ENDBRANCH  14  17
ENDBRANCH   9  11
ENDBRANCH   1   5
BRANCH   2  19
HETATM   19  N   UNL     1      42.659 -16.810   3.777  1.00  0.00    -0.176 NA
HETATM   20  C   UNL     1      43.344 -17.672   4.473  1.00  0.00     0.061 C 
HETATM   21  C   UNL     1      43.798 -17.429   5.899  1.00  0.00     0.073 C 
BRANCH  20  22
HETATM   22  C   UNL     1      43.707 -18.973   3.821  1.00  0.00    -0.010 A 
HETATM   23  C   UNL     1      43.219 -19.244   2.533  1.00  0.00     0.016 A 
HETATM   24  C   UNL     1      43.531 -20.445   1.891  1.00  0.00     0.037 A 
HETATM   25  C   UNL     1      44.329 -21.378   2.542  1.00  0.00     0.065 A 
HETATM   26  C   UNL     1      44.812 -21.133   3.822  1.00  0.00     0.037 A 
HETATM   27  C   UNL     1      44.496 -19.933   4.467  1.00  0.00     0.016 A 
BRANCH  25  28
HETATM   28  O   UNL     1      44.662 -22.563   1.956  1.00  0.00    -0.361 OA
HETATM   29  H   UNL     1      43.970 -23.214   2.157  1.00  0.00     0.217 HD
ENDBRANCH  25  28
ENDBRANCH  20  22
ENDBRANCH   2  19
TORSDOF 6
ENDMDL
MODEL 9
REMARK VINA RESULT:      -7.4      3.177     10.410
REMARK  6 active torsions:
REMARK  status: ('A' for Active; 'I' for Inactive)
REMARK    1  A    between atoms: C_2  and  C_3 
REMARK    2  A    between atoms: C_6  and  C_7 
REMARK    3  A    between atoms: C_11  and  C_12 
REMARK       I    between atoms: C_12  and  N_13 
REMARK    4  A    between atoms: N_13  and  N_14 
REMARK    5  A    between atoms: C_15  and  C_16 
REMARK    6  A    between atoms: C_19  and  O_20 
ROOT
HETATM    1  C   UNL     1      44.679 -12.583   9.218  1.00  0.00     0.289 C 
HETATM    2  N   UNL     1      43.590 -11.795   9.560  1.00  0.00    -0.241 N 
HETATM    3  O   UNL     1      45.640 -12.799   9.952  1.00  0.00    -0.264 OA
HETATM    4  H   UNL     1      42.844 -11.652   8.894  1.00  0.00     0.192 HD
ENDROOT
BRANCH   1   5
HETATM    5  C   UNL     1      44.619 -13.133   7.885  1.00  0.00     0.121 A 
HETATM    6  N   UNL     1      45.747 -13.307   7.133  1.00  0.00    -0.272 N 
HETATM    7  N   UNL     1      45.520 -13.791   5.903  1.00  0.00    -0.174 NA
HETATM    8  H   UNL     1      46.701 -13.091   7.412  1.00  0.00     0.189 HD
HETATM    9  C   UNL     1      44.193 -13.983   5.853  1.00  0.00     0.089 A 
HETATM   10  C   UNL     1      43.591 -13.580   7.078  1.00  0.00     0.071 A 
BRANCH   9  11
HETATM   11  C   UNL     1      43.529 -14.516   4.660  1.00  0.00    -0.006 A 
HETATM   12  C   UNL     1      43.099 -15.849   4.609  1.00  0.00     0.014 A 
HETATM   13  C   UNL     1      42.441 -16.345   3.479  1.00  0.00     0.008 A 
HETATM   14  C   UNL     1      42.204 -15.518   2.374  1.00  0.00    -0.059 A 
HETATM   15  C   UNL     1      42.636 -14.188   2.420  1.00  0.00     0.008 A 
HETATM   16  C   UNL     1      43.296 -13.694   3.548  1.00  0.00     0.014 A 
BRANCH  14  17
HETATM   17  C   UNL     1      41.468 -16.046   1.170  1.00  0.00     0.034 C 
HETATM   18  C   UNL     1      41.115 -17.518   1.325  1.00  0.00     0.010 C 
ENDBRANCH  14  17
ENDBRANCH   9  11
ENDBRANCH   1   5
BRANCH   2  19
HETATM   19  N   UNL     1      43.512 -11.222  10.792  1.00  0.00    -0.176 NA
HETATM   20  C   UNL     1      42.634 -10.284  11.008  1.00  0.00     0.061 C 
HETATM   21  C   UNL     1      41.711  -9.737   9.936  1.00  0.00     0.073 C 
BRANCH  20  22
HETATM   22  C   UNL     1      42.537  -9.714  12.392  1.00  0.00    -0.010 A 
HETATM   23  C   UNL     1      42.449 -10.595  13.481  1.00  0.00     0.016 A 
HETATM   24  C   UNL     1      42.355 -10.105  14.787  1.00  0.00     0.037 A 
HETATM   25  C   UNL     1      42.345  -8.732  15.000  1.00  0.00     0.065 A 
HETATM   26  C   UNL     1      42.419  -7.845  13.933  1.00  0.00     0.037 A 
HETATM   27  C   UNL     1      42.509  -8.334  12.627  1.00  0.00     0.016 A 
BRANCH  25  28
HETATM   28  O   UNL     1      42.257  -8.207  16.255  1.00  0.00    -0.361 OA
HETATM   29  H   UNL     1      43.112  -7.810  16.486  1.00  0.00     0.217 HD
ENDBRANCH  25  28
ENDBRANCH  20  22
ENDBRANCH   2  19
TORSDOF 6
ENDMDL
MODEL 10
REMARK VINA RESULT:      -7.3      8.796     12.949
REMARK  6 active torsions:
REMARK  status: ('A' for Active; 'I' for Inactive)
REMARK    1  A    between atoms: C_2  and  C_3 
REMARK    2  A    between atoms: C_6  and  C_7 
REMARK    3  A    between atoms: C_11  and  C_12 
REMARK       I    between atoms: C_12  and  N_13 
REMARK    4  A    between atoms: N_13  and  N_14 
REMARK    5  A    between atoms: C_15  and  C_16 
REMARK    6  A    between atoms: C_19  and  O_20 
ROOT
HETATM    1  C   UNL     1      41.297 -14.866  -0.606  1.00  0.00     0.289 C 
HETATM    2  N   UNL     1      41.320 -16.251  -0.534  1.00  0.00    -0.241 N 
HETATM    3  O   UNL     1      41.944 -14.121   0.126  1.00  0.00    -0.264 OA
HETATM    4  H   UNL     1      40.747 -16.796  -1.161  1.00  0.00     0.192 HD
ENDROOT
BRANCH   1   5
HETATM    5  C   UNL     1      40.413 -14.338  -1.616  1.00  0.00     0.121 A 
HETATM    6  N   UNL     1      40.896 -13.754  -2.753  1.00  0.00    -0.272 N 
HETATM    7  N   UNL     1      39.948 -13.279  -3.574  1.00  0.00    -0.174 NA
HETATM    8  H   UNL     1      41.874 -13.639  -3.008  1.00  0.00     0.189 HD
HETATM    9  C   UNL     1      38.790 -13.598  -2.976  1.00  0.00     0.089 A 
HETATM   10  C   UNL     1      39.040 -14.262  -1.742  1.00  0.00     0.071 A 
BRANCH   9  11
HETATM   11  C   UNL     1      37.491 -13.255  -3.562  1.00  0.00    -0.006 A 
HETATM   12  C   UNL     1      36.738 -14.211  -4.258  1.00  0.00     0.014 A 
HETATM   13  C   UNL     1      35.487 -13.886  -4.792  1.00  0.00     0.008 A 
HETATM   14  C   UNL     1      34.965 -12.595  -4.644  1.00  0.00    -0.059 A 
HETATM   15  C   UNL     1      35.716 -11.637  -3.955  1.00  0.00     0.008 A 
HETATM   16  C   UNL     1      36.967 -11.962  -3.425  1.00  0.00     0.014 A 
BRANCH  14  17
HETATM   17  C   UNL     1      33.604 -12.256  -5.194  1.00  0.00     0.034 C 
HETATM   18  C   UNL     1      33.644 -12.028  -6.698  1.00  0.00     0.010 C 
ENDBRANCH  14  17
ENDBRANCH   9  11
ENDBRANCH   1   5
BRANCH   2  19
HETATM   19  N   UNL     1      42.119 -16.883   0.369  1.00  0.00    -0.176 NA
HETATM   20  C   UNL     1      41.610 -17.301   1.493  1.00  0.00     0.061 C 
HETATM   21  C   UNL     1      40.166 -17.074   1.895  1.00  0.00     0.073 C 
BRANCH  20  22
HETATM   22  C   UNL     1      42.506 -18.043   2.440  1.00  0.00    -0.010 A 
HETATM   23  C   UNL     1      43.404 -18.989   1.920  1.00  0.00     0.016 A 
HETATM   24  C   UNL     1      44.255 -19.703   2.767  1.00  0.00     0.037 A 
HETATM   25  C   UNL     1      44.203 -19.474   4.137  1.00  0.00     0.065 A 
HETATM   26  C   UNL     1      43.311 -18.551   4.671  1.00  0.00     0.037 A 
HETATM   27  C   UNL     1      42.457 -17.839   3.824  1.00  0.00     0.016 A 
BRANCH  25  28
HETATM   28  O   UNL     1      45.014 -20.145   5.003  1.00  0.00    -0.361 OA
HETATM   29  H   UNL     1      45.418 -20.893   4.533  1.00  0.00     0.217 HD
ENDBRANCH  25  28
ENDBRANCH  20  22
ENDBRANCH   2  19
TORSDOF 6
ENDMDL
