MODEL 1
REMARK VINA RESULT:      -8.2      0.000      0.000
REMARK  6 active torsions:
REMARK  status: ('A' for Active; 'I' for Inactive)
REMARK    1  A    between atoms: C_6  and  C_7 
REMARK    2  A    between atoms: C_10  and  C_11 
REMARK       I    between atoms: C_11  and  N_12 
REMARK    3  A    between atoms: N_12  and  C_13 
REMARK    4  A    between atoms: C_13  and  C_14 
REMARK    5  A    between atoms: C_17  and  C_18 
REMARK       I    between atoms: C_18  and  N_19 
REMARK    6  A    between atoms: N_19  and  C_20 
ROOT
HETATM    1  C   UNL     1      43.360 -18.283   5.178  1.00  0.00     0.256 C 
HETATM    2  N   UNL     1      42.002 -18.182   4.982  1.00  0.00    -0.353 N 
HETATM    3  O   UNL     1      44.065 -17.294   5.355  1.00  0.00    -0.268 OA
HETATM    4  H   UNL     1      41.517 -18.978   4.598  1.00  0.00     0.163 HD
ENDROOT
BRANCH   2   5
HETATM    5  C   UNL     1      41.387 -16.886   4.843  1.00  0.00     0.161 C 
BRANCH   5   6
HETATM    6  C   UNL     1      41.424 -16.405   3.417  1.00  0.00    -0.040 A 
HETATM    7  C   UNL     1      40.677 -17.072   2.434  1.00  0.00     0.010 A 
HETATM    8  C   UNL     1      40.667 -16.610   1.116  1.00  0.00     0.017 A 
HETATM    9  C   UNL     1      41.401 -15.472   0.766  1.00  0.00     0.032 A 
HETATM   10  C   UNL     1      42.186 -14.829   1.729  1.00  0.00     0.017 A 
HETATM   11  C   UNL     1      42.197 -15.295   3.048  1.00  0.00     0.010 A 
BRANCH   9  12
HETATM   12  C   UNL     1      41.322 -14.985  -0.638  1.00  0.00     0.252 C 
HETATM   13  N   UNL     1      40.651 -15.810  -1.523  1.00  0.00    -0.352 N 
HETATM   14  H   UNL     1      40.370 -16.731  -1.214  1.00  0.00     0.163 HD
HETATM   15  O   UNL     1      41.868 -13.933  -0.953  1.00  0.00    -0.268 OA
BRANCH  13  16
HETATM   16  C   UNL     1      40.589 -15.527  -2.923  1.00  0.00     0.084 A 
HETATM   17  C   UNL     1      39.567 -16.210  -3.790  1.00  0.00     0.027 A 
HETATM   18  C   UNL     1      39.440 -14.744  -3.497  1.00  0.00     0.027 A 
ENDBRANCH  13  16
ENDBRANCH   9  12
ENDBRANCH   5   6
ENDBRANCH   2   5
BRANCH   1  19
HETATM   19  C   UNL     1      43.924 -19.628   5.099  1.00  0.00     0.082 A 
HETATM   20  C   UNL     1      44.070 -20.524   6.201  1.00  0.00     0.068 A 
HETATM   21  C   UNL     1      43.687 -20.302   7.620  1.00  0.00     0.073 C 
HETATM   22  N   UNL     1      44.643 -21.677   5.841  1.00  0.00    -0.179 NA
HETATM   23  N   UNL     1      44.834 -21.546   4.527  1.00  0.00    -0.281 N 
HETATM   24  H   UNL     1      45.251 -22.327   4.031  1.00  0.00     0.189 HD
HETATM   25  C   UNL     1      44.403 -20.350   4.007  1.00  0.00     0.049 A 
BRANCH  25  26
HETATM   26  C   UNL     1      44.486 -20.073   2.531  1.00  0.00     0.030 C 
HETATM   27  C   UNL     1      43.692 -21.117   1.743  1.00  0.00     0.016 C 
HETATM   28  C   UNL     1      44.007 -18.660   2.179  1.00  0.00     0.016 C 
ENDBRANCH  25  26
ENDBRANCH   1  19
TORSDOF 6
ENDMDL
MODEL 2
REMARK VINA RESULT:      -7.9      1.264      1.731
REMARK  6 active torsions:
REMARK  status: ('A' for Active; 'I' for Inactive)
REMARK    1  A    between atoms: C_6  and  C_7 
REMARK    2  A    between atoms: C_10  and  C_11 
REMARK       I    between atoms: C_11  and  N_12 
REMARK    3  A    between atoms: N_12  and  C_13 
REMARK    4  A    between atoms: C_13  and  C_14 
REMARK    5  A    between atoms: C_17  and  C_18 
REMARK       I    between atoms: C_18  and  N_19 
REMARK    6  A    between atoms: N_19  and  C_20 
ROOT
HETATM    1  C   UNL     1      42.934 -17.036   4.986  1.00  0.00     0.256 C 
HETATM    2  N   UNL     1      41.564 -17.008   4.855  1.00  0.00    -0.353 N 
HETATM    3  O   UNL     1      43.601 -16.006   5.044  1.00  0.00    -0.268 OA
HETATM    4  H   UNL     1      41.099 -17.853   4.562  1.00  0.00     0.163 HD
ENDROOT
BRANCH   2   5
HETATM    5  C   UNL     1      40.884 -15.755   4.644  1.00  0.00     0.161 C 
BRANCH   5   6
HETATM    6  C   UNL     1      40.705 -15.461   3.178  1.00  0.00    -0.040 A 
HETATM    7  C   UNL     1      40.431 -14.151   2.756  1.00  0.00     0.010 A 
HETATM    8  C   UNL     1      40.306 -13.856   1.396  1.00  0.00     0.017 A 
HETATM    9  C   UNL     1      40.458 -14.867   0.442  1.00  0.00     0.032 A 
HETATM   10  C   UNL     1      40.683 -16.185   0.857  1.00  0.00     0.017 A 
HETATM   11  C   UNL     1      40.805 -16.478   2.219  1.00  0.00     0.010 A 
BRANCH   9  12
HETATM   12  C   UNL     1      40.367 -14.500  -0.997  1.00  0.00     0.252 C 
HETATM   13  N   UNL     1      39.161 -14.779  -1.613  1.00  0.00    -0.352 N 
HETATM   14  H   UNL     1      38.468 -15.318  -1.110  1.00  0.00     0.163 HD
HETATM   15  O   UNL     1      41.341 -14.022  -1.569  1.00  0.00    -0.268 OA
BRANCH  13  16
HETATM   16  C   UNL     1      38.963 -14.583  -3.015  1.00  0.00     0.084 A 
HETATM   17  C   UNL     1      39.235 -15.702  -3.983  1.00  0.00     0.027 A 
HETATM   18  C   UNL     1      37.824 -15.257  -3.731  1.00  0.00     0.027 A 
ENDBRANCH  13  16
ENDBRANCH   9  12
ENDBRANCH   5   6
ENDBRANCH   2   5
BRANCH   1  19
HETATM   19  C   UNL     1      43.555 -18.357   4.986  1.00  0.00     0.082 A 
HETATM   20  C   UNL     1      44.090 -19.014   6.136  1.00  0.00     0.068 A 
HETATM   21  C   UNL     1      44.127 -18.522   7.538  1.00  0.00     0.073 C 
HETATM   22  N   UNL     1      44.622 -20.203   5.836  1.00  0.00    -0.179 NA
HETATM   23  N   UNL     1      44.405 -20.332   4.525  1.00  0.00    -0.281 N 
HETATM   24  H   UNL     1      44.718 -21.187   4.078  1.00  0.00     0.189 HD
HETATM   25  C   UNL     1      43.746 -19.272   3.952  1.00  0.00     0.049 A 
BRANCH  25  26
HETATM   26  C   UNL     1      43.368 -19.292   2.496  1.00  0.00     0.030 C 
HETATM   27  C   UNL     1      44.098 -18.183   1.736  1.00  0.00     0.016 C 
HETATM   28  C   UNL     1      43.639 -20.653   1.846  1.00  0.00     0.016 C 
ENDBRANCH  25  26
ENDBRANCH   1  19
TORSDOF 6
ENDMDL
MODEL 3
REMARK VINA RESULT:      -7.8      3.659      5.581
REMARK  6 active torsions:
REMARK  status: ('A' for Active; 'I' for Inactive)
REMARK    1  A    between atoms: C_6  and  C_7 
REMARK    2  A    between atoms: C_10  and  C_11 
REMARK       I    between atoms: C_11  and  N_12 
REMARK    3  A    between atoms: N_12  and  C_13 
REMARK    4  A    between atoms: C_13  and  C_14 
REMARK    5  A    between atoms: C_17  and  C_18 
REMARK       I    between atoms: C_18  and  N_19 
REMARK    6  A    between atoms: N_19  and  C_20 
ROOT
HETATM    1  C   UNL     1      44.481 -19.513   5.024  1.00  0.00     0.256 C 
HETATM    2  N   UNL     1      43.453 -19.482   5.940  1.00  0.00    -0.353 N 
HETATM    3  O   UNL     1      45.511 -18.864   5.184  1.00  0.00    -0.268 OA
HETATM    4  H   UNL     1      42.549 -19.820   5.649  1.00  0.00     0.163 HD
ENDROOT
BRANCH   2   5
HETATM    5  C   UNL     1      43.507 -18.571   7.055  1.00  0.00     0.161 C 
BRANCH   5   6
HETATM    6  C   UNL     1      43.217 -17.156   6.629  1.00  0.00    -0.040 A 
HETATM    7  C   UNL     1      41.932 -16.809   6.184  1.00  0.00     0.010 A 
HETATM    8  C   UNL     1      41.638 -15.490   5.828  1.00  0.00     0.017 A 
HETATM    9  C   UNL     1      42.624 -14.502   5.917  1.00  0.00     0.032 A 
HETATM   10  C   UNL     1      43.921 -14.849   6.314  1.00  0.00     0.017 A 
HETATM   11  C   UNL     1      44.214 -16.171   6.667  1.00  0.00     0.010 A 
BRANCH   9  12
HETATM   12  C   UNL     1      42.254 -13.102   5.576  1.00  0.00     0.252 C 
HETATM   13  N   UNL     1      41.714 -12.356   6.608  1.00  0.00    -0.352 N 
HETATM   14  H   UNL     1      41.483 -12.819   7.477  1.00  0.00     0.163 HD
HETATM   15  O   UNL     1      42.398 -12.692   4.430  1.00  0.00    -0.268 OA
BRANCH  13  16
HETATM   16  C   UNL     1      41.211 -11.034   6.404  1.00  0.00     0.084 A 
HETATM   17  C   UNL     1      40.150 -10.476   7.313  1.00  0.00     0.027 A 
HETATM   18  C   UNL     1      41.546  -9.928   7.368  1.00  0.00     0.027 A 
ENDBRANCH  13  16
ENDBRANCH   9  12
ENDBRANCH   5   6
ENDBRANCH   2   5
BRANCH   1  19
HETATM   19  C   UNL     1      44.249 -20.309   3.822  1.00  0.00     0.082 A 
HETATM   20  C   UNL     1      44.479 -21.714   3.710  1.00  0.00     0.068 A 
HETATM   21  C   UNL     1      44.979 -22.647   4.754  1.00  0.00     0.073 C 
HETATM   22  N   UNL     1      44.207 -22.173   2.484  1.00  0.00    -0.179 NA
HETATM   23  N   UNL     1      43.776 -21.096   1.824  1.00  0.00    -0.281 N 
HETATM   24  H   UNL     1      43.491 -21.219   0.858  1.00  0.00     0.189 HD
HETATM   25  C   UNL     1      43.750 -19.945   2.573  1.00  0.00     0.049 A 
BRANCH  25  26
HETATM   26  C   UNL     1      43.227 -18.658   1.995  1.00  0.00     0.030 C 
HETATM   27  C   UNL     1      42.160 -18.053   2.910  1.00  0.00     0.016 C 
HETATM   28  C   UNL     1      44.345 -17.643   1.735  1.00  0.00     0.016 C 
ENDBRANCH  25  26
ENDBRANCH   1  19
TORSDOF 6
ENDMDL
MODEL 4
REMARK VINA RESULT:      -7.7      1.570      2.031
REMARK  6 active torsions:
REMARK  status: ('A' for Active; 'I' for Inactive)
REMARK    1  A    between atoms: C_6  and  C_7 
REMARK    2  A    between atoms: C_10  and  C_11 
REMARK       I    between atoms: C_11  and  N_12 
REMARK    3  A    between atoms: N_12  and  C_13 
REMARK    4  A    between atoms: C_13  and  C_14 
REMARK    5  A    between atoms: C_17  and  C_18 
REMARK       I    between atoms: C_18  and  N_19 
REMARK    6  A    between atoms: N_19  and  C_20 
ROOT
HETATM    1  C   UNL     1      42.914 -17.521   4.853  1.00  0.00     0.256 C 
HETATM    2  N   UNL     1      41.601 -17.493   4.441  1.00  0.00    -0.353 N 
HETATM    3  O   UNL     1      43.541 -16.492   5.091  1.00  0.00    -0.268 OA
HETATM    4  H   UNL     1      41.218 -18.327   4.024  1.00  0.00     0.163 HD
ENDROOT
BRANCH   2   5
HETATM    5  C   UNL     1      40.963 -16.236   4.146  1.00  0.00     0.161 C 
BRANCH   5   6
HETATM    6  C   UNL     1      40.985 -15.935   2.671  1.00  0.00    -0.040 A 
HETATM    7  C   UNL     1      40.959 -14.604   2.228  1.00  0.00     0.010 A 
HETATM    8  C   UNL     1      41.024 -14.309   0.864  1.00  0.00     0.017 A 
HETATM    9  C   UNL     1      41.121 -15.342  -0.073  1.00  0.00     0.032 A 
HETATM   10  C   UNL     1      41.100 -16.674   0.357  1.00  0.00     0.017 A 
HETATM   11  C   UNL     1      41.031 -16.967   1.723  1.00  0.00     0.010 A 
BRANCH   9  12
HETATM   12  C   UNL     1      41.240 -14.982  -1.512  1.00  0.00     0.252 C 
HETATM   13  N   UNL     1      42.000 -13.861  -1.789  1.00  0.00    -0.352 N 
HETATM   14  H   UNL     1      42.319 -13.285  -1.021  1.00  0.00     0.163 HD
HETATM   15  O   UNL     1      40.649 -15.643  -2.359  1.00  0.00    -0.268 OA
BRANCH  13  16
HETATM   16  C   UNL     1      42.114 -13.331  -3.112  1.00  0.00     0.084 A 
HETATM   17  C   UNL     1      41.042 -12.430  -3.663  1.00  0.00     0.027 A 
HETATM   18  C   UNL     1      42.394 -11.869  -3.332  1.00  0.00     0.027 A 
ENDBRANCH  13  16
ENDBRANCH   9  12
ENDBRANCH   5   6
ENDBRANCH   2   5
BRANCH   1  19
HETATM   19  C   UNL     1      43.539 -18.838   4.927  1.00  0.00     0.082 A 
HETATM   20  C   UNL     1      43.984 -19.470   6.128  1.00  0.00     0.068 A 
HETATM   21  C   UNL     1      43.907 -18.953   7.520  1.00  0.00     0.073 C 
HETATM   22  N   UNL     1      44.544 -20.662   5.893  1.00  0.00    -0.179 NA
HETATM   23  N   UNL     1      44.433 -20.816   4.572  1.00  0.00    -0.281 N 
HETATM   24  H   UNL     1      44.785 -21.677   4.168  1.00  0.00     0.189 HD
HETATM   25  C   UNL     1      43.817 -19.771   3.929  1.00  0.00     0.049 A 
BRANCH  25  26
HETATM   26  C   UNL     1      43.556 -19.819   2.448  1.00  0.00     0.030 C 
HETATM   27  C   UNL     1      44.223 -18.634   1.746  1.00  0.00     0.016 C 
HETATM   28  C   UNL     1      44.018 -21.139   1.821  1.00  0.00     0.016 C 
ENDBRANCH  25  26
ENDBRANCH   1  19
TORSDOF 6
ENDMDL
MODEL 5
REMARK VINA RESULT:      -7.6      3.610      4.344
REMARK  6 active torsions:
REMARK  status: ('A' for Active; 'I' for Inactive)
REMARK    1  A    between atoms: C_6  and  C_7 
REMARK    2  A    between atoms: C_10  and  C_11 
REMARK       I    between atoms: C_11  and  N_12 
REMARK    3  A    between atoms: N_12  and  C_13 
REMARK    4  A    between atoms: C_13  and  C_14 
REMARK    5  A    between atoms: C_17  and  C_18 
REMARK       I    between atoms: C_18  and  N_19 
REMARK    6  A    between atoms: N_19  and  C_20 
ROOT
HETATM    1  C   UNL     1      44.364 -19.215   5.164  1.00  0.00     0.256 C 
HETATM    2  N   UNL     1      43.238 -19.125   5.950  1.00  0.00    -0.353 N 
HETATM    3  O   UNL     1      45.373 -18.556   5.400  1.00  0.00    -0.268 OA
HETATM    4  H   UNL     1      42.371 -19.482   5.579  1.00  0.00     0.163 HD
ENDROOT
BRANCH   2   5
HETATM    5  C   UNL     1      43.167 -18.143   7.002  1.00  0.00     0.161 C 
BRANCH   5   6
HETATM    6  C   UNL     1      42.549 -16.857   6.520  1.00  0.00    -0.040 A 
HETATM    7  C   UNL     1      41.161 -16.775   6.334  1.00  0.00     0.010 A 
HETATM    8  C   UNL     1      40.569 -15.576   5.930  1.00  0.00     0.017 A 
HETATM    9  C   UNL     1      41.359 -14.442   5.711  1.00  0.00     0.032 A 
HETATM   10  C   UNL     1      42.750 -14.528   5.848  1.00  0.00     0.017 A 
HETATM   11  C   UNL     1      43.340 -15.732   6.250  1.00  0.00     0.010 A 
BRANCH   9  12
HETATM   12  C   UNL     1      40.683 -13.173   5.331  1.00  0.00     0.252 C 
HETATM   13  N   UNL     1      40.376 -13.035   3.990  1.00  0.00    -0.352 N 
HETATM   14  H   UNL     1      40.729 -13.719   3.335  1.00  0.00     0.163 HD
HETATM   15  O   UNL     1      40.470 -12.314   6.181  1.00  0.00    -0.268 OA
BRANCH  13  16
HETATM   16  C   UNL     1      39.826 -11.826   3.460  1.00  0.00     0.084 A 
HETATM   17  C   UNL     1      39.838 -11.574   1.977  1.00  0.00     0.027 A 
HETATM   18  C   UNL     1      38.540 -11.847   2.679  1.00  0.00     0.027 A 
ENDBRANCH  13  16
ENDBRANCH   9  12
ENDBRANCH   5   6
ENDBRANCH   2   5
BRANCH   1  19
HETATM   19  C   UNL     1      44.269 -20.087   3.998  1.00  0.00     0.082 A 
HETATM   20  C   UNL     1      44.613 -21.473   3.977  1.00  0.00     0.068 A 
HETATM   21  C   UNL     1      45.119 -22.308   5.098  1.00  0.00     0.073 C 
HETATM   22  N   UNL     1      44.452 -22.015   2.766  1.00  0.00    -0.179 NA
HETATM   23  N   UNL     1      43.981 -21.012   2.023  1.00  0.00    -0.281 N 
HETATM   24  H   UNL     1      43.766 -21.206   1.051  1.00  0.00     0.189 HD
HETATM   25  C   UNL     1      43.820 -19.829   2.703  1.00  0.00     0.049 A 
BRANCH  25  26
HETATM   26  C   UNL     1      43.236 -18.620   2.026  1.00  0.00     0.030 C 
HETATM   27  C   UNL     1      42.144 -17.993   2.895  1.00  0.00     0.016 C 
HETATM   28  C   UNL     1      44.304 -17.578   1.677  1.00  0.00     0.016 C 
ENDBRANCH  25  26
ENDBRANCH   1  19
TORSDOF 6
ENDMDL
MODEL 6
REMARK VINA RESULT:      -7.5      3.780      6.155
REMARK  6 active torsions:
REMARK  status: ('A' for Active; 'I' for Inactive)
REMARK    1  A    between atoms: C_6  and  C_7 
REMARK    2  A    between atoms: C_10  and  C_11 
REMARK       I    between atoms: C_11  and  N_12 
REMARK    3  A    between atoms: N_12  and  C_13 
REMARK    4  A    between atoms: C_13  and  C_14 
REMARK    5  A    between atoms: C_17  and  C_18 
REMARK       I    between atoms: C_18  and  N_19 
REMARK    6  A    between atoms: N_19  and  C_20 
ROOT
HETATM    1  C   UNL     1      43.328 -18.094   3.438  1.00  0.00     0.256 C 
HETATM    2  N   UNL     1      41.983 -17.877   3.636  1.00  0.00    -0.353 N 
HETATM    3  O   UNL     1      43.995 -17.387   2.688  1.00  0.00    -0.268 OA
HETATM    4  H   UNL     1      41.439 -18.617   4.051  1.00  0.00     0.163 HD
ENDROOT
BRANCH   2   5
HETATM    5  C   UNL     1      41.289 -16.885   2.854  1.00  0.00     0.161 C 
BRANCH   5   6
HETATM    6  C   UNL     1      40.840 -15.725   3.703  1.00  0.00    -0.040 A 
HETATM    7  C   UNL     1      40.271 -14.595   3.097  1.00  0.00     0.010 A 
HETATM    8  C   UNL     1      39.810 -13.530   3.875  1.00  0.00     0.017 A 
HETATM    9  C   UNL     1      39.908 -13.585   5.269  1.00  0.00     0.032 A 
HETATM   10  C   UNL     1      40.519 -14.687   5.879  1.00  0.00     0.017 A 
HETATM   11  C   UNL     1      40.982 -15.751   5.097  1.00  0.00     0.010 A 
BRANCH   9  12
HETATM   12  C   UNL     1      39.359 -12.452   6.062  1.00  0.00     0.252 C 
HETATM   13  N   UNL     1      39.843 -12.332   7.352  1.00  0.00    -0.352 N 
HETATM   14  H   UNL     1      40.426 -13.068   7.726  1.00  0.00     0.163 HD
HETATM   15  O   UNL     1      38.502 -11.723   5.574  1.00  0.00    -0.268 OA
BRANCH  13  16
HETATM   16  C   UNL     1      39.328 -11.360   8.266  1.00  0.00     0.084 A 
HETATM   17  C   UNL     1      39.941 -11.203   9.630  1.00  0.00     0.027 A 
HETATM   18  C   UNL     1      40.120 -10.126   8.601  1.00  0.00     0.027 A 
ENDBRANCH  13  16
ENDBRANCH   9  12
ENDBRANCH   5   6
ENDBRANCH   2   5
BRANCH   1  19
HETATM   19  C   UNL     1      43.901 -19.252   4.119  1.00  0.00     0.082 A 
HETATM   20  C   UNL     1      44.244 -20.488   3.490  1.00  0.00     0.068 A 
HETATM   21  C   UNL     1      44.108 -20.856   2.056  1.00  0.00     0.073 C 
HETATM   22  N   UNL     1      44.724 -21.381   4.362  1.00  0.00    -0.179 NA
HETATM   23  N   UNL     1      44.725 -20.727   5.526  1.00  0.00    -0.281 N 
HETATM   24  H   UNL     1      45.073 -21.219   6.342  1.00  0.00     0.189 HD
HETATM   25  C   UNL     1      44.267 -19.434   5.451  1.00  0.00     0.049 A 
BRANCH  25  26
HETATM   26  C   UNL     1      44.267 -18.543   6.662  1.00  0.00     0.030 C 
HETATM   27  C   UNL     1      45.087 -17.278   6.398  1.00  0.00     0.016 C 
HETATM   28  C   UNL     1      42.849 -18.175   7.111  1.00  0.00     0.016 C 
ENDBRANCH  25  26
ENDBRANCH   1  19
TORSDOF 6
ENDMDL
MODEL 7
REMARK VINA RESULT:      -7.3      1.935      8.690
REMARK  6 active torsions:
REMARK  status: ('A' for Active; 'I' for Inactive)
REMARK    1  A    between atoms: C_6  and  C_7 
REMARK    2  A    between atoms: C_10  and  C_11 
REMARK       I    between atoms: C_11  and  N_12 
REMARK    3  A    between atoms: N_12  and  C_13 
REMARK    4  A    between atoms: C_13  and  C_14 
REMARK    5  A    between atoms: C_17  and  C_18 
REMARK       I    between atoms: C_18  and  N_19 
REMARK    6  A    between atoms: N_19  and  C_20 
ROOT
HETATM    1  C   UNL     1      40.409 -13.868  -0.363  1.00  0.00     0.256 C 
HETATM    2  N   UNL     1      40.431 -15.198  -0.012  1.00  0.00    -0.353 N 
HETATM    3  O   UNL     1      40.188 -12.983   0.460  1.00  0.00    -0.268 OA
HETATM    4  H   UNL     1      40.365 -15.884  -0.748  1.00  0.00     0.163 HD
ENDROOT
BRANCH   2   5
HETATM    5  C   UNL     1      40.056 -15.600   1.320  1.00  0.00     0.161 C 
BRANCH   5   6
HETATM    6  C   UNL     1      41.125 -16.441   1.967  1.00  0.00    -0.040 A 
HETATM    7  C   UNL     1      41.740 -16.002   3.149  1.00  0.00     0.010 A 
HETATM    8  C   UNL     1      42.702 -16.792   3.784  1.00  0.00     0.017 A 
HETATM    9  C   UNL     1      43.056 -18.034   3.245  1.00  0.00     0.032 A 
HETATM   10  C   UNL     1      42.483 -18.457   2.040  1.00  0.00     0.017 A 
HETATM   11  C   UNL     1      41.523 -17.662   1.406  1.00  0.00     0.010 A 
BRANCH   9  12
HETATM   12  C   UNL     1      44.047 -18.865   3.980  1.00  0.00     0.252 C 
HETATM   13  N   UNL     1      44.222 -20.152   3.503  1.00  0.00    -0.352 N 
HETATM   14  H   UNL     1      43.597 -20.496   2.786  1.00  0.00     0.163 HD
HETATM   15  O   UNL     1      44.617 -18.410   4.966  1.00  0.00    -0.268 OA
BRANCH  13  16
HETATM   16  C   UNL     1      45.057 -21.100   4.172  1.00  0.00     0.084 A 
HETATM   17  C   UNL     1      44.620 -21.709   5.475  1.00  0.00     0.027 A 
HETATM   18  C   UNL     1      44.671 -22.552   4.235  1.00  0.00     0.027 A 
ENDBRANCH  13  16
ENDBRANCH   9  12
ENDBRANCH   5   6
ENDBRANCH   2   5
BRANCH   1  19
HETATM   19  C   UNL     1      40.599 -13.572  -1.780  1.00  0.00     0.082 A 
HETATM   20  C   UNL     1      41.639 -12.753  -2.317  1.00  0.00     0.068 A 
HETATM   21  C   UNL     1      42.724 -12.051  -1.582  1.00  0.00     0.073 C 
HETATM   22  N   UNL     1      41.552 -12.633  -3.646  1.00  0.00    -0.179 NA
HETATM   23  N   UNL     1      40.499 -13.387  -3.969  1.00  0.00    -0.281 N 
HETATM   24  H   UNL     1      40.255 -13.458  -4.951  1.00  0.00     0.189 HD
HETATM   25  C   UNL     1      39.893 -14.003  -2.902  1.00  0.00     0.049 A 
BRANCH  25  26
HETATM   26  C   UNL     1      38.733 -14.939  -3.106  1.00  0.00     0.030 C 
HETATM   27  C   UNL     1      37.513 -14.178  -3.629  1.00  0.00     0.016 C 
HETATM   28  C   UNL     1      39.082 -16.098  -4.046  1.00  0.00     0.016 C 
ENDBRANCH  25  26
ENDBRANCH   1  19
TORSDOF 6
ENDMDL
MODEL 8
REMARK VINA RESULT:      -7.3      4.142      6.968
REMARK  6 active torsions:
REMARK  status: ('A' for Active; 'I' for Inactive)
REMARK    1  A    between atoms: C_6  and  C_7 
REMARK    2  A    between atoms: C_10  and  C_11 
REMARK       I    between atoms: C_11  and  N_12 
REMARK    3  A    between atoms: N_12  and  C_13 
REMARK    4  A    between atoms: C_13  and  C_14 
REMARK    5  A    between atoms: C_17  and  C_18 
REMARK       I    between atoms: C_18  and  N_19 
REMARK    6  A    between atoms: N_19  and  C_20 
ROOT
HETATM    1  C   UNL     1      43.695 -18.693   4.770  1.00  0.00     0.256 C 
HETATM    2  N   UNL     1      42.456 -18.419   5.304  1.00  0.00    -0.353 N 
HETATM    3  O   UNL     1      44.401 -17.814   4.285  1.00  0.00    -0.268 OA
HETATM    4  H   UNL     1      41.823 -19.189   5.455  1.00  0.00     0.163 HD
ENDROOT
BRANCH   2   5
HETATM    5  C   UNL     1      41.894 -17.097   5.183  1.00  0.00     0.161 C 
BRANCH   5   6
HETATM    6  C   UNL     1      42.729 -16.072   5.904  1.00  0.00    -0.040 A 
HETATM    7  C   UNL     1      42.887 -14.789   5.356  1.00  0.00     0.010 A 
HETATM    8  C   UNL     1      43.622 -13.815   6.036  1.00  0.00     0.017 A 
HETATM    9  C   UNL     1      44.203 -14.110   7.274  1.00  0.00     0.032 A 
HETATM   10  C   UNL     1      44.090 -15.400   7.804  1.00  0.00     0.017 A 
HETATM   11  C   UNL     1      43.356 -16.375   7.120  1.00  0.00     0.010 A 
BRANCH   9  12
HETATM   12  C   UNL     1      44.934 -13.027   7.987  1.00  0.00     0.252 C 
HETATM   13  N   UNL     1      44.170 -12.245   8.834  1.00  0.00    -0.352 N 
HETATM   14  H   UNL     1      43.165 -12.357   8.830  1.00  0.00     0.163 HD
HETATM   15  O   UNL     1      46.129 -12.852   7.773  1.00  0.00    -0.268 OA
BRANCH  13  16
HETATM   16  C   UNL     1      44.711 -11.102   9.501  1.00  0.00     0.084 A 
HETATM   17  C   UNL     1      44.009 -10.519  10.697  1.00  0.00     0.027 A 
HETATM   18  C   UNL     1      45.319 -11.230  10.871  1.00  0.00     0.027 A 
ENDBRANCH  13  16
ENDBRANCH   9  12
ENDBRANCH   5   6
ENDBRANCH   2   5
BRANCH   1  19
HETATM   19  C   UNL     1      44.093 -20.098   4.755  1.00  0.00     0.082 A 
HETATM   20  C   UNL     1      44.197 -20.935   5.907  1.00  0.00     0.068 A 
HETATM   21  C   UNL     1      43.926 -20.581   7.325  1.00  0.00     0.073 C 
HETATM   22  N   UNL     1      44.610 -22.169   5.599  1.00  0.00    -0.179 NA
HETATM   23  N   UNL     1      44.738 -22.144   4.270  1.00  0.00    -0.281 N 
HETATM   24  H   UNL     1      45.031 -22.998   3.809  1.00  0.00     0.189 HD
HETATM   25  C   UNL     1      44.419 -20.939   3.692  1.00  0.00     0.049 A 
BRANCH  25  26
HETATM   26  C   UNL     1      44.448 -20.766   2.199  1.00  0.00     0.030 C 
HETATM   27  C   UNL     1      44.368 -22.124   1.499  1.00  0.00     0.016 C 
HETATM   28  C   UNL     1      43.330 -19.843   1.700  1.00  0.00     0.016 C 
ENDBRANCH  25  26
ENDBRANCH   1  19
TORSDOF 6
ENDMDL
MODEL 9
REMARK VINA RESULT:      -7.2      1.833      3.060
REMARK  6 active torsions:
REMARK  status: ('A' for Active; 'I' for Inactive)
REMARK    1  A    between atoms: C_6  and  C_7 
REMARK    2  A    between atoms: C_10  and  C_11 
REMARK       I    between atoms: C_11  and  N_12 
REMARK    3  A    between atoms: N_12  and  C_13 
REMARK    4  A    between atoms: C_13  and  C_14 
REMARK    5  A    between atoms: C_17  and  C_18 
REMARK       I    between atoms: C_18  and  N_19 
REMARK    6  A    between atoms: N_19  and  C_20 
ROOT
HETATM    1  C   UNL     1      42.818 -17.408   4.398  1.00  0.00     0.256 C 
HETATM    2  N   UNL     1      41.531 -17.450   3.913  1.00  0.00    -0.353 N 
HETATM    3  O   UNL     1      43.350 -16.354   4.734  1.00  0.00    -0.268 OA
HETATM    4  H   UNL     1      41.235 -18.281   3.423  1.00  0.00     0.163 HD
ENDROOT
BRANCH   2   5
HETATM    5  C   UNL     1      40.815 -16.226   3.658  1.00  0.00     0.161 C 
BRANCH   5   6
HETATM    6  C   UNL     1      41.031 -15.740   2.249  1.00  0.00    -0.040 A 
HETATM    7  C   UNL     1      41.178 -16.665   1.205  1.00  0.00     0.010 A 
HETATM    8  C   UNL     1      41.336 -16.229  -0.112  1.00  0.00     0.017 A 
HETATM    9  C   UNL     1      41.343 -14.860  -0.402  1.00  0.00     0.032 A 
HETATM   10  C   UNL     1      41.245 -13.930   0.639  1.00  0.00     0.017 A 
HETATM   11  C   UNL     1      41.091 -14.370   1.958  1.00  0.00     0.010 A 
BRANCH   9  12
HETATM   12  C   UNL     1      41.461 -14.440  -1.824  1.00  0.00     0.252 C 
HETATM   13  N   UNL     1      42.226 -13.310  -2.054  1.00  0.00    -0.352 N 
HETATM   14  H   UNL     1      42.548 -12.769  -1.263  1.00  0.00     0.163 HD
HETATM   15  O   UNL     1      40.867 -15.062  -2.698  1.00  0.00    -0.268 OA
BRANCH  13  16
HETATM   16  C   UNL     1      42.340 -12.725  -3.354  1.00  0.00     0.084 A 
HETATM   17  C   UNL     1      41.199 -11.936  -3.933  1.00  0.00     0.027 A 
HETATM   18  C   UNL     1      42.458 -11.234  -3.516  1.00  0.00     0.027 A 
ENDBRANCH  13  16
ENDBRANCH   9  12
ENDBRANCH   5   6
ENDBRANCH   2   5
BRANCH   1  19
HETATM   19  C   UNL     1      43.537 -18.679   4.428  1.00  0.00     0.082 A 
HETATM   20  C   UNL     1      44.138 -19.310   3.295  1.00  0.00     0.068 A 
HETATM   21  C   UNL     1      44.172 -18.829   1.889  1.00  0.00     0.073 C 
HETATM   22  N   UNL     1      44.705 -20.478   3.611  1.00  0.00    -0.179 NA
HETATM   23  N   UNL     1      44.507 -20.588   4.926  1.00  0.00    -0.281 N 
HETATM   24  H   UNL     1      44.878 -21.410   5.391  1.00  0.00     0.189 HD
HETATM   25  C   UNL     1      43.835 -19.531   5.489  1.00  0.00     0.049 A 
BRANCH  25  26
HETATM   26  C   UNL     1      43.590 -19.471   6.972  1.00  0.00     0.030 C 
HETATM   27  C   UNL     1      43.686 -20.868   7.590  1.00  0.00     0.016 C 
HETATM   28  C   UNL     1      44.551 -18.508   7.679  1.00  0.00     0.016 C 
ENDBRANCH  25  26
ENDBRANCH   1  19
TORSDOF 6
ENDMDL
MODEL 10
REMARK VINA RESULT:      -7.2      1.517      3.009
REMARK  6 active torsions:
REMARK  status: ('A' for Active; 'I' for Inactive)
REMARK    1  A    between atoms: C_6  and  C_7 
REMARK    2  A    between atoms: C_10  and  C_11 
REMARK       I    between atoms: C_11  and  N_12 
REMARK    3  A    between atoms: N_12  and  C_13 
REMARK    4  A    between atoms: C_13  and  C_14 
REMARK    5  A    between atoms: C_17  and  C_18 
REMARK       I    between atoms: C_18  and  N_19 
REMARK    6  A    between atoms: N_19  and  C_20 
ROOT
HETATM    1  C   UNL     1      42.879 -17.804   4.042  1.00  0.00     0.256 C 
HETATM    2  N   UNL     1      43.433 -16.727   3.387  1.00  0.00    -0.353 N 
HETATM    3  O   UNL     1      41.753 -17.755   4.532  1.00  0.00    -0.268 OA
HETATM    4  H   UNL     1      44.429 -16.729   3.231  1.00  0.00     0.163 HD
ENDROOT
BRANCH   2   5
HETATM    5  C   UNL     1      42.750 -15.458   3.377  1.00  0.00     0.161 C 
BRANCH   5   6
HETATM    6  C   UNL     1      42.127 -15.175   2.035  1.00  0.00    -0.040 A 
HETATM    7  C   UNL     1      41.954 -13.849   1.610  1.00  0.00     0.010 A 
HETATM    8  C   UNL     1      41.418 -13.573   0.350  1.00  0.00     0.017 A 
HETATM    9  C   UNL     1      41.053 -14.620  -0.502  1.00  0.00     0.032 A 
HETATM   10  C   UNL     1      41.177 -15.944  -0.067  1.00  0.00     0.017 A 
HETATM   11  C   UNL     1      41.711 -16.218   1.197  1.00  0.00     0.010 A 
BRANCH   9  12
HETATM   12  C   UNL     1      40.534 -14.281  -1.855  1.00  0.00     0.252 C 
HETATM   13  N   UNL     1      39.281 -14.781  -2.159  1.00  0.00    -0.352 N 
HETATM   14  H   UNL     1      38.849 -15.437  -1.522  1.00  0.00     0.163 HD
HETATM   15  O   UNL     1      41.227 -13.633  -2.632  1.00  0.00    -0.268 OA
BRANCH  13  16
HETATM   16  C   UNL     1      38.701 -14.630  -3.457  1.00  0.00     0.084 A 
HETATM   17  C   UNL     1      37.315 -15.145  -3.733  1.00  0.00     0.027 A 
HETATM   18  C   UNL     1      37.568 -13.667  -3.684  1.00  0.00     0.027 A 
ENDBRANCH  13  16
ENDBRANCH   9  12
ENDBRANCH   5   6
ENDBRANCH   2   5
BRANCH   1  19
HETATM   19  C   UNL     1      43.729 -18.982   4.180  1.00  0.00     0.082 A 
HETATM   20  C   UNL     1      43.964 -19.950   3.156  1.00  0.00     0.068 A 
HETATM   21  C   UNL     1      43.423 -19.970   1.772  1.00  0.00     0.073 C 
HETATM   22  N   UNL     1      44.764 -20.938   3.570  1.00  0.00    -0.179 NA
HETATM   23  N   UNL     1      45.069 -20.602   4.825  1.00  0.00    -0.281 N 
HETATM   24  H   UNL     1      45.694 -21.215   5.338  1.00  0.00     0.189 HD
HETATM   25  C   UNL     1      44.504 -19.425   5.251  1.00  0.00     0.049 A 
BRANCH  25  26
HETATM   26  C   UNL     1      44.803 -18.872   6.617  1.00  0.00     0.030 C 
HETATM   27  C   UNL     1      45.160 -17.387   6.530  1.00  0.00     0.016 C 
HETATM   28  C   UNL     1      43.643 -19.086   7.596  1.00  0.00     0.016 C 
ENDBRANCH  25  26
ENDBRANCH   1  19
TORSDOF 6
ENDMDL
