MODEL 1
REMARK VINA RESULT:      -8.0      0.000      0.000
REMARK  6 active torsions:
REMARK  status: ('A' for Active; 'I' for Inactive)
REMARK    1  A    between atoms: O_2  and  C_3 
REMARK    2  A    between atoms: C_7  and  C_8 
REMARK    3  A    between atoms: C_8  and  N_9 
REMARK    4  A    between atoms: N_9  and  C_10 
REMARK       I    between atoms: N_9  and  C_13 
REMARK       I    between atoms: C_13  and  N_15 
REMARK    5  A    between atoms: N_15  and  C_16 
REMARK    6  A    between atoms: C_19  and  C_22 
ROOT
HETATM    1  N   UNL     1      43.065 -17.790   4.079  1.00  0.00    -0.325 N 
HETATM    2  C   UNL     1      43.149 -17.129   2.840  1.00  0.00     0.323 C 
HETATM    3  O   UNL     1      44.201 -17.088   2.204  1.00  0.00    -0.247 OA
HETATM    4  N   UNL     1      41.971 -16.534   2.436  1.00  0.00    -0.309 N 
HETATM    5  H   UNL     1      41.167 -16.718   3.012  1.00  0.00     0.170 HD
ENDROOT
BRANCH   1   6
HETATM    6  C   UNL     1      44.321 -18.268   4.667  1.00  0.00     0.166 C 
BRANCH   6   7
HETATM    7  C   UNL     1      44.412 -19.778   4.690  1.00  0.00    -0.037 A 
HETATM    8  C   UNL     1      44.399 -20.475   5.904  1.00  0.00     0.009 A 
HETATM    9  C   UNL     1      44.474 -21.867   5.920  1.00  0.00     0.003 A 
HETATM   10  C   UNL     1      44.568 -22.581   4.723  1.00  0.00     0.037 A 
HETATM   11  C   UNL     1      44.586 -21.903   3.504  1.00  0.00     0.068 A 
HETATM   12  C   UNL     1      44.500 -20.507   3.494  1.00  0.00     0.045 A 
BRANCH  11  13
HETATM   13  O   UNL     1      44.676 -22.478   2.266  1.00  0.00    -0.356 OA
HETATM   14  C   UNL     1      43.887 -21.899   1.234  1.00  0.00     0.210 C 
ENDBRANCH  11  13
ENDBRANCH   6   7
ENDBRANCH   1   6
BRANCH   1  15
HETATM   15  C   UNL     1      41.904 -17.767   4.942  1.00  0.00     0.089 A 
HETATM   16  C   UNL     1      42.021 -17.426   6.409  1.00  0.00     0.027 A 
HETATM   17  C   UNL     1      41.321 -16.484   5.483  1.00  0.00     0.027 A 
ENDBRANCH   1  15
BRANCH   4  18
HETATM   18  C   UNL     1      41.748 -15.726   1.303  1.00  0.00     0.036 A 
HETATM   19  C   UNL     1      41.795 -14.332   1.312  1.00  0.00     0.030 A 
HETATM   20  C   UNL     1      41.538 -13.601   0.143  1.00  0.00     0.014 A 
HETATM   21  C   UNL     1      41.225 -14.249  -1.056  1.00  0.00    -0.023 A 
HETATM   22  C   UNL     1      41.185 -15.647  -1.066  1.00  0.00     0.014 A 
HETATM   23  C   UNL     1      41.443 -16.377   0.102  1.00  0.00     0.030 A 
BRANCH  21  24
HETATM   24  C   UNL     1      40.955 -13.476  -2.256  1.00  0.00     0.010 A 
HETATM   25  C   UNL     1      41.750 -12.527  -2.943  1.00  0.00     0.152 A 
HETATM   26  N   UNL     1      41.134 -12.009  -4.009  1.00  0.00    -0.187 NA
HETATM   27  N   UNL     1      39.938 -12.617  -4.005  1.00  0.00    -0.289 N 
HETATM   28  H   UNL     1      39.273 -12.374  -4.732  1.00  0.00     0.188 HD
HETATM   29  C   UNL     1      39.781 -13.504  -2.979  1.00  0.00     0.123 A 
ENDBRANCH  21  24
ENDBRANCH   4  18
TORSDOF 6
ENDMDL
MODEL 2
REMARK VINA RESULT:      -7.9      2.772      9.169
REMARK  6 active torsions:
REMARK  status: ('A' for Active; 'I' for Inactive)
REMARK    1  A    between atoms: O_2  and  C_3 
REMARK    2  A    between atoms: C_7  and  C_8 
REMARK    3  A    between atoms: C_8  and  N_9 
REMARK    4  A    between atoms: N_9  and  C_10 
REMARK       I    between atoms: N_9  and  C_13 
REMARK       I    between atoms: C_13  and  N_15 
REMARK    5  A    between atoms: N_15  and  C_16 
REMARK    6  A    between atoms: C_19  and  C_22 
ROOT
HETATM    1  N   UNL     1      40.914 -13.833   0.751  1.00  0.00    -0.325 N 
HETATM    2  C   UNL     1      41.101 -15.175   1.131  1.00  0.00     0.323 C 
HETATM    3  O   UNL     1      40.154 -15.953   1.230  1.00  0.00    -0.247 OA
HETATM    4  N   UNL     1      42.415 -15.510   1.392  1.00  0.00    -0.309 N 
HETATM    5  H   UNL     1      43.096 -14.799   1.189  1.00  0.00     0.170 HD
ENDROOT
BRANCH   1   6
HETATM    6  C   UNL     1      39.531 -13.354   0.657  1.00  0.00     0.166 C 
BRANCH   6   7
HETATM    7  C   UNL     1      39.022 -13.332  -0.767  1.00  0.00    -0.037 A 
HETATM    8  C   UNL     1      37.998 -12.455  -1.146  1.00  0.00     0.009 A 
HETATM    9  C   UNL     1      37.538 -12.432  -2.462  1.00  0.00     0.003 A 
HETATM   10  C   UNL     1      38.091 -13.289  -3.416  1.00  0.00     0.037 A 
HETATM   11  C   UNL     1      39.109 -14.173  -3.056  1.00  0.00     0.068 A 
HETATM   12  C   UNL     1      39.572 -14.184  -1.737  1.00  0.00     0.045 A 
BRANCH  11  13
HETATM   13  O   UNL     1      39.731 -15.063  -3.888  1.00  0.00    -0.356 OA
HETATM   14  C   UNL     1      38.968 -16.188  -4.306  1.00  0.00     0.210 C 
ENDBRANCH  11  13
ENDBRANCH   6   7
ENDBRANCH   1   6
BRANCH   1  15
HETATM   15  C   UNL     1      41.958 -12.832   0.742  1.00  0.00     0.089 A 
HETATM   16  C   UNL     1      42.365 -12.132  -0.533  1.00  0.00     0.027 A 
HETATM   17  C   UNL     1      41.670 -11.363   0.545  1.00  0.00     0.027 A 
ENDBRANCH   1  15
BRANCH   4  18
HETATM   18  C   UNL     1      42.921 -16.732   1.878  1.00  0.00     0.036 A 
HETATM   19  C   UNL     1      43.440 -17.744   1.072  1.00  0.00     0.030 A 
HETATM   20  C   UNL     1      43.905 -18.941   1.636  1.00  0.00     0.014 A 
HETATM   21  C   UNL     1      43.854 -19.151   3.018  1.00  0.00    -0.023 A 
HETATM   22  C   UNL     1      43.339 -18.133   3.827  1.00  0.00     0.014 A 
HETATM   23  C   UNL     1      42.877 -16.937   3.262  1.00  0.00     0.030 A 
BRANCH  21  24
HETATM   24  C   UNL     1      44.332 -20.400   3.586  1.00  0.00     0.010 A 
HETATM   25  C   UNL     1      44.387 -21.704   3.037  1.00  0.00     0.152 A 
HETATM   26  N   UNL     1      44.879 -22.605   3.891  1.00  0.00    -0.187 NA
HETATM   27  N   UNL     1      45.133 -21.885   4.994  1.00  0.00    -0.289 N 
HETATM   28  H   UNL     1      45.513 -22.364   5.804  1.00  0.00     0.188 HD
HETATM   29  C   UNL     1      44.825 -20.561   4.863  1.00  0.00     0.123 A 
ENDBRANCH  21  24
ENDBRANCH   4  18
TORSDOF 6
ENDMDL
MODEL 3
REMARK VINA RESULT:      -7.8      2.386      3.565
REMARK  6 active torsions:
REMARK  status: ('A' for Active; 'I' for Inactive)
REMARK    1  A    between atoms: O_2  and  C_3 
REMARK    2  A    between atoms: C_7  and  C_8 
REMARK    3  A    between atoms: C_8  and  N_9 
REMARK    4  A    between atoms: N_9  and  C_10 
REMARK       I    between atoms: N_9  and  C_13 
REMARK       I    between atoms: C_13  and  N_15 
REMARK    5  A    between atoms: N_15  and  C_16 
REMARK    6  A    between atoms: C_19  and  C_22 
ROOT
HETATM    1  N   UNL     1      41.657 -15.787   3.174  1.00  0.00    -0.325 N 
HETATM    2  C   UNL     1      40.668 -15.770   2.174  1.00  0.00     0.323 C 
HETATM    3  O   UNL     1      39.776 -16.616   2.137  1.00  0.00    -0.247 OA
HETATM    4  N   UNL     1      40.810 -14.748   1.257  1.00  0.00    -0.309 N 
HETATM    5  H   UNL     1      41.534 -14.079   1.455  1.00  0.00     0.170 HD
ENDROOT
BRANCH   1   6
HETATM    6  C   UNL     1      41.690 -16.956   4.059  1.00  0.00     0.166 C 
BRANCH   6   7
HETATM    7  C   UNL     1      42.638 -18.028   3.569  1.00  0.00    -0.037 A 
HETATM    8  C   UNL     1      42.715 -18.344   2.207  1.00  0.00     0.009 A 
HETATM    9  C   UNL     1      43.597 -19.326   1.759  1.00  0.00     0.003 A 
HETATM   10  C   UNL     1      44.410 -20.010   2.666  1.00  0.00     0.037 A 
HETATM   11  C   UNL     1      44.343 -19.713   4.027  1.00  0.00     0.068 A 
HETATM   12  C   UNL     1      43.463 -18.719   4.469  1.00  0.00     0.045 A 
BRANCH  11  13
HETATM   13  O   UNL     1      45.077 -20.306   5.017  1.00  0.00    -0.356 OA
HETATM   14  C   UNL     1      44.789 -21.671   5.295  1.00  0.00     0.210 C 
ENDBRANCH  11  13
ENDBRANCH   6   7
ENDBRANCH   1   6
BRANCH   1  15
HETATM   15  C   UNL     1      42.807 -14.909   3.204  1.00  0.00     0.089 A 
HETATM   16  C   UNL     1      42.740 -13.550   3.860  1.00  0.00     0.027 A 
HETATM   17  C   UNL     1      43.579 -14.627   4.471  1.00  0.00     0.027 A 
ENDBRANCH   1  15
BRANCH   4  18
HETATM   18  C   UNL     1      40.050 -14.510   0.094  1.00  0.00     0.036 A 
HETATM   19  C   UNL     1      40.507 -14.741  -1.203  1.00  0.00     0.030 A 
HETATM   20  C   UNL     1      39.693 -14.457  -2.309  1.00  0.00     0.014 A 
HETATM   21  C   UNL     1      38.408 -13.930  -2.139  1.00  0.00    -0.023 A 
HETATM   22  C   UNL     1      37.948 -13.705  -0.837  1.00  0.00     0.014 A 
HETATM   23  C   UNL     1      38.762 -13.991   0.267  1.00  0.00     0.030 A 
BRANCH  21  24
HETATM   24  C   UNL     1      37.580 -13.634  -3.296  1.00  0.00     0.010 A 
HETATM   25  C   UNL     1      37.082 -12.402  -3.785  1.00  0.00     0.152 A 
HETATM   26  N   UNL     1      36.327 -12.545  -4.877  1.00  0.00    -0.187 NA
HETATM   27  N   UNL     1      36.331 -13.870  -5.089  1.00  0.00    -0.289 N 
HETATM   28  H   UNL     1      35.806 -14.233  -5.877  1.00  0.00     0.188 HD
HETATM   29  C   UNL     1      37.067 -14.566  -4.172  1.00  0.00     0.123 A 
ENDBRANCH  21  24
ENDBRANCH   4  18
TORSDOF 6
ENDMDL
MODEL 4
REMARK VINA RESULT:      -7.8      3.163      3.793
REMARK  6 active torsions:
REMARK  status: ('A' for Active; 'I' for Inactive)
REMARK    1  A    between atoms: O_2  and  C_3 
REMARK    2  A    between atoms: C_7  and  C_8 
REMARK    3  A    between atoms: C_8  and  N_9 
REMARK    4  A    between atoms: N_9  and  C_10 
REMARK       I    between atoms: N_9  and  C_13 
REMARK       I    between atoms: C_13  and  N_15 
REMARK    5  A    between atoms: N_15  and  C_16 
REMARK    6  A    between atoms: C_19  and  C_22 
ROOT
HETATM    1  N   UNL     1      41.915 -16.149   3.997  1.00  0.00    -0.325 N 
HETATM    2  C   UNL     1      41.324 -15.397   2.965  1.00  0.00     0.323 C 
HETATM    3  O   UNL     1      41.934 -15.135   1.930  1.00  0.00    -0.247 OA
HETATM    4  N   UNL     1      40.036 -14.980   3.236  1.00  0.00    -0.309 N 
HETATM    5  H   UNL     1      39.630 -15.337   4.084  1.00  0.00     0.170 HD
ENDROOT
BRANCH   1   6
HETATM    6  C   UNL     1      43.344 -16.452   3.867  1.00  0.00     0.166 C 
BRANCH   6   7
HETATM    7  C   UNL     1      43.597 -17.881   3.441  1.00  0.00    -0.037 A 
HETATM    8  C   UNL     1      43.160 -18.342   2.194  1.00  0.00     0.009 A 
HETATM    9  C   UNL     1      43.404 -19.658   1.802  1.00  0.00     0.003 A 
HETATM   10  C   UNL     1      44.084 -20.531   2.654  1.00  0.00     0.037 A 
HETATM   11  C   UNL     1      44.524 -20.091   3.902  1.00  0.00     0.068 A 
HETATM   12  C   UNL     1      44.284 -18.767   4.285  1.00  0.00     0.045 A 
BRANCH  11  13
HETATM   13  O   UNL     1      45.195 -20.840   4.829  1.00  0.00    -0.356 OA
HETATM   14  C   UNL     1      44.889 -22.228   4.870  1.00  0.00     0.210 C 
ENDBRANCH  11  13
ENDBRANCH   6   7
ENDBRANCH   1   6
BRANCH   1  15
HETATM   15  C   UNL     1      41.309 -16.383   5.290  1.00  0.00     0.089 A 
HETATM   16  C   UNL     1      40.933 -17.774   5.742  1.00  0.00     0.027 A 
HETATM   17  C   UNL     1      42.050 -17.049   6.424  1.00  0.00     0.027 A 
ENDBRANCH   1  15
BRANCH   4  18
HETATM   18  C   UNL     1      39.211 -14.142   2.460  1.00  0.00     0.036 A 
HETATM   19  C   UNL     1      39.135 -12.758   2.611  1.00  0.00     0.030 A 
HETATM   20  C   UNL     1      38.270 -11.997   1.811  1.00  0.00     0.014 A 
HETATM   21  C   UNL     1      37.461 -12.608   0.846  1.00  0.00    -0.023 A 
HETATM   22  C   UNL     1      37.543 -13.996   0.691  1.00  0.00     0.014 A 
HETATM   23  C   UNL     1      38.408 -14.754   1.490  1.00  0.00     0.030 A 
BRANCH  21  24
HETATM   24  C   UNL     1      36.565 -11.807   0.030  1.00  0.00     0.010 A 
HETATM   25  C   UNL     1      36.671 -11.384  -1.317  1.00  0.00     0.152 A 
HETATM   26  N   UNL     1      35.639 -10.630  -1.706  1.00  0.00    -0.187 NA
HETATM   27  N   UNL     1      34.872 -10.558  -0.608  1.00  0.00    -0.289 N 
HETATM   28  H   UNL     1      34.015 -10.018  -0.655  1.00  0.00     0.188 HD
HETATM   29  C   UNL     1      35.380 -11.246   0.457  1.00  0.00     0.123 A 
ENDBRANCH  21  24
ENDBRANCH   4  18
TORSDOF 6
ENDMDL
MODEL 5
REMARK VINA RESULT:      -7.7      3.045      9.490
REMARK  6 active torsions:
REMARK  status: ('A' for Active; 'I' for Inactive)
REMARK    1  A    between atoms: O_2  and  C_3 
REMARK    2  A    between atoms: C_7  and  C_8 
REMARK    3  A    between atoms: C_8  and  N_9 
REMARK    4  A    between atoms: N_9  and  C_10 
REMARK       I    between atoms: N_9  and  C_13 
REMARK       I    between atoms: C_13  and  N_15 
REMARK    5  A    between atoms: N_15  and  C_16 
REMARK    6  A    between atoms: C_19  and  C_22 
ROOT
HETATM    1  N   UNL     1      40.430 -14.724   0.029  1.00  0.00    -0.325 N 
HETATM    2  C   UNL     1      41.294 -15.371   0.931  1.00  0.00     0.323 C 
HETATM    3  O   UNL     1      42.335 -15.905   0.552  1.00  0.00    -0.247 OA
HETATM    4  N   UNL     1      40.855 -15.362   2.240  1.00  0.00    -0.309 N 
HETATM    5  H   UNL     1      40.030 -14.817   2.421  1.00  0.00     0.170 HD
ENDROOT
BRANCH   1   6
HETATM    6  C   UNL     1      40.726 -14.869  -1.399  1.00  0.00     0.166 C 
BRANCH   6   7
HETATM    7  C   UNL     1      41.383 -13.637  -1.983  1.00  0.00    -0.037 A 
HETATM    8  C   UNL     1      41.198 -13.300  -3.329  1.00  0.00     0.009 A 
HETATM    9  C   UNL     1      41.798 -12.159  -3.860  1.00  0.00     0.003 A 
HETATM   10  C   UNL     1      42.594 -11.342  -3.054  1.00  0.00     0.037 A 
HETATM   11  C   UNL     1      42.792 -11.664  -1.712  1.00  0.00     0.068 A 
HETATM   12  C   UNL     1      42.180 -12.805  -1.183  1.00  0.00     0.045 A 
BRANCH  11  13
HETATM   13  O   UNL     1      43.547 -10.955  -0.818  1.00  0.00    -0.356 OA
HETATM   14  C   UNL     1      43.864  -9.614  -1.171  1.00  0.00     0.210 C 
ENDBRANCH  11  13
ENDBRANCH   6   7
ENDBRANCH   1   6
BRANCH   1  15
HETATM   15  C   UNL     1      39.130 -14.192   0.379  1.00  0.00     0.089 A 
HETATM   16  C   UNL     1      38.904 -12.706   0.529  1.00  0.00     0.027 A 
HETATM   17  C   UNL     1      38.269 -13.441  -0.608  1.00  0.00     0.027 A 
ENDBRANCH   1  15
BRANCH   4  18
HETATM   18  C   UNL     1      41.435 -15.997   3.357  1.00  0.00     0.036 A 
HETATM   19  C   UNL     1      41.587 -17.377   3.484  1.00  0.00     0.030 A 
HETATM   20  C   UNL     1      42.155 -17.930   4.640  1.00  0.00     0.014 A 
HETATM   21  C   UNL     1      42.578 -17.113   5.695  1.00  0.00    -0.023 A 
HETATM   22  C   UNL     1      42.431 -15.728   5.563  1.00  0.00     0.014 A 
HETATM   23  C   UNL     1      41.864 -15.177   4.407  1.00  0.00     0.030 A 
BRANCH  21  24
HETATM   24  C   UNL     1      43.158 -17.703   6.889  1.00  0.00     0.010 A 
HETATM   25  C   UNL     1      43.709 -18.988   7.112  1.00  0.00     0.152 A 
HETATM   26  N   UNL     1      44.125 -19.163   8.369  1.00  0.00    -0.187 NA
HETATM   27  N   UNL     1      43.835 -17.994   8.960  1.00  0.00    -0.289 N 
HETATM   28  H   UNL     1      44.055 -17.885   9.944  1.00  0.00     0.188 HD
HETATM   29  C   UNL     1      43.257 -17.087   8.118  1.00  0.00     0.123 A 
ENDBRANCH  21  24
ENDBRANCH   4  18
TORSDOF 6
ENDMDL
MODEL 6
REMARK VINA RESULT:      -7.7      2.244      2.949
REMARK  6 active torsions:
REMARK  status: ('A' for Active; 'I' for Inactive)
REMARK    1  A    between atoms: O_2  and  C_3 
REMARK    2  A    between atoms: C_7  and  C_8 
REMARK    3  A    between atoms: C_8  and  N_9 
REMARK    4  A    between atoms: N_9  and  C_10 
REMARK       I    between atoms: N_9  and  C_13 
REMARK       I    between atoms: C_13  and  N_15 
REMARK    5  A    between atoms: N_15  and  C_16 
REMARK    6  A    between atoms: C_19  and  C_22 
ROOT
HETATM    1  N   UNL     1      41.936 -15.763   3.998  1.00  0.00    -0.325 N 
HETATM    2  C   UNL     1      40.922 -15.762   3.022  1.00  0.00     0.323 C 
HETATM    3  O   UNL     1      39.990 -16.563   3.063  1.00  0.00    -0.247 OA
HETATM    4  N   UNL     1      41.088 -14.810   2.036  1.00  0.00    -0.309 N 
HETATM    5  H   UNL     1      41.848 -14.167   2.172  1.00  0.00     0.170 HD
ENDROOT
BRANCH   1   6
HETATM    6  C   UNL     1      41.936 -16.872   4.958  1.00  0.00     0.166 C 
BRANCH   6   7
HETATM    7  C   UNL     1      42.938 -17.948   4.600  1.00  0.00    -0.037 A 
HETATM    8  C   UNL     1      43.960 -18.295   5.491  1.00  0.00     0.009 A 
HETATM    9  C   UNL     1      44.875 -19.294   5.162  1.00  0.00     0.003 A 
HETATM   10  C   UNL     1      44.784 -19.955   3.934  1.00  0.00     0.037 A 
HETATM   11  C   UNL     1      43.775 -19.619   3.032  1.00  0.00     0.068 A 
HETATM   12  C   UNL     1      42.854 -18.624   3.373  1.00  0.00     0.045 A 
BRANCH  11  13
HETATM   13  O   UNL     1      43.576 -20.184   1.802  1.00  0.00    -0.356 OA
HETATM   14  C   UNL     1      43.841 -21.576   1.687  1.00  0.00     0.210 C 
ENDBRANCH  11  13
ENDBRANCH   6   7
ENDBRANCH   1   6
BRANCH   1  15
HETATM   15  C   UNL     1      43.127 -14.943   3.942  1.00  0.00     0.089 A 
HETATM   16  C   UNL     1      43.100 -13.491   4.358  1.00  0.00     0.027 A 
HETATM   17  C   UNL     1      43.854 -14.485   5.183  1.00  0.00     0.027 A 
ENDBRANCH   1  15
BRANCH   4  18
HETATM   18  C   UNL     1      40.310 -14.611   0.878  1.00  0.00     0.036 A 
HETATM   19  C   UNL     1      39.022 -14.077   0.881  1.00  0.00     0.030 A 
HETATM   20  C   UNL     1      38.305 -13.933  -0.316  1.00  0.00     0.014 A 
HETATM   21  C   UNL     1      38.861 -14.325  -1.539  1.00  0.00    -0.023 A 
HETATM   22  C   UNL     1      40.156 -14.854  -1.541  1.00  0.00     0.014 A 
HETATM   23  C   UNL     1      40.871 -14.997  -0.344  1.00  0.00     0.030 A 
BRANCH  21  24
HETATM   24  C   UNL     1      38.103 -14.175  -2.768  1.00  0.00     0.010 A 
HETATM   25  C   UNL     1      37.342 -15.114  -3.505  1.00  0.00     0.152 A 
HETATM   26  N   UNL     1      36.805 -14.593  -4.612  1.00  0.00    -0.187 NA
HETATM   27  N   UNL     1      37.227 -13.319  -4.594  1.00  0.00    -0.289 N 
HETATM   28  H   UNL     1      36.949 -12.710  -5.356  1.00  0.00     0.188 HD
HETATM   29  C   UNL     1      38.005 -13.018  -3.513  1.00  0.00     0.123 A 
ENDBRANCH  21  24
ENDBRANCH   4  18
TORSDOF 6
ENDMDL
MODEL 7
REMARK VINA RESULT:      -7.4      2.297      2.698
REMARK  6 active torsions:
REMARK  status: ('A' for Active; 'I' for Inactive)
REMARK    1  A    between atoms: O_2  and  C_3 
REMARK    2  A    between atoms: C_7  and  C_8 
REMARK    3  A    between atoms: C_8  and  N_9 
REMARK    4  A    between atoms: N_9  and  C_10 
REMARK       I    between atoms: N_9  and  C_13 
REMARK       I    between atoms: C_13  and  N_15 
REMARK    5  A    between atoms: N_15  and  C_16 
REMARK    6  A    between atoms: C_19  and  C_22 
ROOT
HETATM    1  N   UNL     1      43.385 -18.010   5.388  1.00  0.00    -0.325 N 
HETATM    2  C   UNL     1      42.824 -17.342   4.284  1.00  0.00     0.323 C 
HETATM    3  O   UNL     1      43.348 -17.387   3.172  1.00  0.00    -0.247 OA
HETATM    4  N   UNL     1      41.673 -16.639   4.574  1.00  0.00    -0.309 N 
HETATM    5  H   UNL     1      41.310 -16.758   5.504  1.00  0.00     0.170 HD
ENDROOT
BRANCH   1   6
HETATM    6  C   UNL     1      44.712 -18.608   5.203  1.00  0.00     0.166 C 
BRANCH   6   7
HETATM    7  C   UNL     1      44.648 -20.102   4.975  1.00  0.00    -0.037 A 
HETATM    8  C   UNL     1      44.512 -20.983   6.055  1.00  0.00     0.009 A 
HETATM    9  C   UNL     1      44.444 -22.358   5.840  1.00  0.00     0.003 A 
HETATM   10  C   UNL     1      44.516 -22.873   4.544  1.00  0.00     0.037 A 
HETATM   11  C   UNL     1      44.656 -22.011   3.456  1.00  0.00     0.068 A 
HETATM   12  C   UNL     1      44.713 -20.631   3.677  1.00  0.00     0.045 A 
BRANCH  11  13
HETATM   13  O   UNL     1      44.741 -22.382   2.142  1.00  0.00    -0.356 OA
HETATM   14  C   UNL     1      43.812 -21.782   1.247  1.00  0.00     0.210 C 
ENDBRANCH  11  13
ENDBRANCH   6   7
ENDBRANCH   1   6
BRANCH   1  15
HETATM   15  C   UNL     1      42.901 -17.895   6.746  1.00  0.00     0.089 A 
HETATM   16  C   UNL     1      43.824 -18.081   7.928  1.00  0.00     0.027 A 
HETATM   17  C   UNL     1      43.255 -16.728   7.637  1.00  0.00     0.027 A 
ENDBRANCH   1  15
BRANCH   4  18
HETATM   18  C   UNL     1      40.929 -15.798   3.723  1.00  0.00     0.036 A 
HETATM   19  C   UNL     1      40.779 -14.424   3.911  1.00  0.00     0.030 A 
HETATM   20  C   UNL     1      40.001 -13.662   3.028  1.00  0.00     0.014 A 
HETATM   21  C   UNL     1      39.354 -14.260   1.941  1.00  0.00    -0.023 A 
HETATM   22  C   UNL     1      39.511 -15.637   1.748  1.00  0.00     0.014 A 
HETATM   23  C   UNL     1      40.289 -16.397   2.631  1.00  0.00     0.030 A 
BRANCH  21  24
HETATM   24  C   UNL     1      38.547 -13.457   1.039  1.00  0.00     0.010 A 
HETATM   25  C   UNL     1      38.342 -13.560  -0.358  1.00  0.00     0.152 A 
HETATM   26  N   UNL     1      37.535 -12.608  -0.836  1.00  0.00    -0.187 NA
HETATM   27  N   UNL     1      37.227 -11.885   0.252  1.00  0.00    -0.289 N 
HETATM   28  H   UNL     1      36.618 -11.082   0.138  1.00  0.00     0.188 HD
HETATM   29  C   UNL     1      37.805 -12.352   1.398  1.00  0.00     0.123 A 
ENDBRANCH  21  24
ENDBRANCH   4  18
TORSDOF 6
ENDMDL
MODEL 8
REMARK VINA RESULT:      -7.3      2.813      8.913
REMARK  6 active torsions:
REMARK  status: ('A' for Active; 'I' for Inactive)
REMARK    1  A    between atoms: O_2  and  C_3 
REMARK    2  A    between atoms: C_7  and  C_8 
REMARK    3  A    between atoms: C_8  and  N_9 
REMARK    4  A    between atoms: N_9  and  C_10 
REMARK       I    between atoms: N_9  and  C_13 
REMARK       I    between atoms: C_13  and  N_15 
REMARK    5  A    between atoms: N_15  and  C_16 
REMARK    6  A    between atoms: C_19  and  C_22 
ROOT
HETATM    1  N   UNL     1      40.402 -13.551   0.834  1.00  0.00    -0.325 N 
HETATM    2  C   UNL     1      41.389 -14.366   1.417  1.00  0.00     0.323 C 
HETATM    3  O   UNL     1      42.491 -13.916   1.729  1.00  0.00    -0.247 OA
HETATM    4  N   UNL     1      41.012 -15.683   1.579  1.00  0.00    -0.309 N 
HETATM    5  H   UNL     1      40.054 -15.895   1.358  1.00  0.00     0.170 HD
ENDROOT
BRANCH   1   6
HETATM    6  C   UNL     1      40.800 -12.194   0.446  1.00  0.00     0.166 C 
BRANCH   6   7
HETATM    7  C   UNL     1      41.353 -12.132  -0.960  1.00  0.00    -0.037 A 
HETATM    8  C   UNL     1      42.017 -10.987  -1.416  1.00  0.00     0.009 A 
HETATM    9  C   UNL     1      42.534 -10.938  -2.710  1.00  0.00     0.003 A 
HETATM   10  C   UNL     1      42.389 -12.031  -3.568  1.00  0.00     0.037 A 
HETATM   11  C   UNL     1      41.726 -13.178  -3.133  1.00  0.00     0.068 A 
HETATM   12  C   UNL     1      41.219 -13.225  -1.831  1.00  0.00     0.045 A 
BRANCH  11  13
HETATM   13  O   UNL     1      41.513 -14.312  -3.869  1.00  0.00    -0.356 OA
HETATM   14  C   UNL     1      40.712 -15.322  -3.269  1.00  0.00     0.210 C 
ENDBRANCH  11  13
ENDBRANCH   6   7
ENDBRANCH   1   6
BRANCH   1  15
HETATM   15  C   UNL     1      39.138 -14.036   0.322  1.00  0.00     0.089 A 
HETATM   16  C   UNL     1      37.933 -14.189   1.219  1.00  0.00     0.027 A 
HETATM   17  C   UNL     1      37.935 -13.140   0.153  1.00  0.00     0.027 A 
ENDBRANCH   1  15
BRANCH   4  18
HETATM   18  C   UNL     1      41.793 -16.762   2.040  1.00  0.00     0.036 A 
HETATM   19  C   UNL     1      42.670 -17.495   1.241  1.00  0.00     0.030 A 
HETATM   20  C   UNL     1      43.395 -18.570   1.775  1.00  0.00     0.014 A 
HETATM   21  C   UNL     1      43.253 -18.937   3.117  1.00  0.00    -0.023 A 
HETATM   22  C   UNL     1      42.377 -18.198   3.920  1.00  0.00     0.014 A 
HETATM   23  C   UNL     1      41.654 -17.123   3.386  1.00  0.00     0.030 A 
BRANCH  21  24
HETATM   24  C   UNL     1      44.005 -20.058   3.653  1.00  0.00     0.010 A 
HETATM   25  C   UNL     1      44.536 -20.282   4.946  1.00  0.00     0.152 A 
HETATM   26  N   UNL     1      45.196 -21.440   5.043  1.00  0.00    -0.187 NA
HETATM   27  N   UNL     1      45.098 -21.959   3.809  1.00  0.00    -0.289 N 
HETATM   28  H   UNL     1      45.540 -22.854   3.628  1.00  0.00     0.188 HD
HETATM   29  C   UNL     1      44.395 -21.173   2.941  1.00  0.00     0.123 A 
ENDBRANCH  21  24
ENDBRANCH   4  18
TORSDOF 6
ENDMDL
MODEL 9
REMARK VINA RESULT:      -7.3      1.834      2.651
REMARK  6 active torsions:
REMARK  status: ('A' for Active; 'I' for Inactive)
REMARK    1  A    between atoms: O_2  and  C_3 
REMARK    2  A    between atoms: C_7  and  C_8 
REMARK    3  A    between atoms: C_8  and  N_9 
REMARK    4  A    between atoms: N_9  and  C_10 
REMARK       I    between atoms: N_9  and  C_13 
REMARK       I    between atoms: C_13  and  N_15 
REMARK    5  A    between atoms: N_15  and  C_16 
REMARK    6  A    between atoms: C_19  and  C_22 
ROOT
HETATM    1  N   UNL     1      41.959 -16.135   3.843  1.00  0.00    -0.325 N 
HETATM    2  C   UNL     1      41.236 -15.725   2.708  1.00  0.00     0.323 C 
HETATM    3  O   UNL     1      40.327 -16.411   2.243  1.00  0.00    -0.247 OA
HETATM    4  N   UNL     1      41.652 -14.521   2.178  1.00  0.00    -0.309 N 
HETATM    5  H   UNL     1      42.348 -14.026   2.708  1.00  0.00     0.170 HD
ENDROOT
BRANCH   1   6
HETATM    6  C   UNL     1      41.711 -17.493   4.337  1.00  0.00     0.166 C 
BRANCH   6   7
HETATM    7  C   UNL     1      42.680 -18.504   3.767  1.00  0.00    -0.037 A 
HETATM    8  C   UNL     1      42.738 -18.739   2.388  1.00  0.00     0.009 A 
HETATM    9  C   UNL     1      43.640 -19.664   1.865  1.00  0.00     0.003 A 
HETATM   10  C   UNL     1      44.493 -20.372   2.715  1.00  0.00     0.037 A 
HETATM   11  C   UNL     1      44.447 -20.155   4.092  1.00  0.00     0.068 A 
HETATM   12  C   UNL     1      43.547 -19.218   4.609  1.00  0.00     0.045 A 
BRANCH  11  13
HETATM   13  O   UNL     1      45.221 -20.781   5.031  1.00  0.00    -0.356 OA
HETATM   14  C   UNL     1      45.043 -22.184   5.173  1.00  0.00     0.210 C 
ENDBRANCH  11  13
ENDBRANCH   6   7
ENDBRANCH   1   6
BRANCH   1  15
HETATM   15  C   UNL     1      43.121 -15.449   4.366  1.00  0.00     0.089 A 
HETATM   16  C   UNL     1      42.987 -14.349   5.392  1.00  0.00     0.027 A 
HETATM   17  C   UNL     1      43.614 -15.651   5.778  1.00  0.00     0.027 A 
ENDBRANCH   1  15
BRANCH   4  18
HETATM   18  C   UNL     1      41.203 -13.885   1.002  1.00  0.00     0.036 A 
HETATM   19  C   UNL     1      40.333 -12.796   0.982  1.00  0.00     0.030 A 
HETATM   20  C   UNL     1      39.917 -12.235  -0.234  1.00  0.00     0.014 A 
HETATM   21  C   UNL     1      40.360 -12.757  -1.455  1.00  0.00    -0.023 A 
HETATM   22  C   UNL     1      41.238 -13.846  -1.433  1.00  0.00     0.014 A 
HETATM   23  C   UNL     1      41.654 -14.404  -0.217  1.00  0.00     0.030 A 
BRANCH  21  24
HETATM   24  C   UNL     1      39.914 -12.170  -2.706  1.00  0.00     0.010 A 
HETATM   25  C   UNL     1      40.525 -11.207  -3.545  1.00  0.00     0.152 A 
HETATM   26  N   UNL     1      39.780 -10.901  -4.611  1.00  0.00    -0.187 NA
HETATM   27  N   UNL     1      38.685 -11.660  -4.456  1.00  0.00    -0.289 N 
HETATM   28  H   UNL     1      37.952 -11.594  -5.154  1.00  0.00     0.188 HD
HETATM   29  C   UNL     1      38.716 -12.438  -3.334  1.00  0.00     0.123 A 
ENDBRANCH  21  24
ENDBRANCH   4  18
TORSDOF 6
ENDMDL
MODEL 10
REMARK VINA RESULT:      -7.3      2.156      2.869
REMARK  6 active torsions:
REMARK  status: ('A' for Active; 'I' for Inactive)
REMARK    1  A    between atoms: O_2  and  C_3 
REMARK    2  A    between atoms: C_7  and  C_8 
REMARK    3  A    between atoms: C_8  and  N_9 
REMARK    4  A    between atoms: N_9  and  C_10 
REMARK       I    between atoms: N_9  and  C_13 
REMARK       I    between atoms: C_13  and  N_15 
REMARK    5  A    between atoms: N_15  and  C_16 
REMARK    6  A    between atoms: C_19  and  C_22 
ROOT
HETATM    1  N   UNL     1      42.061 -16.961   4.026  1.00  0.00    -0.325 N 
HETATM    2  C   UNL     1      41.775 -16.331   2.801  1.00  0.00     0.323 C 
HETATM    3  O   UNL     1      42.653 -16.120   1.966  1.00  0.00    -0.247 OA
HETATM    4  N   UNL     1      40.452 -15.967   2.648  1.00  0.00    -0.309 N 
HETATM    5  H   UNL     1      39.827 -16.275   3.373  1.00  0.00     0.170 HD
ENDROOT
BRANCH   1   6
HETATM    6  C   UNL     1      43.475 -17.190   4.343  1.00  0.00     0.166 C 
BRANCH   6   7
HETATM    7  C   UNL     1      43.891 -18.628   4.124  1.00  0.00    -0.037 A 
HETATM    8  C   UNL     1      44.194 -19.096   2.840  1.00  0.00     0.009 A 
HETATM    9  C   UNL     1      44.587 -20.419   2.644  1.00  0.00     0.003 A 
HETATM   10  C   UNL     1      44.677 -21.294   3.729  1.00  0.00     0.037 A 
HETATM   11  C   UNL     1      44.375 -20.847   5.015  1.00  0.00     0.068 A 
HETATM   12  C   UNL     1      43.992 -19.516   5.206  1.00  0.00     0.045 A 
BRANCH  11  13
HETATM   13  O   UNL     1      44.420 -21.598   6.158  1.00  0.00    -0.356 OA
HETATM   14  C   UNL     1      43.662 -21.123   7.264  1.00  0.00     0.210 C 
ENDBRANCH  11  13
ENDBRANCH   6   7
ENDBRANCH   1   6
BRANCH   1  15
HETATM   15  C   UNL     1      41.112 -17.121   5.105  1.00  0.00     0.089 A 
HETATM   16  C   UNL     1      41.542 -17.031   6.550  1.00  0.00     0.027 A 
HETATM   17  C   UNL     1      40.666 -15.967   5.971  1.00  0.00     0.027 A 
ENDBRANCH   1  15
BRANCH   4  18
HETATM   18  C   UNL     1      39.865 -15.244   1.591  1.00  0.00     0.036 A 
HETATM   19  C   UNL     1      40.522 -14.910   0.407  1.00  0.00     0.030 A 
HETATM   20  C   UNL     1      39.870 -14.167  -0.587  1.00  0.00     0.014 A 
HETATM   21  C   UNL     1      38.549 -13.739  -0.416  1.00  0.00    -0.023 A 
HETATM   22  C   UNL     1      37.888 -14.080   0.769  1.00  0.00     0.014 A 
HETATM   23  C   UNL     1      38.540 -14.823   1.762  1.00  0.00     0.030 A 
BRANCH  21  24
HETATM   24  C   UNL     1      37.891 -12.964  -1.453  1.00  0.00     0.010 A 
HETATM   25  C   UNL     1      37.046 -11.831  -1.365  1.00  0.00     0.152 A 
HETATM   26  N   UNL     1      36.614 -11.413  -2.558  1.00  0.00    -0.187 NA
HETATM   27  N   UNL     1      37.173 -12.280  -3.415  1.00  0.00    -0.289 N 
HETATM   28  H   UNL     1      36.980 -12.170  -4.404  1.00  0.00     0.188 HD
HETATM   29  C   UNL     1      37.947 -13.226  -2.805  1.00  0.00     0.123 A 
ENDBRANCH  21  24
ENDBRANCH   4  18
TORSDOF 6
ENDMDL
