MODEL 1
REMARK VINA RESULT:      -8.8      0.000      0.000
REMARK  6 active torsions:
REMARK  status: ('A' for Active; 'I' for Inactive)
REMARK    1  A    between atoms: O_2  and  C_3 
REMARK    2  A    between atoms: C_3  and  C_4 
REMARK    3  A    between atoms: C_7  and  C_8 
REMARK    4  A    between atoms: C_8  and  O_9 
REMARK    5  A    between atoms: O_9  and  C_10 
REMARK    6  A    between atoms: C_13  and  C_14 
ROOT
HETATM    1  C   UNL     1      42.101 -15.868   1.390  1.00  0.00     0.069 A 
HETATM    2  C   UNL     1      41.239 -16.964   1.410  1.00  0.00     0.037 A 
HETATM    3  C   UNL     1      41.748 -18.263   1.496  1.00  0.00     0.014 A 
HETATM    4  C   UNL     1      43.128 -18.471   1.548  1.00  0.00    -0.035 A 
HETATM    5  C   UNL     1      43.994 -17.375   1.466  1.00  0.00     0.014 A 
HETATM    6  C   UNL     1      43.482 -16.076   1.378  1.00  0.00     0.037 A 
ENDROOT
BRANCH   1   7
HETATM    7  O   UNL     1      41.492 -14.642   1.378  1.00  0.00    -0.347 OA
BRANCH   7   8
HETATM    8  C   UNL     1      40.754 -14.313   2.558  1.00  0.00     0.214 C 
BRANCH   8   9
HETATM    9  C   UNL     1      41.654 -14.425   3.769  1.00  0.00    -0.034 A 
HETATM   10  C   UNL     1      41.328 -15.308   4.808  1.00  0.00     0.010 A 
HETATM   11  C   UNL     1      42.159 -15.433   5.924  1.00  0.00     0.018 A 
HETATM   12  C   UNL     1      43.335 -14.682   6.018  1.00  0.00     0.039 A 
HETATM   13  C   UNL     1      43.672 -13.803   4.981  1.00  0.00     0.018 A 
HETATM   14  C   UNL     1      42.839 -13.680   3.864  1.00  0.00     0.010 A 
BRANCH  12  15
HETATM   15  C   UNL     1      44.181 -14.858   7.232  1.00  0.00     0.292 C 
HETATM   16  O   UNL     1      44.033 -15.771   8.030  1.00  0.00    -0.259 OA
BRANCH  15  17
HETATM   17  O   UNL     1      45.120 -13.883   7.310  1.00  0.00    -0.323 OA
HETATM   18  C   UNL     1      44.869 -12.921   8.337  1.00  0.00     0.213 C 
ENDBRANCH  15  17
ENDBRANCH  12  15
ENDBRANCH   8   9
ENDBRANCH   7   8
ENDBRANCH   1   7
BRANCH   4  19
HETATM   19  C   UNL     1      43.662 -19.817   1.741  1.00  0.00     0.029 C 
HETATM   20  C   UNL     1      43.939 -20.406   2.912  1.00  0.00     0.045 A 
HETATM   21  C   UNL     1      44.509 -21.802   2.930  1.00  0.00     0.257 A 
HETATM   22  C   UNL     1      43.814 -19.971   4.305  1.00  0.00     0.006 A 
HETATM   23  O   UNL     1      44.758 -22.514   1.975  1.00  0.00    -0.267 OA
HETATM   24  N   UNL     1      44.688 -22.098   4.270  1.00  0.00    -0.322 N 
HETATM   25  C   UNL     1      44.286 -21.039   5.080  1.00  0.00     0.046 A 
HETATM   26  H   UNL     1      45.063 -22.978   4.589  1.00  0.00     0.169 HD
HETATM   27  C   UNL     1      44.325 -21.002   6.458  1.00  0.00     0.030 A 
HETATM   28  C   UNL     1      43.864 -19.840   7.080  1.00  0.00     0.002 A 
HETATM   29  C   UNL     1      43.384 -18.759   6.317  1.00  0.00     0.001 A 
HETATM   30  C   UNL     1      43.355 -18.819   4.917  1.00  0.00     0.015 A 
ENDBRANCH   4  19
TORSDOF 6
ENDMDL
MODEL 2
REMARK VINA RESULT:      -8.2      3.284      6.187
REMARK  6 active torsions:
REMARK  status: ('A' for Active; 'I' for Inactive)
REMARK    1  A    between atoms: O_2  and  C_3 
REMARK    2  A    between atoms: C_3  and  C_4 
REMARK    3  A    between atoms: C_7  and  C_8 
REMARK    4  A    between atoms: C_8  and  O_9 
REMARK    5  A    between atoms: O_9  and  C_10 
REMARK    6  A    between atoms: C_13  and  C_14 
ROOT
HETATM    1  C   UNL     1      42.017 -15.612   1.704  1.00  0.00     0.069 A 
HETATM    2  C   UNL     1      41.172 -16.717   1.595  1.00  0.00     0.037 A 
HETATM    3  C   UNL     1      41.698 -18.011   1.582  1.00  0.00     0.014 A 
HETATM    4  C   UNL     1      43.080 -18.205   1.663  1.00  0.00    -0.035 A 
HETATM    5  C   UNL     1      43.929 -17.094   1.710  1.00  0.00     0.014 A 
HETATM    6  C   UNL     1      43.400 -15.800   1.721  1.00  0.00     0.037 A 
ENDROOT
BRANCH   1   7
HETATM    7  O   UNL     1      41.388 -14.398   1.780  1.00  0.00    -0.347 OA
BRANCH   7   8
HETATM    8  C   UNL     1      41.633 -13.510   0.686  1.00  0.00     0.214 C 
BRANCH   8   9
HETATM    9  C   UNL     1      40.745 -13.884  -0.481  1.00  0.00    -0.034 A 
HETATM   10  C   UNL     1      39.368 -13.621  -0.428  1.00  0.00     0.010 A 
HETATM   11  C   UNL     1      38.539 -13.946  -1.505  1.00  0.00     0.018 A 
HETATM   12  C   UNL     1      39.073 -14.533  -2.657  1.00  0.00     0.039 A 
HETATM   13  C   UNL     1      40.448 -14.792  -2.721  1.00  0.00     0.018 A 
HETATM   14  C   UNL     1      41.276 -14.465  -1.642  1.00  0.00     0.010 A 
BRANCH  12  15
HETATM   15  C   UNL     1      38.139 -14.857  -3.772  1.00  0.00     0.292 C 
HETATM   16  O   UNL     1      38.174 -15.905  -4.396  1.00  0.00    -0.259 OA
BRANCH  15  17
HETATM   17  O   UNL     1      37.262 -13.843  -3.976  1.00  0.00    -0.323 OA
HETATM   18  C   UNL     1      36.042 -14.251  -4.598  1.00  0.00     0.213 C 
ENDBRANCH  15  17
ENDBRANCH  12  15
ENDBRANCH   8   9
ENDBRANCH   7   8
ENDBRANCH   1   7
BRANCH   4  19
HETATM   19  C   UNL     1      43.628 -19.555   1.753  1.00  0.00     0.029 C 
HETATM   20  C   UNL     1      43.918 -20.227   2.875  1.00  0.00     0.045 A 
HETATM   21  C   UNL     1      44.502 -21.614   2.787  1.00  0.00     0.257 A 
HETATM   22  C   UNL     1      43.795 -19.898   4.297  1.00  0.00     0.006 A 
HETATM   23  O   UNL     1      44.754 -22.250   1.781  1.00  0.00    -0.267 OA
HETATM   24  N   UNL     1      44.692 -22.007   4.100  1.00  0.00    -0.322 N 
HETATM   25  C   UNL     1      44.283 -21.016   4.988  1.00  0.00     0.046 A 
HETATM   26  H   UNL     1      45.077 -22.904   4.351  1.00  0.00     0.169 HD
HETATM   27  C   UNL     1      44.329 -21.081   6.366  1.00  0.00     0.030 A 
HETATM   28  C   UNL     1      43.859 -19.974   7.074  1.00  0.00     0.002 A 
HETATM   29  C   UNL     1      43.364 -18.844   6.396  1.00  0.00     0.001 A 
HETATM   30  C   UNL     1      43.328 -18.800   4.996  1.00  0.00     0.015 A 
ENDBRANCH   4  19
TORSDOF 6
ENDMDL
MODEL 3
REMARK VINA RESULT:      -8.1      3.835      7.056
REMARK  6 active torsions:
REMARK  status: ('A' for Active; 'I' for Inactive)
REMARK    1  A    between atoms: O_2  and  C_3 
REMARK    2  A    between atoms: C_3  and  C_4 
REMARK    3  A    between atoms: C_7  and  C_8 
REMARK    4  A    between atoms: C_8  and  O_9 
REMARK    5  A    between atoms: O_9  and  C_10 
REMARK    6  A    between atoms: C_13  and  C_14 
ROOT
HETATM    1  C   UNL     1      41.693 -15.238   1.986  1.00  0.00     0.069 A 
HETATM    2  C   UNL     1      42.908 -14.946   2.606  1.00  0.00     0.037 A 
HETATM    3  C   UNL     1      43.359 -15.721   3.678  1.00  0.00     0.014 A 
HETATM    4  C   UNL     1      42.585 -16.787   4.145  1.00  0.00    -0.035 A 
HETATM    5  C   UNL     1      41.339 -17.040   3.562  1.00  0.00     0.014 A 
HETATM    6  C   UNL     1      40.889 -16.262   2.491  1.00  0.00     0.037 A 
ENDROOT
BRANCH   1   7
HETATM    7  O   UNL     1      41.386 -14.460   0.902  1.00  0.00    -0.347 OA
BRANCH   7   8
HETATM    8  C   UNL     1      41.667 -15.046  -0.372  1.00  0.00     0.214 C 
BRANCH   8   9
HETATM    9  C   UNL     1      40.499 -14.818  -1.306  1.00  0.00    -0.034 A 
HETATM   10  C   UNL     1      39.389 -14.075  -0.876  1.00  0.00     0.010 A 
HETATM   11  C   UNL     1      38.311 -13.844  -1.734  1.00  0.00     0.018 A 
HETATM   12  C   UNL     1      38.326 -14.343  -3.040  1.00  0.00     0.039 A 
HETATM   13  C   UNL     1      39.434 -15.079  -3.480  1.00  0.00     0.018 A 
HETATM   14  C   UNL     1      40.512 -15.310  -2.620  1.00  0.00     0.010 A 
BRANCH  12  15
HETATM   15  C   UNL     1      37.148 -14.063  -3.908  1.00  0.00     0.292 C 
HETATM   16  O   UNL     1      36.575 -14.920  -4.563  1.00  0.00    -0.259 OA
BRANCH  15  17
HETATM   17  O   UNL     1      36.810 -12.751  -3.854  1.00  0.00    -0.323 OA
HETATM   18  C   UNL     1      35.656 -12.419  -4.628  1.00  0.00     0.213 C 
ENDBRANCH  15  17
ENDBRANCH  12  15
ENDBRANCH   8   9
ENDBRANCH   7   8
ENDBRANCH   1   7
BRANCH   4  19
HETATM   19  C   UNL     1      43.098 -17.662   5.196  1.00  0.00     0.029 C 
HETATM   20  C   UNL     1      43.595 -18.896   5.036  1.00  0.00     0.045 A 
HETATM   21  C   UNL     1      44.063 -19.674   6.239  1.00  0.00     0.257 A 
HETATM   22  C   UNL     1      43.803 -19.746   3.862  1.00  0.00     0.006 A 
HETATM   23  O   UNL     1      44.062 -19.316   7.402  1.00  0.00    -0.267 OA
HETATM   24  N   UNL     1      44.494 -20.889   5.734  1.00  0.00    -0.322 N 
HETATM   25  C   UNL     1      44.348 -20.941   4.350  1.00  0.00     0.046 A 
HETATM   26  H   UNL     1      44.865 -21.622   6.318  1.00  0.00     0.169 HD
HETATM   27  C   UNL     1      44.683 -22.000   3.531  1.00  0.00     0.030 A 
HETATM   28  C   UNL     1      44.461 -21.843   2.162  1.00  0.00     0.002 A 
HETATM   29  C   UNL     1      43.917 -20.648   1.654  1.00  0.00     0.001 A 
HETATM   30  C   UNL     1      43.583 -19.587   2.505  1.00  0.00     0.015 A 
ENDBRANCH   4  19
TORSDOF 6
ENDMDL
MODEL 4
REMARK VINA RESULT:      -7.9      2.793      6.287
REMARK  6 active torsions:
REMARK  status: ('A' for Active; 'I' for Inactive)
REMARK    1  A    between atoms: O_2  and  C_3 
REMARK    2  A    between atoms: C_3  and  C_4 
REMARK    3  A    between atoms: C_7  and  C_8 
REMARK    4  A    between atoms: C_8  and  O_9 
REMARK    5  A    between atoms: O_9  and  C_10 
REMARK    6  A    between atoms: C_13  and  C_14 
ROOT
HETATM    1  C   UNL     1      41.085 -13.835   3.465  1.00  0.00     0.069 A 
HETATM    2  C   UNL     1      40.470 -14.801   4.263  1.00  0.00     0.037 A 
HETATM    3  C   UNL     1      41.239 -15.746   4.948  1.00  0.00     0.014 A 
HETATM    4  C   UNL     1      42.630 -15.738   4.825  1.00  0.00    -0.035 A 
HETATM    5  C   UNL     1      43.242 -14.808   3.977  1.00  0.00     0.014 A 
HETATM    6  C   UNL     1      42.470 -13.865   3.290  1.00  0.00     0.037 A 
ENDROOT
BRANCH   1   7
HETATM    7  O   UNL     1      40.242 -12.917   2.900  1.00  0.00    -0.347 OA
BRANCH   7   8
HETATM    8  C   UNL     1      39.114 -13.463   2.211  1.00  0.00     0.214 C 
BRANCH   8   9
HETATM    9  C   UNL     1      39.515 -13.851   0.805  1.00  0.00    -0.034 A 
HETATM   10  C   UNL     1      39.020 -13.132  -0.292  1.00  0.00     0.010 A 
HETATM   11  C   UNL     1      39.395 -13.470  -1.595  1.00  0.00     0.018 A 
HETATM   12  C   UNL     1      40.280 -14.529  -1.824  1.00  0.00     0.039 A 
HETATM   13  C   UNL     1      40.786 -15.248  -0.734  1.00  0.00     0.018 A 
HETATM   14  C   UNL     1      40.409 -14.908   0.570  1.00  0.00     0.010 A 
BRANCH  12  15
HETATM   15  C   UNL     1      40.643 -14.842  -3.234  1.00  0.00     0.292 C 
HETATM   16  O   UNL     1      41.303 -14.097  -3.942  1.00  0.00    -0.259 OA
BRANCH  15  17
HETATM   17  O   UNL     1      40.153 -16.052  -3.600  1.00  0.00    -0.323 OA
HETATM   18  C   UNL     1      38.887 -15.987  -4.259  1.00  0.00     0.213 C 
ENDBRANCH  15  17
ENDBRANCH  12  15
ENDBRANCH   8   9
ENDBRANCH   7   8
ENDBRANCH   1   7
BRANCH   4  19
HETATM   19  C   UNL     1      43.443 -16.656   5.617  1.00  0.00     0.029 C 
HETATM   20  C   UNL     1      43.884 -17.864   5.238  1.00  0.00     0.045 A 
HETATM   21  C   UNL     1      44.699 -18.696   6.195  1.00  0.00     0.257 A 
HETATM   22  C   UNL     1      43.741 -18.639   4.004  1.00  0.00     0.006 A 
HETATM   23  O   UNL     1      45.042 -18.405   7.326  1.00  0.00    -0.267 OA
HETATM   24  N   UNL     1      44.973 -19.866   5.509  1.00  0.00    -0.322 N 
HETATM   25  C   UNL     1      44.421 -19.843   4.230  1.00  0.00     0.046 A 
HETATM   26  H   UNL     1      45.510 -20.620   5.908  1.00  0.00     0.169 HD
HETATM   27  C   UNL     1      44.507 -20.842   3.283  1.00  0.00     0.030 A 
HETATM   28  C   UNL     1      43.885 -20.614   2.055  1.00  0.00     0.002 A 
HETATM   29  C   UNL     1      43.200 -19.409   1.809  1.00  0.00     0.001 A 
HETATM   30  C   UNL     1      43.124 -18.409   2.787  1.00  0.00     0.015 A 
ENDBRANCH   4  19
TORSDOF 6
ENDMDL
MODEL 5
REMARK VINA RESULT:      -7.8      4.818      7.715
REMARK  6 active torsions:
REMARK  status: ('A' for Active; 'I' for Inactive)
REMARK    1  A    between atoms: O_2  and  C_3 
REMARK    2  A    between atoms: C_3  and  C_4 
REMARK    3  A    between atoms: C_7  and  C_8 
REMARK    4  A    between atoms: C_8  and  O_9 
REMARK    5  A    between atoms: O_9  and  C_10 
REMARK    6  A    between atoms: C_13  and  C_14 
ROOT
HETATM    1  C   UNL     1      40.233 -15.191   0.768  1.00  0.00     0.069 A 
HETATM    2  C   UNL     1      41.473 -15.414   0.169  1.00  0.00     0.037 A 
HETATM    3  C   UNL     1      42.272 -16.487   0.574  1.00  0.00     0.014 A 
HETATM    4  C   UNL     1      41.838 -17.335   1.596  1.00  0.00    -0.035 A 
HETATM    5  C   UNL     1      40.622 -17.075   2.237  1.00  0.00     0.014 A 
HETATM    6  C   UNL     1      39.825 -15.999   1.831  1.00  0.00     0.037 A 
ENDROOT
BRANCH   1   7
HETATM    7  O   UNL     1      39.505 -14.158   0.243  1.00  0.00    -0.347 OA
BRANCH   7   8
HETATM    8  C   UNL     1      39.994 -13.629  -0.993  1.00  0.00     0.214 C 
BRANCH   8   9
HETATM    9  C   UNL     1      38.902 -13.690  -2.040  1.00  0.00    -0.034 A 
HETATM   10  C   UNL     1      38.064 -12.585  -2.245  1.00  0.00     0.010 A 
HETATM   11  C   UNL     1      37.063 -12.622  -3.219  1.00  0.00     0.018 A 
HETATM   12  C   UNL     1      36.888 -13.761  -4.011  1.00  0.00     0.039 A 
HETATM   13  C   UNL     1      37.726 -14.866  -3.818  1.00  0.00     0.018 A 
HETATM   14  C   UNL     1      38.728 -14.827  -2.842  1.00  0.00     0.010 A 
BRANCH  12  15
HETATM   15  C   UNL     1      35.804 -13.741  -5.033  1.00  0.00     0.292 C 
HETATM   16  O   UNL     1      35.052 -14.682  -5.236  1.00  0.00    -0.259 OA
BRANCH  15  17
HETATM   17  O   UNL     1      35.772 -12.549  -5.678  1.00  0.00    -0.323 OA
HETATM   18  C   UNL     1      34.500 -12.236  -6.250  1.00  0.00     0.213 C 
ENDBRANCH  15  17
ENDBRANCH  12  15
ENDBRANCH   8   9
ENDBRANCH   7   8
ENDBRANCH   1   7
BRANCH   4  19
HETATM   19  C   UNL     1      42.620 -18.516   1.953  1.00  0.00     0.029 C 
HETATM   20  C   UNL     1      43.350 -18.684   3.063  1.00  0.00     0.045 A 
HETATM   21  C   UNL     1      44.119 -19.965   3.264  1.00  0.00     0.257 A 
HETATM   22  C   UNL     1      43.607 -17.837   4.230  1.00  0.00     0.006 A 
HETATM   23  O   UNL     1      44.164 -20.928   2.522  1.00  0.00    -0.267 OA
HETATM   24  N   UNL     1      44.764 -19.809   4.479  1.00  0.00    -0.322 N 
HETATM   25  C   UNL     1      44.472 -18.573   5.051  1.00  0.00     0.046 A 
HETATM   26  H   UNL     1      45.361 -20.518   4.875  1.00  0.00     0.169 HD
HETATM   27  C   UNL     1      44.943 -18.097   6.257  1.00  0.00     0.030 A 
HETATM   28  C   UNL     1      44.519 -16.827   6.652  1.00  0.00     0.002 A 
HETATM   29  C   UNL     1      43.649 -16.076   5.841  1.00  0.00     0.001 A 
HETATM   30  C   UNL     1      43.184 -16.579   4.619  1.00  0.00     0.015 A 
ENDBRANCH   4  19
TORSDOF 6
ENDMDL
MODEL 6
REMARK VINA RESULT:      -7.7      2.395      5.726
REMARK  6 active torsions:
REMARK  status: ('A' for Active; 'I' for Inactive)
REMARK    1  A    between atoms: O_2  and  C_3 
REMARK    2  A    between atoms: C_3  and  C_4 
REMARK    3  A    between atoms: C_7  and  C_8 
REMARK    4  A    between atoms: C_8  and  O_9 
REMARK    5  A    between atoms: O_9  and  C_10 
REMARK    6  A    between atoms: C_13  and  C_14 
ROOT
HETATM    1  C   UNL     1      41.033 -13.569   5.261  1.00  0.00     0.069 A 
HETATM    2  C   UNL     1      42.405 -13.664   5.495  1.00  0.00     0.037 A 
HETATM    3  C   UNL     1      42.956 -14.844   6.004  1.00  0.00     0.014 A 
HETATM    4  C   UNL     1      42.129 -15.932   6.295  1.00  0.00    -0.035 A 
HETATM    5  C   UNL     1      40.747 -15.814   6.117  1.00  0.00     0.014 A 
HETATM    6  C   UNL     1      40.198 -14.632   5.610  1.00  0.00     0.037 A 
ENDROOT
BRANCH   1   7
HETATM    7  O   UNL     1      40.615 -12.395   4.694  1.00  0.00    -0.347 OA
BRANCH   7   8
HETATM    8  C   UNL     1      39.512 -12.509   3.791  1.00  0.00     0.214 C 
BRANCH   8   9
HETATM    9  C   UNL     1      39.995 -13.053   2.464  1.00  0.00    -0.034 A 
HETATM   10  C   UNL     1      39.427 -14.220   1.933  1.00  0.00     0.010 A 
HETATM   11  C   UNL     1      39.853 -14.724   0.702  1.00  0.00     0.018 A 
HETATM   12  C   UNL     1      40.849 -14.065  -0.026  1.00  0.00     0.039 A 
HETATM   13  C   UNL     1      41.417 -12.895   0.493  1.00  0.00     0.018 A 
HETATM   14  C   UNL     1      40.989 -12.392   1.727  1.00  0.00     0.010 A 
BRANCH  12  15
HETATM   15  C   UNL     1      41.262 -14.650  -1.333  1.00  0.00     0.292 C 
HETATM   16  O   UNL     1      41.043 -15.808  -1.651  1.00  0.00    -0.259 OA
BRANCH  15  17
HETATM   17  O   UNL     1      41.890 -13.724  -2.098  1.00  0.00    -0.323 OA
HETATM   18  C   UNL     1      41.348 -13.598  -3.414  1.00  0.00     0.213 C 
ENDBRANCH  15  17
ENDBRANCH  12  15
ENDBRANCH   8   9
ENDBRANCH   7   8
ENDBRANCH   1   7
BRANCH   4  19
HETATM   19  C   UNL     1      42.710 -17.200   6.729  1.00  0.00     0.029 C 
HETATM   20  C   UNL     1      43.241 -18.146   5.942  1.00  0.00     0.045 A 
HETATM   21  C   UNL     1      43.780 -19.412   6.558  1.00  0.00     0.257 A 
HETATM   22  C   UNL     1      43.433 -18.252   4.495  1.00  0.00     0.006 A 
HETATM   23  O   UNL     1      43.811 -19.710   7.737  1.00  0.00    -0.267 OA
HETATM   24  N   UNL     1      44.232 -20.166   5.488  1.00  0.00    -0.322 N 
HETATM   25  C   UNL     1      44.036 -19.498   4.281  1.00  0.00     0.046 A 
HETATM   26  H   UNL     1      44.649 -21.077   5.599  1.00  0.00     0.169 HD
HETATM   27  C   UNL     1      44.374 -19.960   3.026  1.00  0.00     0.030 A 
HETATM   28  C   UNL     1      44.096 -19.126   1.942  1.00  0.00     0.002 A 
HETATM   29  C   UNL     1      43.493 -17.869   2.138  1.00  0.00     0.001 A 
HETATM   30  C   UNL     1      43.157 -17.422   3.423  1.00  0.00     0.015 A 
ENDBRANCH   4  19
TORSDOF 6
ENDMDL
MODEL 7
REMARK VINA RESULT:      -7.7      2.441      2.757
REMARK  6 active torsions:
REMARK  status: ('A' for Active; 'I' for Inactive)
REMARK    1  A    between atoms: O_2  and  C_3 
REMARK    2  A    between atoms: C_3  and  C_4 
REMARK    3  A    between atoms: C_7  and  C_8 
REMARK    4  A    between atoms: C_8  and  O_9 
REMARK    5  A    between atoms: O_9  and  C_10 
REMARK    6  A    between atoms: C_13  and  C_14 
ROOT
HETATM    1  C   UNL     1      42.045 -15.613   1.664  1.00  0.00     0.069 A 
HETATM    2  C   UNL     1      41.239 -16.704   1.338  1.00  0.00     0.037 A 
HETATM    3  C   UNL     1      41.766 -17.998   1.341  1.00  0.00     0.014 A 
HETATM    4  C   UNL     1      43.112 -18.204   1.658  1.00  0.00    -0.035 A 
HETATM    5  C   UNL     1      43.933 -17.104   1.925  1.00  0.00     0.014 A 
HETATM    6  C   UNL     1      43.403 -15.809   1.919  1.00  0.00     0.037 A 
ENDROOT
BRANCH   1   7
HETATM    7  O   UNL     1      41.406 -14.402   1.700  1.00  0.00    -0.347 OA
BRANCH   7   8
HETATM    8  C   UNL     1      40.118 -14.407   2.320  1.00  0.00     0.214 C 
BRANCH   8   9
HETATM    9  C   UNL     1      40.174 -13.626   3.616  1.00  0.00    -0.034 A 
HETATM   10  C   UNL     1      40.422 -12.246   3.595  1.00  0.00     0.010 A 
HETATM   11  C   UNL     1      40.461 -11.511   4.782  1.00  0.00     0.018 A 
HETATM   12  C   UNL     1      40.244 -12.142   6.012  1.00  0.00     0.039 A 
HETATM   13  C   UNL     1      39.988 -13.518   6.041  1.00  0.00     0.018 A 
HETATM   14  C   UNL     1      39.950 -14.253   4.851  1.00  0.00     0.010 A 
BRANCH  12  15
HETATM   15  C   UNL     1      40.298 -11.306   7.244  1.00  0.00     0.292 C 
HETATM   16  O   UNL     1      41.339 -10.922   7.753  1.00  0.00    -0.259 OA
BRANCH  15  17
HETATM   17  O   UNL     1      39.049 -11.033   7.696  1.00  0.00    -0.323 OA
HETATM   18  C   UNL     1      39.010 -10.590   9.054  1.00  0.00     0.213 C 
ENDBRANCH  15  17
ENDBRANCH  12  15
ENDBRANCH   8   9
ENDBRANCH   7   8
ENDBRANCH   1   7
BRANCH   4  19
HETATM   19  C   UNL     1      43.642 -19.561   1.763  1.00  0.00     0.029 C 
HETATM   20  C   UNL     1      43.918 -20.225   2.893  1.00  0.00     0.045 A 
HETATM   21  C   UNL     1      44.485 -21.621   2.820  1.00  0.00     0.257 A 
HETATM   22  C   UNL     1      43.795 -19.882   4.311  1.00  0.00     0.006 A 
HETATM   23  O   UNL     1      44.732 -22.270   1.821  1.00  0.00    -0.267 OA
HETATM   24  N   UNL     1      44.665 -22.004   4.138  1.00  0.00    -0.322 N 
HETATM   25  C   UNL     1      44.265 -20.999   5.015  1.00  0.00     0.046 A 
HETATM   26  H   UNL     1      45.037 -22.903   4.399  1.00  0.00     0.169 HD
HETATM   27  C   UNL     1      44.304 -21.051   6.393  1.00  0.00     0.030 A 
HETATM   28  C   UNL     1      43.847 -19.931   7.089  1.00  0.00     0.002 A 
HETATM   29  C   UNL     1      43.369 -18.802   6.398  1.00  0.00     0.001 A 
HETATM   30  C   UNL     1      43.339 -18.771   4.997  1.00  0.00     0.015 A 
ENDBRANCH   4  19
TORSDOF 6
ENDMDL
MODEL 8
REMARK VINA RESULT:      -7.6      3.034      5.415
REMARK  6 active torsions:
REMARK  status: ('A' for Active; 'I' for Inactive)
REMARK    1  A    between atoms: O_2  and  C_3 
REMARK    2  A    between atoms: C_3  and  C_4 
REMARK    3  A    between atoms: C_7  and  C_8 
REMARK    4  A    between atoms: C_8  and  O_9 
REMARK    5  A    between atoms: O_9  and  C_10 
REMARK    6  A    between atoms: C_13  and  C_14 
ROOT
HETATM    1  C   UNL     1      42.052 -15.582   2.025  1.00  0.00     0.069 A 
HETATM    2  C   UNL     1      41.188 -16.642   1.747  1.00  0.00     0.037 A 
HETATM    3  C   UNL     1      41.686 -17.940   1.600  1.00  0.00     0.014 A 
HETATM    4  C   UNL     1      43.057 -18.180   1.718  1.00  0.00    -0.035 A 
HETATM    5  C   UNL     1      43.928 -17.108   1.937  1.00  0.00     0.014 A 
HETATM    6  C   UNL     1      43.428 -15.810   2.081  1.00  0.00     0.037 A 
ENDROOT
BRANCH   1   7
HETATM    7  O   UNL     1      41.448 -14.369   2.220  1.00  0.00    -0.347 OA
BRANCH   7   8
HETATM    8  C   UNL     1      40.223 -14.406   2.958  1.00  0.00     0.214 C 
BRANCH   8   9
HETATM    9  C   UNL     1      39.149 -13.655   2.199  1.00  0.00    -0.034 A 
HETATM   10  C   UNL     1      38.959 -12.284   2.423  1.00  0.00     0.010 A 
HETATM   11  C   UNL     1      37.983 -11.576   1.718  1.00  0.00     0.018 A 
HETATM   12  C   UNL     1      37.184 -12.224   0.770  1.00  0.00     0.039 A 
HETATM   13  C   UNL     1      37.373 -13.592   0.535  1.00  0.00     0.018 A 
HETATM   14  C   UNL     1      38.351 -14.299   1.242  1.00  0.00     0.010 A 
BRANCH  12  15
HETATM   15  C   UNL     1      36.160 -11.416   0.050  1.00  0.00     0.292 C 
HETATM   16  O   UNL     1      36.383 -10.820  -0.992  1.00  0.00    -0.259 OA
BRANCH  15  17
HETATM   17  O   UNL     1      34.972 -11.451   0.704  1.00  0.00    -0.323 OA
HETATM   18  C   UNL     1      34.609 -10.208   1.307  1.00  0.00     0.213 C 
ENDBRANCH  15  17
ENDBRANCH  12  15
ENDBRANCH   8   9
ENDBRANCH   7   8
ENDBRANCH   1   7
BRANCH   4  19
HETATM   19  C   UNL     1      43.570 -19.546   1.669  1.00  0.00     0.029 C 
HETATM   20  C   UNL     1      43.894 -20.317   2.716  1.00  0.00     0.045 A 
HETATM   21  C   UNL     1      44.433 -21.705   2.484  1.00  0.00     0.257 A 
HETATM   22  C   UNL     1      43.849 -20.106   4.165  1.00  0.00     0.006 A 
HETATM   23  O   UNL     1      44.618 -22.261   1.417  1.00  0.00    -0.267 OA
HETATM   24  N   UNL     1      44.674 -22.212   3.749  1.00  0.00    -0.322 N 
HETATM   25  C   UNL     1      44.337 -21.289   4.736  1.00  0.00     0.046 A 
HETATM   26  H   UNL     1      45.045 -23.136   3.905  1.00  0.00     0.169 HD
HETATM   27  C   UNL     1      44.447 -21.471   6.099  1.00  0.00     0.030 A 
HETATM   28  C   UNL     1      44.044 -20.416   6.919  1.00  0.00     0.002 A 
HETATM   29  C   UNL     1      43.549 -19.222   6.362  1.00  0.00     0.001 A 
HETATM   30  C   UNL     1      43.448 -19.059   4.974  1.00  0.00     0.015 A 
ENDBRANCH   4  19
TORSDOF 6
ENDMDL
MODEL 9
REMARK VINA RESULT:      -7.6      3.726      5.233
REMARK  6 active torsions:
REMARK  status: ('A' for Active; 'I' for Inactive)
REMARK    1  A    between atoms: O_2  and  C_3 
REMARK    2  A    between atoms: C_3  and  C_4 
REMARK    3  A    between atoms: C_7  and  C_8 
REMARK    4  A    between atoms: C_8  and  O_9 
REMARK    5  A    between atoms: O_9  and  C_10 
REMARK    6  A    between atoms: C_13  and  C_14 
ROOT
HETATM    1  C   UNL     1      41.129 -13.435   5.344  1.00  0.00     0.069 A 
HETATM    2  C   UNL     1      42.510 -13.577   5.489  1.00  0.00     0.037 A 
HETATM    3  C   UNL     1      43.052 -14.785   5.938  1.00  0.00     0.014 A 
HETATM    4  C   UNL     1      42.211 -15.853   6.258  1.00  0.00    -0.035 A 
HETATM    5  C   UNL     1      40.825 -15.689   6.170  1.00  0.00     0.014 A 
HETATM    6  C   UNL     1      40.284 -14.479   5.723  1.00  0.00     0.037 A 
ENDROOT
BRANCH   1   7
HETATM    7  O   UNL     1      40.715 -12.236   4.829  1.00  0.00    -0.347 OA
BRANCH   7   8
HETATM    8  C   UNL     1      41.363 -11.080   5.367  1.00  0.00     0.214 C 
BRANCH   8   9
HETATM    9  C   UNL     1      41.001 -10.927   6.828  1.00  0.00    -0.034 A 
HETATM   10  C   UNL     1      39.667 -11.065   7.239  1.00  0.00     0.010 A 
HETATM   11  C   UNL     1      39.321 -10.942   8.587  1.00  0.00     0.018 A 
HETATM   12  C   UNL     1      40.303 -10.686   9.549  1.00  0.00     0.039 A 
HETATM   13  C   UNL     1      41.638 -10.554   9.148  1.00  0.00     0.018 A 
HETATM   14  C   UNL     1      41.983 -10.678   7.798  1.00  0.00     0.010 A 
BRANCH  12  15
HETATM   15  C   UNL     1      39.873 -10.564  10.971  1.00  0.00     0.292 C 
HETATM   16  O   UNL     1      39.173  -9.655  11.388  1.00  0.00    -0.259 OA
BRANCH  15  17
HETATM   17  O   UNL     1      40.356 -11.595  11.709  1.00  0.00    -0.323 OA
HETATM   18  C   UNL     1      40.893 -11.197  12.972  1.00  0.00     0.213 C 
ENDBRANCH  15  17
ENDBRANCH  12  15
ENDBRANCH   8   9
ENDBRANCH   7   8
ENDBRANCH   1   7
BRANCH   4  19
HETATM   19  C   UNL     1      42.777 -17.148   6.628  1.00  0.00     0.029 C 
HETATM   20  C   UNL     1      43.259 -18.078   5.792  1.00  0.00     0.045 A 
HETATM   21  C   UNL     1      43.789 -19.376   6.345  1.00  0.00     0.257 A 
HETATM   22  C   UNL     1      43.399 -18.138   4.336  1.00  0.00     0.006 A 
HETATM   23  O   UNL     1      43.854 -19.715   7.512  1.00  0.00    -0.267 OA
HETATM   24  N   UNL     1      44.187 -20.102   5.236  1.00  0.00    -0.322 N 
HETATM   25  C   UNL     1      43.965 -19.389   4.060  1.00  0.00     0.046 A 
HETATM   26  H   UNL     1      44.585 -21.025   5.302  1.00  0.00     0.169 HD
HETATM   27  C   UNL     1      44.249 -19.815   2.779  1.00  0.00     0.030 A 
HETATM   28  C   UNL     1      43.953 -18.938   1.734  1.00  0.00     0.002 A 
HETATM   29  C   UNL     1      43.387 -17.676   1.993  1.00  0.00     0.001 A 
HETATM   30  C   UNL     1      43.105 -17.266   3.303  1.00  0.00     0.015 A 
ENDBRANCH   4  19
TORSDOF 6
ENDMDL
MODEL 10
REMARK VINA RESULT:      -7.5      3.564      5.846
REMARK  6 active torsions:
REMARK  status: ('A' for Active; 'I' for Inactive)
REMARK    1  A    between atoms: O_2  and  C_3 
REMARK    2  A    between atoms: C_3  and  C_4 
REMARK    3  A    between atoms: C_7  and  C_8 
REMARK    4  A    between atoms: C_8  and  O_9 
REMARK    5  A    between atoms: O_9  and  C_10 
REMARK    6  A    between atoms: C_13  and  C_14 
ROOT
HETATM    1  C   UNL     1      41.735 -16.263   0.749  1.00  0.00     0.069 A 
HETATM    2  C   UNL     1      43.087 -16.203   1.088  1.00  0.00     0.037 A 
HETATM    3  C   UNL     1      43.525 -16.667   2.331  1.00  0.00     0.014 A 
HETATM    4  C   UNL     1      42.607 -17.182   3.249  1.00  0.00    -0.035 A 
HETATM    5  C   UNL     1      41.244 -17.186   2.932  1.00  0.00     0.014 A 
HETATM    6  C   UNL     1      40.807 -16.719   1.688  1.00  0.00     0.037 A 
ENDROOT
BRANCH   1   7
HETATM    7  O   UNL     1      41.429 -15.849  -0.520  1.00  0.00    -0.347 OA
BRANCH   7   8
HETATM    8  C   UNL     1      40.460 -14.800  -0.605  1.00  0.00     0.214 C 
BRANCH   8   9
HETATM    9  C   UNL     1      41.156 -13.488  -0.893  1.00  0.00    -0.034 A 
HETATM   10  C   UNL     1      41.523 -12.640   0.162  1.00  0.00     0.010 A 
HETATM   11  C   UNL     1      42.179 -11.433  -0.090  1.00  0.00     0.018 A 
HETATM   12  C   UNL     1      42.489 -11.055  -1.400  1.00  0.00     0.039 A 
HETATM   13  C   UNL     1      42.132 -11.899  -2.459  1.00  0.00     0.018 A 
HETATM   14  C   UNL     1      41.474 -13.108  -2.206  1.00  0.00     0.010 A 
BRANCH  12  15
HETATM   15  C   UNL     1      43.190  -9.756  -1.606  1.00  0.00     0.292 C 
HETATM   16  O   UNL     1      44.370  -9.580  -1.348  1.00  0.00    -0.259 OA
BRANCH  15  17
HETATM   17  O   UNL     1      42.344  -8.829  -2.119  1.00  0.00    -0.323 OA
HETATM   18  C   UNL     1      42.540  -8.576  -3.511  1.00  0.00     0.213 C 
ENDBRANCH  15  17
ENDBRANCH  12  15
ENDBRANCH   8   9
ENDBRANCH   7   8
ENDBRANCH   1   7
BRANCH   4  19
HETATM   19  C   UNL     1      43.071 -17.762   4.506  1.00  0.00     0.029 C 
HETATM   20  C   UNL     1      43.594 -18.984   4.677  1.00  0.00     0.045 A 
HETATM   21  C   UNL     1      44.004 -19.434   6.057  1.00  0.00     0.257 A 
HETATM   22  C   UNL     1      43.881 -20.087   3.758  1.00  0.00     0.006 A 
HETATM   23  O   UNL     1      43.932 -18.805   7.095  1.00  0.00    -0.267 OA
HETATM   24  N   UNL     1      44.481 -20.722   5.886  1.00  0.00    -0.322 N 
HETATM   25  C   UNL     1      44.415 -21.112   4.550  1.00  0.00     0.046 A 
HETATM   26  H   UNL     1      44.828 -21.282   6.649  1.00  0.00     0.169 HD
HETATM   27  C   UNL     1      44.811 -22.328   4.032  1.00  0.00     0.030 A 
HETATM   28  C   UNL     1      44.666 -22.514   2.656  1.00  0.00     0.002 A 
HETATM   29  C   UNL     1      44.134 -21.494   1.845  1.00  0.00     0.001 A 
HETATM   30  C   UNL     1      43.737 -20.268   2.395  1.00  0.00     0.015 A 
ENDBRANCH   4  19
TORSDOF 6
ENDMDL
