MODEL 1
REMARK VINA RESULT:      -7.2      0.000      0.000
REMARK  9 active torsions:
REMARK  status: ('A' for Active; 'I' for Inactive)
REMARK    1  A    between atoms: C_2  and  C_3 
REMARK    2  A    between atoms: C_3  and  O_4 
REMARK    3  A    between atoms: C_3  and  C_5 
REMARK    4  A    between atoms: C_5  and  N_6 
REMARK    5  A    between atoms: N_6  and  C_8 
REMARK    6  A    between atoms: N_6  and  C_21 
REMARK    7  A    between atoms: C_8  and  C_9 
REMARK    8  A    between atoms: C_10  and  C_11 
REMARK    9  A    between atoms: C_21  and  C_22 
ROOT
HETATM    1  N   UNL     1      43.210 -18.607   2.611  1.00  0.00    -0.061 N 
HETATM    2  H   UNL     1      42.661 -19.100   3.321  1.00  0.00     0.280 HD
ENDROOT
BRANCH   1   3
HETATM    3  C   UNL     1      42.277 -18.431   1.421  1.00  0.00     0.267 C 
BRANCH   3   4
HETATM    4  C   UNL     1      41.756 -16.991   1.209  1.00  0.00     0.143 C 
BRANCH   4   5
HETATM    5  C   UNL     1      40.284 -16.760   1.565  1.00  0.00     0.029 C 
HETATM    6  C   UNL     1      40.028 -15.439   2.272  1.00  0.00     0.007 C 
ENDBRANCH   4   5
BRANCH   4   7
HETATM    7  O   UNL     1      41.962 -16.609  -0.151  1.00  0.00    -0.394 OA
HETATM    8  H   UNL     1      41.481 -17.243  -0.719  1.00  0.00     0.210 HD
ENDBRANCH   4   7
ENDBRANCH   3   4
ENDBRANCH   1   3
BRANCH   1   9
HETATM    9  C   UNL     1      44.426 -19.488   2.397  1.00  0.00     0.277 C 
BRANCH   9  10
HETATM   10  C   UNL     1      44.521 -20.807   3.081  1.00  0.00     0.016 A 
HETATM   11  C   UNL     1      44.597 -20.999   4.505  1.00  0.00     0.096 A 
HETATM   12  N   UNL     1      44.737 -22.295   4.809  1.00  0.00    -0.174 NA
HETATM   13  N   UNL     1      44.662 -22.936   3.643  1.00  0.00    -0.288 N 
HETATM   14  H   UNL     1      44.701 -23.952   3.651  1.00  0.00     0.188 HD
HETATM   15  C   UNL     1      44.559 -22.093   2.573  1.00  0.00     0.120 A 
BRANCH  11  16
HETATM   16  C   UNL     1      44.577 -19.992   5.566  1.00  0.00    -0.005 A 
HETATM   17  C   UNL     1      45.433 -18.883   5.529  1.00  0.00     0.014 A 
HETATM   18  C   UNL     1      45.406 -17.938   6.558  1.00  0.00     0.001 A 
HETATM   19  C   UNL     1      44.517 -18.087   7.621  1.00  0.00     0.000 A 
HETATM   20  C   UNL     1      43.647 -19.174   7.655  1.00  0.00     0.001 A 
HETATM   21  C   UNL     1      43.674 -20.123   6.631  1.00  0.00     0.014 A 
ENDBRANCH  11  16
ENDBRANCH   9  10
ENDBRANCH   1   9
BRANCH   1  22
HETATM   22  C   UNL     1      43.597 -17.294   3.260  1.00  0.00     0.273 C 
BRANCH  22  23
HETATM   23  C   UNL     1      42.668 -16.894   4.377  1.00  0.00    -0.033 A 
HETATM   24  C   UNL     1      41.680 -17.778   4.839  1.00  0.00     0.009 A 
HETATM   25  C   UNL     1      40.798 -17.387   5.848  1.00  0.00     0.001 A 
HETATM   26  C   UNL     1      40.896 -16.116   6.408  1.00  0.00     0.000 A 
HETATM   27  C   UNL     1      41.880 -15.234   5.967  1.00  0.00     0.001 A 
HETATM   28  C   UNL     1      42.763 -15.619   4.957  1.00  0.00     0.009 A 
ENDBRANCH  22  23
ENDBRANCH   1  22
TORSDOF 9
ENDMDL
MODEL 2
REMARK VINA RESULT:      -7.1      2.290      5.233
REMARK  9 active torsions:
REMARK  status: ('A' for Active; 'I' for Inactive)
REMARK    1  A    between atoms: C_2  and  C_3 
REMARK    2  A    between atoms: C_3  and  O_4 
REMARK    3  A    between atoms: C_3  and  C_5 
REMARK    4  A    between atoms: C_5  and  N_6 
REMARK    5  A    between atoms: N_6  and  C_8 
REMARK    6  A    between atoms: N_6  and  C_21 
REMARK    7  A    between atoms: C_8  and  C_9 
REMARK    8  A    between atoms: C_10  and  C_11 
REMARK    9  A    between atoms: C_21  and  C_22 
ROOT
HETATM    1  N   UNL     1      43.648 -18.516   2.612  1.00  0.00    -0.061 N 
HETATM    2  H   UNL     1      44.486 -18.526   3.199  1.00  0.00     0.280 HD
ENDROOT
BRANCH   1   3
HETATM    3  C   UNL     1      43.705 -19.798   1.794  1.00  0.00     0.267 C 
BRANCH   3   4
HETATM    4  C   UNL     1      44.034 -21.074   2.604  1.00  0.00     0.143 C 
BRANCH   4   5
HETATM    5  C   UNL     1      45.162 -20.933   3.630  1.00  0.00     0.029 C 
HETATM    6  C   UNL     1      44.820 -21.510   4.994  1.00  0.00     0.007 C 
ENDBRANCH   4   5
BRANCH   4   7
HETATM    7  O   UNL     1      44.364 -22.132   1.704  1.00  0.00    -0.394 OA
HETATM    8  H   UNL     1      45.244 -22.478   1.953  1.00  0.00     0.210 HD
ENDBRANCH   4   7
ENDBRANCH   3   4
ENDBRANCH   1   3
BRANCH   1   9
HETATM    9  C   UNL     1      43.744 -17.212   1.841  1.00  0.00     0.277 C 
BRANCH   9  10
HETATM   10  C   UNL     1      42.507 -16.536   1.363  1.00  0.00     0.016 A 
HETATM   11  C   UNL     1      41.818 -15.480   2.057  1.00  0.00     0.096 A 
HETATM   12  N   UNL     1      40.705 -15.123   1.405  1.00  0.00    -0.174 NA
HETATM   13  N   UNL     1      40.709 -15.846   0.285  1.00  0.00    -0.288 N 
HETATM   14  H   UNL     1      39.961 -15.695  -0.386  1.00  0.00     0.188 HD
HETATM   15  C   UNL     1      41.751 -16.728   0.221  1.00  0.00     0.120 A 
BRANCH  11  16
HETATM   16  C   UNL     1      42.168 -14.838   3.323  1.00  0.00    -0.005 A 
HETATM   17  C   UNL     1      43.494 -14.501   3.623  1.00  0.00     0.014 A 
HETATM   18  C   UNL     1      43.809 -13.897   4.844  1.00  0.00     0.001 A 
HETATM   19  C   UNL     1      42.801 -13.613   5.764  1.00  0.00     0.000 A 
HETATM   20  C   UNL     1      41.477 -13.924   5.465  1.00  0.00     0.001 A 
HETATM   21  C   UNL     1      41.159 -14.531   4.249  1.00  0.00     0.014 A 
ENDBRANCH  11  16
ENDBRANCH   9  10
ENDBRANCH   1   9
BRANCH   1  22
HETATM   22  C   UNL     1      42.489 -18.486   3.588  1.00  0.00     0.273 C 
BRANCH  22  23
HETATM   23  C   UNL     1      42.880 -17.971   4.949  1.00  0.00    -0.033 A 
HETATM   24  C   UNL     1      41.900 -17.622   5.892  1.00  0.00     0.009 A 
HETATM   25  C   UNL     1      42.268 -17.109   7.137  1.00  0.00     0.001 A 
HETATM   26  C   UNL     1      43.614 -16.946   7.454  1.00  0.00     0.000 A 
HETATM   27  C   UNL     1      44.596 -17.300   6.532  1.00  0.00     0.001 A 
HETATM   28  C   UNL     1      44.233 -17.811   5.285  1.00  0.00     0.009 A 
ENDBRANCH  22  23
ENDBRANCH   1  22
TORSDOF 9
ENDMDL
MODEL 3
REMARK VINA RESULT:      -7.0      3.325      6.590
REMARK  9 active torsions:
REMARK  status: ('A' for Active; 'I' for Inactive)
REMARK    1  A    between atoms: C_2  and  C_3 
REMARK    2  A    between atoms: C_3  and  O_4 
REMARK    3  A    between atoms: C_3  and  C_5 
REMARK    4  A    between atoms: C_5  and  N_6 
REMARK    5  A    between atoms: N_6  and  C_8 
REMARK    6  A    between atoms: N_6  and  C_21 
REMARK    7  A    between atoms: C_8  and  C_9 
REMARK    8  A    between atoms: C_10  and  C_11 
REMARK    9  A    between atoms: C_21  and  C_22 
ROOT
HETATM    1  N   UNL     1      43.199 -16.206   7.433  1.00  0.00    -0.061 N 
HETATM    2  H   UNL     1      42.794 -15.635   8.180  1.00  0.00     0.280 HD
ENDROOT
BRANCH   1   3
HETATM    3  C   UNL     1      44.313 -15.362   6.831  1.00  0.00     0.267 C 
BRANCH   3   4
HETATM    4  C   UNL     1      44.442 -13.937   7.420  1.00  0.00     0.143 C 
BRANCH   4   5
HETATM    5  C   UNL     1      45.781 -13.237   7.170  1.00  0.00     0.029 C 
HETATM    6  C   UNL     1      46.223 -12.341   8.316  1.00  0.00     0.007 C 
ENDBRANCH   4   5
BRANCH   4   7
HETATM    7  O   UNL     1      44.206 -13.985   8.827  1.00  0.00    -0.394 OA
HETATM    8  H   UNL     1      44.372 -14.899   9.131  1.00  0.00     0.210 HD
ENDBRANCH   4   7
ENDBRANCH   3   4
ENDBRANCH   1   3
BRANCH   1   9
HETATM    9  C   UNL     1      42.025 -16.529   6.528  1.00  0.00     0.277 C 
BRANCH   9  10
HETATM   10  C   UNL     1      41.530 -15.513   5.559  1.00  0.00     0.016 A 
HETATM   11  C   UNL     1      41.736 -15.555   4.136  1.00  0.00     0.096 A 
HETATM   12  N   UNL     1      41.225 -14.468   3.544  1.00  0.00    -0.174 NA
HETATM   13  N   UNL     1      40.627 -13.788   4.521  1.00  0.00    -0.288 N 
HETATM   14  H   UNL     1      40.129 -12.936   4.277  1.00  0.00     0.188 HD
HETATM   15  C   UNL     1      40.800 -14.354   5.752  1.00  0.00     0.120 A 
BRANCH  11  16
HETATM   16  C   UNL     1      42.429 -16.568   3.341  1.00  0.00    -0.005 A 
HETATM   17  C   UNL     1      42.028 -17.910   3.369  1.00  0.00     0.014 A 
HETATM   18  C   UNL     1      42.711 -18.865   2.610  1.00  0.00     0.001 A 
HETATM   19  C   UNL     1      43.786 -18.484   1.809  1.00  0.00     0.000 A 
HETATM   20  C   UNL     1      44.178 -17.149   1.758  1.00  0.00     0.001 A 
HETATM   21  C   UNL     1      43.501 -16.193   2.519  1.00  0.00     0.014 A 
ENDBRANCH  11  16
ENDBRANCH   9  10
ENDBRANCH   1   9
BRANCH   1  22
HETATM   22  C   UNL     1      43.708 -17.452   8.129  1.00  0.00     0.273 C 
BRANCH  22  23
HETATM   23  C   UNL     1      44.046 -18.564   7.169  1.00  0.00    -0.033 A 
HETATM   24  C   UNL     1      44.803 -18.309   6.015  1.00  0.00     0.009 A 
HETATM   25  C   UNL     1      45.080 -19.336   5.111  1.00  0.00     0.001 A 
HETATM   26  C   UNL     1      44.611 -20.625   5.352  1.00  0.00     0.000 A 
HETATM   27  C   UNL     1      43.870 -20.893   6.501  1.00  0.00     0.001 A 
HETATM   28  C   UNL     1      43.588 -19.870   7.407  1.00  0.00     0.009 A 
ENDBRANCH  22  23
ENDBRANCH   1  22
TORSDOF 9
ENDMDL
MODEL 4
REMARK VINA RESULT:      -7.0      2.525      4.922
REMARK  9 active torsions:
REMARK  status: ('A' for Active; 'I' for Inactive)
REMARK    1  A    between atoms: C_2  and  C_3 
REMARK    2  A    between atoms: C_3  and  O_4 
REMARK    3  A    between atoms: C_3  and  C_5 
REMARK    4  A    between atoms: C_5  and  N_6 
REMARK    5  A    between atoms: N_6  and  C_8 
REMARK    6  A    between atoms: N_6  and  C_21 
REMARK    7  A    between atoms: C_8  and  C_9 
REMARK    8  A    between atoms: C_10  and  C_11 
REMARK    9  A    between atoms: C_21  and  C_22 
ROOT
HETATM    1  N   UNL     1      43.772 -16.631   5.585  1.00  0.00    -0.061 N 
HETATM    2  H   UNL     1      44.197 -16.114   4.810  1.00  0.00     0.280 HD
ENDROOT
BRANCH   1   3
HETATM    3  C   UNL     1      43.615 -15.623   6.714  1.00  0.00     0.267 C 
BRANCH   3   4
HETATM    4  C   UNL     1      44.052 -14.181   6.366  1.00  0.00     0.143 C 
BRANCH   4   5
HETATM    5  C   UNL     1      45.324 -13.689   7.061  1.00  0.00     0.029 C 
HETATM    6  C   UNL     1      45.058 -12.911   8.340  1.00  0.00     0.007 C 
ENDBRANCH   4   5
BRANCH   4   7
HETATM    7  O   UNL     1      42.987 -13.279   6.668  1.00  0.00    -0.394 OA
HETATM    8  H   UNL     1      42.993 -13.117   7.633  1.00  0.00     0.210 HD
ENDBRANCH   4   7
ENDBRANCH   3   4
ENDBRANCH   1   3
BRANCH   1   9
HETATM    9  C   UNL     1      44.722 -17.788   5.832  1.00  0.00     0.277 C 
BRANCH   9  10
HETATM   10  C   UNL     1      44.298 -18.932   6.685  1.00  0.00     0.016 A 
HETATM   11  C   UNL     1      44.110 -20.282   6.227  1.00  0.00     0.096 A 
HETATM   12  N   UNL     1      43.666 -21.068   7.216  1.00  0.00    -0.174 NA
HETATM   13  N   UNL     1      43.651 -20.291   8.299  1.00  0.00    -0.288 N 
HETATM   14  H   UNL     1      43.383 -20.708   9.185  1.00  0.00     0.188 HD
HETATM   15  C   UNL     1      43.995 -18.995   8.033  1.00  0.00     0.120 A 
BRANCH  11  16
HETATM   16  C   UNL     1      44.305 -20.829   4.885  1.00  0.00    -0.005 A 
HETATM   17  C   UNL     1      44.242 -20.007   3.752  1.00  0.00     0.014 A 
HETATM   18  C   UNL     1      44.420 -20.551   2.476  1.00  0.00     0.001 A 
HETATM   19  C   UNL     1      44.675 -21.913   2.326  1.00  0.00     0.000 A 
HETATM   20  C   UNL     1      44.761 -22.734   3.448  1.00  0.00     0.001 A 
HETATM   21  C   UNL     1      44.579 -22.195   4.723  1.00  0.00     0.014 A 
ENDBRANCH  11  16
ENDBRANCH   9  10
ENDBRANCH   1   9
BRANCH   1  22
HETATM   22  C   UNL     1      42.445 -17.124   5.041  1.00  0.00     0.273 C 
BRANCH  22  23
HETATM   23  C   UNL     1      42.365 -17.059   3.538  1.00  0.00    -0.033 A 
HETATM   24  C   UNL     1      41.173 -17.380   2.869  1.00  0.00     0.009 A 
HETATM   25  C   UNL     1      41.117 -17.356   1.474  1.00  0.00     0.001 A 
HETATM   26  C   UNL     1      42.245 -17.005   0.736  1.00  0.00     0.000 A 
HETATM   27  C   UNL     1      43.429 -16.672   1.388  1.00  0.00     0.001 A 
HETATM   28  C   UNL     1      43.492 -16.697   2.782  1.00  0.00     0.009 A 
ENDBRANCH  22  23
ENDBRANCH   1  22
TORSDOF 9
ENDMDL
MODEL 5
REMARK VINA RESULT:      -7.0      2.807      5.381
REMARK  9 active torsions:
REMARK  status: ('A' for Active; 'I' for Inactive)
REMARK    1  A    between atoms: C_2  and  C_3 
REMARK    2  A    between atoms: C_3  and  O_4 
REMARK    3  A    between atoms: C_3  and  C_5 
REMARK    4  A    between atoms: C_5  and  N_6 
REMARK    5  A    between atoms: N_6  and  C_8 
REMARK    6  A    between atoms: N_6  and  C_21 
REMARK    7  A    between atoms: C_8  and  C_9 
REMARK    8  A    between atoms: C_10  and  C_11 
REMARK    9  A    between atoms: C_21  and  C_22 
ROOT
HETATM    1  N   UNL     1      41.169 -15.222   4.898  1.00  0.00    -0.061 N 
HETATM    2  H   UNL     1      42.063 -15.224   4.398  1.00  0.00     0.280 HD
ENDROOT
BRANCH   1   3
HETATM    3  C   UNL     1      41.263 -14.079   5.899  1.00  0.00     0.267 C 
BRANCH   3   4
HETATM    4  C   UNL     1      42.563 -13.245   5.816  1.00  0.00     0.143 C 
BRANCH   4   5
HETATM    5  C   UNL     1      43.840 -14.037   5.517  1.00  0.00     0.029 C 
HETATM    6  C   UNL     1      44.627 -14.415   6.761  1.00  0.00     0.007 C 
ENDBRANCH   4   5
BRANCH   4   7
HETATM    7  O   UNL     1      42.744 -12.530   7.038  1.00  0.00    -0.394 OA
HETATM    8  H   UNL     1      43.655 -12.172   7.048  1.00  0.00     0.210 HD
ENDBRANCH   4   7
ENDBRANCH   3   4
ENDBRANCH   1   3
BRANCH   1   9
HETATM    9  C   UNL     1      41.055 -16.621   5.472  1.00  0.00     0.277 C 
BRANCH   9  10
HETATM   10  C   UNL     1      42.229 -17.253   6.136  1.00  0.00     0.016 A 
HETATM   11  C   UNL     1      43.328 -17.880   5.453  1.00  0.00     0.096 A 
HETATM   12  N   UNL     1      44.196 -18.409   6.324  1.00  0.00    -0.174 NA
HETATM   13  N   UNL     1      43.737 -18.064   7.527  1.00  0.00    -0.288 N 
HETATM   14  H   UNL     1      44.280 -18.332   8.343  1.00  0.00     0.188 HD
HETATM   15  C   UNL     1      42.547 -17.394   7.474  1.00  0.00     0.120 A 
BRANCH  11  16
HETATM   16  C   UNL     1      43.553 -18.019   4.015  1.00  0.00    -0.005 A 
HETATM   17  C   UNL     1      43.931 -16.921   3.231  1.00  0.00     0.014 A 
HETATM   18  C   UNL     1      44.130 -17.072   1.856  1.00  0.00     0.001 A 
HETATM   19  C   UNL     1      43.969 -18.321   1.259  1.00  0.00     0.000 A 
HETATM   20  C   UNL     1      43.615 -19.423   2.034  1.00  0.00     0.001 A 
HETATM   21  C   UNL     1      43.411 -19.275   3.407  1.00  0.00     0.014 A 
ENDBRANCH  11  16
ENDBRANCH   9  10
ENDBRANCH   1   9
BRANCH   1  22
HETATM   22  C   UNL     1      40.124 -14.986   3.826  1.00  0.00     0.273 C 
BRANCH  22  23
HETATM   23  C   UNL     1      40.574 -15.431   2.458  1.00  0.00    -0.033 A 
HETATM   24  C   UNL     1      41.208 -14.533   1.585  1.00  0.00     0.009 A 
HETATM   25  C   UNL     1      41.588 -14.942   0.305  1.00  0.00     0.001 A 
HETATM   26  C   UNL     1      41.344 -16.248  -0.112  1.00  0.00     0.000 A 
HETATM   27  C   UNL     1      40.727 -17.151   0.750  1.00  0.00     0.001 A 
HETATM   28  C   UNL     1      40.344 -16.748   2.030  1.00  0.00     0.009 A 
ENDBRANCH  22  23
ENDBRANCH   1  22
TORSDOF 9
ENDMDL
MODEL 6
REMARK VINA RESULT:      -6.9      2.900      5.230
REMARK  9 active torsions:
REMARK  status: ('A' for Active; 'I' for Inactive)
REMARK    1  A    between atoms: C_2  and  C_3 
REMARK    2  A    between atoms: C_3  and  O_4 
REMARK    3  A    between atoms: C_3  and  C_5 
REMARK    4  A    between atoms: C_5  and  N_6 
REMARK    5  A    between atoms: N_6  and  C_8 
REMARK    6  A    between atoms: N_6  and  C_21 
REMARK    7  A    between atoms: C_8  and  C_9 
REMARK    8  A    between atoms: C_10  and  C_11 
REMARK    9  A    between atoms: C_21  and  C_22 
ROOT
HETATM    1  N   UNL     1      41.854 -16.948   5.792  1.00  0.00    -0.061 N 
HETATM    2  H   UNL     1      42.577 -16.249   5.599  1.00  0.00     0.280 HD
ENDROOT
BRANCH   1   3
HETATM    3  C   UNL     1      42.247 -17.589   7.115  1.00  0.00     0.267 C 
BRANCH   3   4
HETATM    4  C   UNL     1      43.359 -16.847   7.894  1.00  0.00     0.143 C 
BRANCH   4   5
HETATM    5  C   UNL     1      44.673 -16.639   7.135  1.00  0.00     0.029 C 
HETATM    6  C   UNL     1      45.287 -17.928   6.616  1.00  0.00     0.007 C 
ENDBRANCH   4   5
BRANCH   4   7
HETATM    7  O   UNL     1      43.636 -17.551   9.105  1.00  0.00    -0.394 OA
HETATM    8  H   UNL     1      42.791 -17.902   9.452  1.00  0.00     0.210 HD
ENDBRANCH   4   7
ENDBRANCH   3   4
ENDBRANCH   1   3
BRANCH   1   9
HETATM    9  C   UNL     1      41.866 -17.848   4.570  1.00  0.00     0.277 C 
BRANCH   9  10
HETATM   10  C   UNL     1      42.575 -17.417   3.334  1.00  0.00     0.016 A 
HETATM   11  C   UNL     1      43.455 -18.244   2.553  1.00  0.00     0.096 A 
HETATM   12  N   UNL     1      43.988 -17.554   1.537  1.00  0.00    -0.174 NA
HETATM   13  N   UNL     1      43.412 -16.353   1.592  1.00  0.00    -0.288 N 
HETATM   14  H   UNL     1      43.646 -15.676   0.872  1.00  0.00     0.188 HD
HETATM   15  C   UNL     1      42.577 -16.207   2.664  1.00  0.00     0.120 A 
BRANCH  11  16
HETATM   16  C   UNL     1      43.826 -19.643   2.766  1.00  0.00    -0.005 A 
HETATM   17  C   UNL     1      43.543 -20.622   1.805  1.00  0.00     0.014 A 
HETATM   18  C   UNL     1      43.896 -21.955   2.032  1.00  0.00     0.001 A 
HETATM   19  C   UNL     1      44.545 -22.316   3.212  1.00  0.00     0.000 A 
HETATM   20  C   UNL     1      44.851 -21.346   4.163  1.00  0.00     0.001 A 
HETATM   21  C   UNL     1      44.495 -20.013   3.941  1.00  0.00     0.014 A 
ENDBRANCH  11  16
ENDBRANCH   9  10
ENDBRANCH   1   9
BRANCH   1  22
HETATM   22  C   UNL     1      40.563 -16.160   5.875  1.00  0.00     0.273 C 
BRANCH  22  23
HETATM   23  C   UNL     1      40.755 -14.687   5.620  1.00  0.00    -0.033 A 
HETATM   24  C   UNL     1      39.659 -13.864   5.314  1.00  0.00     0.009 A 
HETATM   25  C   UNL     1      39.849 -12.508   5.041  1.00  0.00     0.001 A 
HETATM   26  C   UNL     1      41.130 -11.961   5.076  1.00  0.00     0.000 A 
HETATM   27  C   UNL     1      42.222 -12.765   5.391  1.00  0.00     0.001 A 
HETATM   28  C   UNL     1      42.039 -14.122   5.663  1.00  0.00     0.009 A 
ENDBRANCH  22  23
ENDBRANCH   1  22
TORSDOF 9
ENDMDL
MODEL 7
REMARK VINA RESULT:      -6.8      2.746      6.871
REMARK  9 active torsions:
REMARK  status: ('A' for Active; 'I' for Inactive)
REMARK    1  A    between atoms: C_2  and  C_3 
REMARK    2  A    between atoms: C_3  and  O_4 
REMARK    3  A    between atoms: C_3  and  C_5 
REMARK    4  A    between atoms: C_5  and  N_6 
REMARK    5  A    between atoms: N_6  and  C_8 
REMARK    6  A    between atoms: N_6  and  C_21 
REMARK    7  A    between atoms: C_8  and  C_9 
REMARK    8  A    between atoms: C_10  and  C_11 
REMARK    9  A    between atoms: C_21  and  C_22 
ROOT
HETATM    1  N   UNL     1      43.072 -17.880   5.197  1.00  0.00    -0.061 N 
HETATM    2  H   UNL     1      42.390 -18.207   4.508  1.00  0.00     0.280 HD
ENDROOT
BRANCH   1   3
HETATM    3  C   UNL     1      42.620 -18.462   6.529  1.00  0.00     0.267 C 
BRANCH   3   4
HETATM    4  C   UNL     1      43.728 -18.571   7.602  1.00  0.00     0.143 C 
BRANCH   4   5
HETATM    5  C   UNL     1      43.930 -19.965   8.205  1.00  0.00     0.029 C 
HETATM    6  C   UNL     1      43.572 -21.097   7.257  1.00  0.00     0.007 C 
ENDBRANCH   4   5
BRANCH   4   7
HETATM    7  O   UNL     1      43.454 -17.651   8.659  1.00  0.00    -0.394 OA
HETATM    8  H   UNL     1      42.883 -16.942   8.302  1.00  0.00     0.210 HD
ENDBRANCH   4   7
ENDBRANCH   3   4
ENDBRANCH   1   3
BRANCH   1   9
HETATM    9  C   UNL     1      43.041 -16.368   5.070  1.00  0.00     0.277 C 
BRANCH   9  10
HETATM   10  C   UNL     1      41.743 -15.642   5.128  1.00  0.00     0.016 A 
HETATM   11  C   UNL     1      40.908 -15.345   3.996  1.00  0.00     0.096 A 
HETATM   12  N   UNL     1      39.839 -14.627   4.362  1.00  0.00    -0.174 NA
HETATM   13  N   UNL     1      39.919 -14.535   5.689  1.00  0.00    -0.288 N 
HETATM   14  H   UNL     1      39.169 -14.059   6.183  1.00  0.00     0.188 HD
HETATM   15  C   UNL     1      41.052 -15.103   6.198  1.00  0.00     0.120 A 
BRANCH  11  16
HETATM   16  C   UNL     1      41.115 -15.690   2.590  1.00  0.00    -0.005 A 
HETATM   17  C   UNL     1      41.600 -14.745   1.676  1.00  0.00     0.014 A 
HETATM   18  C   UNL     1      41.781 -15.092   0.334  1.00  0.00     0.001 A 
HETATM   19  C   UNL     1      41.495 -16.385  -0.100  1.00  0.00     0.000 A 
HETATM   20  C   UNL     1      41.034 -17.337   0.806  1.00  0.00     0.001 A 
HETATM   21  C   UNL     1      40.847 -16.993   2.147  1.00  0.00     0.014 A 
ENDBRANCH  11  16
ENDBRANCH   9  10
ENDBRANCH   1   9
BRANCH   1  22
HETATM   22  C   UNL     1      44.400 -18.438   4.727  1.00  0.00     0.273 C 
BRANCH  22  23
HETATM   23  C   UNL     1      44.246 -19.578   3.752  1.00  0.00    -0.033 A 
HETATM   24  C   UNL     1      43.528 -19.408   2.558  1.00  0.00     0.009 A 
HETATM   25  C   UNL     1      43.357 -20.478   1.679  1.00  0.00     0.001 A 
HETATM   26  C   UNL     1      43.904 -21.724   1.978  1.00  0.00     0.000 A 
HETATM   27  C   UNL     1      44.629 -21.901   3.154  1.00  0.00     0.001 A 
HETATM   28  C   UNL     1      44.802 -20.835   4.038  1.00  0.00     0.009 A 
ENDBRANCH  22  23
ENDBRANCH   1  22
TORSDOF 9
ENDMDL
MODEL 8
REMARK VINA RESULT:      -6.8      2.346      4.793
REMARK  9 active torsions:
REMARK  status: ('A' for Active; 'I' for Inactive)
REMARK    1  A    between atoms: C_2  and  C_3 
REMARK    2  A    between atoms: C_3  and  O_4 
REMARK    3  A    between atoms: C_3  and  C_5 
REMARK    4  A    between atoms: C_5  and  N_6 
REMARK    5  A    between atoms: N_6  and  C_8 
REMARK    6  A    between atoms: N_6  and  C_21 
REMARK    7  A    between atoms: C_8  and  C_9 
REMARK    8  A    between atoms: C_10  and  C_11 
REMARK    9  A    between atoms: C_21  and  C_22 
ROOT
HETATM    1  N   UNL     1      41.447 -16.771   4.343  1.00  0.00    -0.061 N 
HETATM    2  H   UNL     1      42.267 -16.461   3.813  1.00  0.00     0.280 HD
ENDROOT
BRANCH   1   3
HETATM    3  C   UNL     1      41.003 -15.563   5.155  1.00  0.00     0.267 C 
BRANCH   3   4
HETATM    4  C   UNL     1      41.968 -14.356   5.107  1.00  0.00     0.143 C 
BRANCH   4   5
HETATM    5  C   UNL     1      43.114 -14.463   4.097  1.00  0.00     0.029 C 
HETATM    6  C   UNL     1      42.912 -13.613   2.853  1.00  0.00     0.007 C 
ENDBRANCH   4   5
BRANCH   4   7
HETATM    7  O   UNL     1      42.522 -14.143   6.406  1.00  0.00    -0.394 OA
HETATM    8  H   UNL     1      42.354 -13.212   6.657  1.00  0.00     0.210 HD
ENDBRANCH   4   7
ENDBRANCH   3   4
ENDBRANCH   1   3
BRANCH   1   9
HETATM    9  C   UNL     1      41.938 -17.974   5.126  1.00  0.00     0.277 C 
BRANCH   9  10
HETATM   10  C   UNL     1      43.353 -18.038   5.584  1.00  0.00     0.016 A 
HETATM   11  C   UNL     1      44.357 -18.920   5.053  1.00  0.00     0.096 A 
HETATM   12  N   UNL     1      45.514 -18.785   5.713  1.00  0.00    -0.174 NA
HETATM   13  N   UNL     1      45.308 -17.793   6.579  1.00  0.00    -0.288 N 
HETATM   14  H   UNL     1      46.086 -17.494   7.160  1.00  0.00     0.188 HD
HETATM   15  C   UNL     1      44.023 -17.327   6.563  1.00  0.00     0.120 A 
BRANCH  11  16
HETATM   16  C   UNL     1      44.237 -19.899   3.973  1.00  0.00    -0.005 A 
HETATM   17  C   UNL     1      44.673 -21.220   4.140  1.00  0.00     0.014 A 
HETATM   18  C   UNL     1      44.559 -22.138   3.092  1.00  0.00     0.001 A 
HETATM   19  C   UNL     1      43.996 -21.747   1.878  1.00  0.00     0.000 A 
HETATM   20  C   UNL     1      43.539 -20.442   1.710  1.00  0.00     0.001 A 
HETATM   21  C   UNL     1      43.656 -19.521   2.753  1.00  0.00     0.014 A 
ENDBRANCH  11  16
ENDBRANCH   9  10
ENDBRANCH   1   9
BRANCH   1  22
HETATM   22  C   UNL     1      40.437 -17.183   3.291  1.00  0.00     0.273 C 
BRANCH  22  23
HETATM   23  C   UNL     1      40.573 -16.404   2.008  1.00  0.00    -0.033 A 
HETATM   24  C   UNL     1      41.547 -16.752   1.059  1.00  0.00     0.009 A 
HETATM   25  C   UNL     1      41.694 -16.003  -0.110  1.00  0.00     0.001 A 
HETATM   26  C   UNL     1      40.868 -14.906  -0.345  1.00  0.00     0.000 A 
HETATM   27  C   UNL     1      39.890 -14.559   0.583  1.00  0.00     0.001 A 
HETATM   28  C   UNL     1      39.740 -15.303   1.755  1.00  0.00     0.009 A 
ENDBRANCH  22  23
ENDBRANCH   1  22
TORSDOF 9
ENDMDL
MODEL 9
REMARK VINA RESULT:      -6.8      2.689      6.472
REMARK  9 active torsions:
REMARK  status: ('A' for Active; 'I' for Inactive)
REMARK    1  A    between atoms: C_2  and  C_3 
REMARK    2  A    between atoms: C_3  and  O_4 
REMARK    3  A    between atoms: C_3  and  C_5 
REMARK    4  A    between atoms: C_5  and  N_6 
REMARK    5  A    between atoms: N_6  and  C_8 
REMARK    6  A    between atoms: N_6  and  C_21 
REMARK    7  A    between atoms: C_8  and  C_9 
REMARK    8  A    between atoms: C_10  and  C_11 
REMARK    9  A    between atoms: C_21  and  C_22 
ROOT
HETATM    1  N   UNL     1      42.829 -17.337   4.748  1.00  0.00    -0.061 N 
HETATM    2  H   UNL     1      42.965 -18.174   5.321  1.00  0.00     0.280 HD
ENDROOT
BRANCH   1   3
HETATM    3  C   UNL     1      43.301 -16.172   5.607  1.00  0.00     0.267 C 
BRANCH   3   4
HETATM    4  C   UNL     1      43.851 -16.568   6.997  1.00  0.00     0.143 C 
BRANCH   4   5
HETATM    5  C   UNL     1      43.118 -17.717   7.696  1.00  0.00     0.029 C 
HETATM    6  C   UNL     1      43.910 -19.013   7.732  1.00  0.00     0.007 C 
ENDBRANCH   4   5
BRANCH   4   7
HETATM    7  O   UNL     1      43.835 -15.427   7.854  1.00  0.00    -0.394 OA
HETATM    8  H   UNL     1      43.316 -14.725   7.413  1.00  0.00     0.210 HD
ENDBRANCH   4   7
ENDBRANCH   3   4
ENDBRANCH   1   3
BRANCH   1   9
HETATM    9  C   UNL     1      41.356 -17.362   4.387  1.00  0.00     0.277 C 
BRANCH   9  10
HETATM   10  C   UNL     1      40.881 -16.689   3.147  1.00  0.00     0.016 A 
HETATM   11  C   UNL     1      40.581 -15.287   3.028  1.00  0.00     0.096 A 
HETATM   12  N   UNL     1      40.116 -14.996   1.807  1.00  0.00    -0.174 NA
HETATM   13  N   UNL     1      40.196 -16.138   1.123  1.00  0.00    -0.288 N 
HETATM   14  H   UNL     1      39.929 -16.129   0.143  1.00  0.00     0.188 HD
HETATM   15  C   UNL     1      40.622 -17.190   1.884  1.00  0.00     0.120 A 
BRANCH  11  16
HETATM   16  C   UNL     1      40.687 -14.239   4.043  1.00  0.00    -0.005 A 
HETATM   17  C   UNL     1      39.814 -14.198   5.137  1.00  0.00     0.014 A 
HETATM   18  C   UNL     1      39.926 -13.182   6.090  1.00  0.00     0.001 A 
HETATM   19  C   UNL     1      40.917 -12.211   5.964  1.00  0.00     0.000 A 
HETATM   20  C   UNL     1      41.804 -12.256   4.892  1.00  0.00     0.001 A 
HETATM   21  C   UNL     1      41.693 -13.267   3.935  1.00  0.00     0.014 A 
ENDBRANCH  11  16
ENDBRANCH   9  10
ENDBRANCH   1   9
BRANCH   1  22
HETATM   22  C   UNL     1      43.693 -17.558   3.523  1.00  0.00     0.273 C 
BRANCH  22  23
HETATM   23  C   UNL     1      43.934 -19.017   3.230  1.00  0.00    -0.033 A 
HETATM   24  C   UNL     1      43.480 -19.591   2.032  1.00  0.00     0.009 A 
HETATM   25  C   UNL     1      43.672 -20.952   1.784  1.00  0.00     0.001 A 
HETATM   26  C   UNL     1      44.324 -21.748   2.722  1.00  0.00     0.000 A 
HETATM   27  C   UNL     1      44.790 -21.187   3.908  1.00  0.00     0.001 A 
HETATM   28  C   UNL     1      44.599 -19.828   4.163  1.00  0.00     0.009 A 
ENDBRANCH  22  23
ENDBRANCH   1  22
TORSDOF 9
ENDMDL
MODEL 10
REMARK VINA RESULT:      -6.7      2.783      6.616
REMARK  9 active torsions:
REMARK  status: ('A' for Active; 'I' for Inactive)
REMARK    1  A    between atoms: C_2  and  C_3 
REMARK    2  A    between atoms: C_3  and  O_4 
REMARK    3  A    between atoms: C_3  and  C_5 
REMARK    4  A    between atoms: C_5  and  N_6 
REMARK    5  A    between atoms: N_6  and  C_8 
REMARK    6  A    between atoms: N_6  and  C_21 
REMARK    7  A    between atoms: C_8  and  C_9 
REMARK    8  A    between atoms: C_10  and  C_11 
REMARK    9  A    between atoms: C_21  and  C_22 
ROOT
HETATM    1  N   UNL     1      42.390 -17.571   3.753  1.00  0.00    -0.061 N 
HETATM    2  H   UNL     1      41.939 -18.090   2.994  1.00  0.00     0.280 HD
ENDROOT
BRANCH   1   3
HETATM    3  C   UNL     1      41.716 -18.046   5.032  1.00  0.00     0.267 C 
BRANCH   3   4
HETATM    4  C   UNL     1      41.509 -16.952   6.105  1.00  0.00     0.143 C 
BRANCH   4   5
HETATM    5  C   UNL     1      42.337 -17.113   7.383  1.00  0.00     0.029 C 
HETATM    6  C   UNL     1      43.337 -18.256   7.321  1.00  0.00     0.007 C 
ENDBRANCH   4   5
BRANCH   4   7
HETATM    7  O   UNL     1      40.127 -16.894   6.459  1.00  0.00    -0.394 OA
HETATM    8  H   UNL     1      39.601 -16.968   5.638  1.00  0.00     0.210 HD
ENDBRANCH   4   7
ENDBRANCH   3   4
ENDBRANCH   1   3
BRANCH   1   9
HETATM    9  C   UNL     1      42.194 -16.113   3.381  1.00  0.00     0.277 C 
BRANCH   9  10
HETATM   10  C   UNL     1      40.944 -15.680   2.700  1.00  0.00     0.016 A 
HETATM   11  C   UNL     1      40.152 -14.537   3.070  1.00  0.00     0.096 A 
HETATM   12  N   UNL     1      39.055 -14.446   2.308  1.00  0.00    -0.174 NA
HETATM   13  N   UNL     1      39.167 -15.430   1.416  1.00  0.00    -0.288 N 
HETATM   14  H   UNL     1      38.449 -15.514   0.702  1.00  0.00     0.188 HD
HETATM   15  C   UNL     1      40.266 -16.216   1.620  1.00  0.00     0.120 A 
BRANCH  11  16
HETATM   16  C   UNL     1      40.389 -13.566   4.137  1.00  0.00    -0.005 A 
HETATM   17  C   UNL     1      41.309 -12.522   3.976  1.00  0.00     0.014 A 
HETATM   18  C   UNL     1      41.529 -11.610   5.012  1.00  0.00     0.001 A 
HETATM   19  C   UNL     1      40.822 -11.727   6.208  1.00  0.00     0.000 A 
HETATM   20  C   UNL     1      39.889 -12.748   6.369  1.00  0.00     0.001 A 
HETATM   21  C   UNL     1      39.670 -13.663   5.338  1.00  0.00     0.014 A 
ENDBRANCH  11  16
ENDBRANCH   9  10
ENDBRANCH   1   9
BRANCH   1  22
HETATM   22  C   UNL     1      43.853 -17.960   3.674  1.00  0.00     0.273 C 
BRANCH  22  23
HETATM   23  C   UNL     1      44.057 -19.416   3.341  1.00  0.00    -0.033 A 
HETATM   24  C   UNL     1      43.645 -19.932   2.102  1.00  0.00     0.009 A 
HETATM   25  C   UNL     1      43.803 -21.289   1.815  1.00  0.00     0.001 A 
HETATM   26  C   UNL     1      44.376 -22.141   2.757  1.00  0.00     0.000 A 
HETATM   27  C   UNL     1      44.799 -21.638   3.984  1.00  0.00     0.001 A 
HETATM   28  C   UNL     1      44.643 -20.283   4.277  1.00  0.00     0.009 A 
ENDBRANCH  22  23
ENDBRANCH   1  22
TORSDOF 9
ENDMDL
