MODEL 1
REMARK VINA RESULT:      -9.1      0.000      0.000
REMARK  9 active torsions:
REMARK  status: ('A' for Active; 'I' for Inactive)
REMARK    1  A    between atoms: O_2  and  C_3 
REMARK    2  A    between atoms: C_6  and  C_7 
REMARK    3  A    between atoms: C_13  and  C_14 
REMARK       I    between atoms: C_14  and  N_15 
REMARK    4  A    between atoms: N_15  and  N_16 
REMARK    5  A    between atoms: N_16  and  C_17 
REMARK    6  A    between atoms: C_17  and  N_18 
REMARK    7  A    between atoms: N_18  and  C_19 
REMARK    8  A    between atoms: C_19  and  C_20 
REMARK    9  A    between atoms: C_27  and  C_28 
ROOT
HETATM    1  C   UNL     1      41.783 -17.107   5.381  1.00  0.00     0.118 C 
HETATM    2  N   UNL     1      41.028 -16.216   4.504  1.00  0.00    -0.365 N 
HETATM    3  C   UNL     1      41.619 -15.122   3.957  1.00  0.00     0.138 A 
HETATM    4  N   UNL     1      42.786 -14.625   4.479  1.00  0.00    -0.240 N 
HETATM    5  N   UNL     1      43.275 -13.582   3.790  1.00  0.00    -0.181 NA
HETATM    6  C   UNL     1      42.352 -13.384   2.844  1.00  0.00     0.160 A 
HETATM    7  C   UNL     1      41.298 -14.327   2.873  1.00  0.00     0.098 A 
HETATM    8  C   UNL     1      43.514 -15.245   5.572  1.00  0.00     0.221 C 
HETATM    9  C   UNL     1      42.598 -16.221   6.341  1.00  0.00     0.066 C 
HETATM   10  H   UNL     1      40.225 -16.634   4.027  1.00  0.00     0.161 HD
ENDROOT
BRANCH   7  11
HETATM   11  C   UNL     1      40.125 -14.478   2.030  1.00  0.00     0.275 C 
HETATM   12  N   UNL     1      40.223 -14.250   0.664  1.00  0.00    -0.263 N 
HETATM   13  H   UNL     1      39.371 -14.534   0.186  1.00  0.00     0.190 HD
HETATM   14  O   UNL     1      39.026 -14.797   2.489  1.00  0.00    -0.266 OA
BRANCH  12  15
HETATM   15  N   UNL     1      41.405 -14.498  -0.064  1.00  0.00    -0.274 N 
HETATM   16  H   UNL     1      41.997 -15.252   0.272  1.00  0.00     0.189 HD
BRANCH  15  17
HETATM   17  C   UNL     1      41.848 -13.628  -1.028  1.00  0.00     0.186 C 
HETATM   18  S   UNL     1      42.195 -12.008  -0.793  1.00  0.00    -0.040 SA
BRANCH  17  19
HETATM   19  N   UNL     1      42.032 -14.135  -2.278  1.00  0.00    -0.360 N 
HETATM   20  H   UNL     1      42.622 -14.958  -2.307  1.00  0.00     0.162 HD
BRANCH  19  21
HETATM   21  C   UNL     1      41.360 -13.771  -3.511  1.00  0.00     0.187 C 
BRANCH  21  22
HETATM   22  C   UNL     1      40.035 -14.426  -3.569  1.00  0.00     0.070 A 
HETATM   23  O   UNL     1      39.979 -15.632  -4.205  1.00  0.00    -0.325 OA
HETATM   24  C   UNL     1      38.687 -16.051  -4.143  1.00  0.00     0.142 A 
HETATM   25  C   UNL     1      37.915 -15.133  -3.472  1.00  0.00     0.027 A 
HETATM   26  C   UNL     1      38.783 -14.080  -3.101  1.00  0.00     0.036 A 
ENDBRANCH  21  22
ENDBRANCH  19  21
ENDBRANCH  17  19
ENDBRANCH  15  17
ENDBRANCH  12  15
ENDBRANCH   7  11
BRANCH   1  27
HETATM   27  C   UNL     1      42.627 -18.128   4.622  1.00  0.00    -0.035 A 
HETATM   28  C   UNL     1      42.501 -18.342   3.241  1.00  0.00     0.012 A 
HETATM   29  C   UNL     1      43.304 -19.276   2.579  1.00  0.00     0.037 A 
HETATM   30  C   UNL     1      44.251 -20.024   3.275  1.00  0.00     0.068 A 
HETATM   31  C   UNL     1      44.362 -19.857   4.652  1.00  0.00     0.037 A 
HETATM   32  C   UNL     1      43.553 -18.926   5.319  1.00  0.00     0.012 A 
BRANCH  30  33
HETATM   33  O   UNL     1      44.983 -20.885   2.507  1.00  0.00    -0.356 OA
HETATM   34  C   UNL     1      44.255 -21.877   1.794  1.00  0.00     0.210 C 
ENDBRANCH  30  33
ENDBRANCH   1  27
BRANCH   8  35
HETATM   35  C   UNL     1      44.075 -14.220   6.532  1.00  0.00     0.409 C 
HETATM   36  F   UNL     1      43.242 -13.173   6.726  1.00  0.00    -0.169 F 
HETATM   37  F   UNL     1      44.256 -14.796   7.754  1.00  0.00    -0.169 F 
HETATM   38  F   UNL     1      45.283 -13.741   6.170  1.00  0.00    -0.169 F 
ENDBRANCH   8  35
TORSDOF 9
ENDMDL
MODEL 2
REMARK VINA RESULT:      -8.6      1.893      2.770
REMARK  9 active torsions:
REMARK  status: ('A' for Active; 'I' for Inactive)
REMARK    1  A    between atoms: O_2  and  C_3 
REMARK    2  A    between atoms: C_6  and  C_7 
REMARK    3  A    between atoms: C_13  and  C_14 
REMARK       I    between atoms: C_14  and  N_15 
REMARK    4  A    between atoms: N_15  and  N_16 
REMARK    5  A    between atoms: N_16  and  C_17 
REMARK    6  A    between atoms: C_17  and  N_18 
REMARK    7  A    between atoms: N_18  and  C_19 
REMARK    8  A    between atoms: C_19  and  C_20 
REMARK    9  A    between atoms: C_27  and  C_28 
ROOT
HETATM    1  C   UNL     1      41.752 -17.137   5.240  1.00  0.00     0.118 C 
HETATM    2  N   UNL     1      41.027 -16.241   4.344  1.00  0.00    -0.365 N 
HETATM    3  C   UNL     1      41.641 -15.155   3.808  1.00  0.00     0.138 A 
HETATM    4  N   UNL     1      42.800 -14.667   4.357  1.00  0.00    -0.240 N 
HETATM    5  N   UNL     1      43.315 -13.631   3.678  1.00  0.00    -0.181 NA
HETATM    6  C   UNL     1      42.417 -13.426   2.709  1.00  0.00     0.160 A 
HETATM    7  C   UNL     1      41.354 -14.359   2.715  1.00  0.00     0.098 A 
HETATM    8  C   UNL     1      43.495 -15.291   5.470  1.00  0.00     0.221 C 
HETATM    9  C   UNL     1      42.551 -16.256   6.218  1.00  0.00     0.066 C 
HETATM   10  H   UNL     1      40.231 -16.652   3.848  1.00  0.00     0.161 HD
ENDROOT
BRANCH   7  11
HETATM   11  C   UNL     1      40.200 -14.501   1.845  1.00  0.00     0.275 C 
HETATM   12  N   UNL     1      40.338 -14.301   0.478  1.00  0.00    -0.263 N 
HETATM   13  H   UNL     1      39.493 -14.576  -0.017  1.00  0.00     0.190 HD
HETATM   14  O   UNL     1      39.083 -14.788   2.280  1.00  0.00    -0.266 OA
BRANCH  12  15
HETATM   15  N   UNL     1      41.533 -14.589  -0.214  1.00  0.00    -0.274 N 
HETATM   16  H   UNL     1      42.380 -14.648   0.344  1.00  0.00     0.189 HD
BRANCH  15  17
HETATM   17  C   UNL     1      41.590 -14.560  -1.585  1.00  0.00     0.186 C 
HETATM   18  S   UNL     1      40.677 -15.507  -2.619  1.00  0.00    -0.040 SA
BRANCH  17  19
HETATM   19  N   UNL     1      42.458 -13.674  -2.146  1.00  0.00    -0.360 N 
HETATM   20  H   UNL     1      43.434 -13.914  -2.019  1.00  0.00     0.162 HD
BRANCH  19  21
HETATM   21  C   UNL     1      42.170 -12.565  -3.036  1.00  0.00     0.187 C 
BRANCH  21  22
HETATM   22  C   UNL     1      42.677 -11.307  -2.446  1.00  0.00     0.070 A 
HETATM   23  O   UNL     1      43.202 -11.392  -1.189  1.00  0.00    -0.325 OA
HETATM   24  C   UNL     1      43.602 -10.139  -0.844  1.00  0.00     0.142 A 
HETATM   25  C   UNL     1      43.346  -9.253  -1.864  1.00  0.00     0.027 A 
HETATM   26  C   UNL     1      42.747 -10.005  -2.901  1.00  0.00     0.036 A 
ENDBRANCH  21  22
ENDBRANCH  19  21
ENDBRANCH  17  19
ENDBRANCH  15  17
ENDBRANCH  12  15
ENDBRANCH   7  11
BRANCH   1  27
HETATM   27  C   UNL     1      42.604 -18.168   4.505  1.00  0.00    -0.035 A 
HETATM   28  C   UNL     1      42.504 -18.390   3.122  1.00  0.00     0.012 A 
HETATM   29  C   UNL     1      43.313 -19.333   2.482  1.00  0.00     0.037 A 
HETATM   30  C   UNL     1      44.242 -20.082   3.201  1.00  0.00     0.068 A 
HETATM   31  C   UNL     1      44.327 -19.908   4.579  1.00  0.00     0.037 A 
HETATM   32  C   UNL     1      43.511 -18.968   5.224  1.00  0.00     0.012 A 
BRANCH  30  33
HETATM   33  O   UNL     1      44.983 -20.952   2.453  1.00  0.00    -0.356 OA
HETATM   34  C   UNL     1      44.262 -21.930   1.713  1.00  0.00     0.210 C 
ENDBRANCH  30  33
ENDBRANCH   1  27
BRANCH   8  35
HETATM   35  C   UNL     1      44.043 -14.269   6.440  1.00  0.00     0.409 C 
HETATM   36  F   UNL     1      45.197 -13.709   6.014  1.00  0.00    -0.169 F 
HETATM   37  F   UNL     1      43.150 -13.249   6.576  1.00  0.00    -0.169 F 
HETATM   38  F   UNL     1      44.240 -14.753   7.685  1.00  0.00    -0.169 F 
ENDBRANCH   8  35
TORSDOF 9
ENDMDL
MODEL 3
REMARK VINA RESULT:      -8.3      4.437      8.210
REMARK  9 active torsions:
REMARK  status: ('A' for Active; 'I' for Inactive)
REMARK    1  A    between atoms: O_2  and  C_3 
REMARK    2  A    between atoms: C_6  and  C_7 
REMARK    3  A    between atoms: C_13  and  C_14 
REMARK       I    between atoms: C_14  and  N_15 
REMARK    4  A    between atoms: N_15  and  N_16 
REMARK    5  A    between atoms: N_16  and  C_17 
REMARK    6  A    between atoms: C_17  and  N_18 
REMARK    7  A    between atoms: N_18  and  C_19 
REMARK    8  A    between atoms: C_19  and  C_20 
REMARK    9  A    between atoms: C_27  and  C_28 
ROOT
HETATM    1  C   UNL     1      43.271 -15.218   2.271  1.00  0.00     0.118 C 
HETATM    2  N   UNL     1      43.157 -14.344   3.436  1.00  0.00    -0.365 N 
HETATM    3  C   UNL     1      41.983 -14.246   4.112  1.00  0.00     0.138 A 
HETATM    4  N   UNL     1      40.808 -14.654   3.534  1.00  0.00    -0.240 N 
HETATM    5  N   UNL     1      39.749 -14.550   4.351  1.00  0.00    -0.181 NA
HETATM    6  C   UNL     1      40.270 -14.003   5.455  1.00  0.00     0.160 A 
HETATM    7  C   UNL     1      41.669 -13.807   5.385  1.00  0.00     0.098 A 
HETATM    8  C   UNL     1      40.723 -15.279   2.226  1.00  0.00     0.221 C 
HETATM    9  C   UNL     1      42.008 -15.006   1.416  1.00  0.00     0.066 C 
HETATM   10  H   UNL     1      44.030 -14.143   3.930  1.00  0.00     0.161 HD
ENDROOT
BRANCH   7  11
HETATM   11  C   UNL     1      42.610 -13.266   6.350  1.00  0.00     0.275 C 
HETATM   12  N   UNL     1      42.292 -12.110   7.050  1.00  0.00    -0.263 N 
HETATM   13  H   UNL     1      42.969 -11.934   7.789  1.00  0.00     0.190 HD
HETATM   14  O   UNL     1      43.701 -13.795   6.568  1.00  0.00    -0.266 OA
BRANCH  12  15
HETATM   15  N   UNL     1      40.966 -11.770   7.390  1.00  0.00    -0.274 N 
HETATM   16  H   UNL     1      40.230 -12.180   6.822  1.00  0.00     0.189 HD
BRANCH  15  17
HETATM   17  C   UNL     1      40.692 -10.764   8.282  1.00  0.00     0.186 C 
HETATM   18  S   UNL     1      39.181 -10.393   8.899  1.00  0.00    -0.040 SA
BRANCH  17  19
HETATM   19  N   UNL     1      41.745 -10.015   8.709  1.00  0.00    -0.360 N 
HETATM   20  H   UNL     1      42.121  -9.391   8.004  1.00  0.00     0.162 HD
BRANCH  19  21
HETATM   21  C   UNL     1      42.262  -9.864  10.056  1.00  0.00     0.187 C 
BRANCH  21  22
HETATM   22  C   UNL     1      43.592 -10.504  10.155  1.00  0.00     0.070 A 
HETATM   23  O   UNL     1      44.150 -10.934   8.985  1.00  0.00    -0.325 OA
HETATM   24  C   UNL     1      45.352 -11.483   9.301  1.00  0.00     0.142 A 
HETATM   25  C   UNL     1      45.576 -11.407  10.656  1.00  0.00     0.027 A 
HETATM   26  C   UNL     1      44.439 -10.776  11.211  1.00  0.00     0.036 A 
ENDBRANCH  21  22
ENDBRANCH  19  21
ENDBRANCH  17  19
ENDBRANCH  15  17
ENDBRANCH  12  15
ENDBRANCH   7  11
BRANCH   1  27
HETATM   27  C   UNL     1      43.530 -16.678   2.633  1.00  0.00    -0.035 A 
HETATM   28  C   UNL     1      43.722 -17.678   1.667  1.00  0.00     0.012 A 
HETATM   29  C   UNL     1      43.972 -19.002   2.039  1.00  0.00     0.037 A 
HETATM   30  C   UNL     1      44.035 -19.366   3.382  1.00  0.00     0.068 A 
HETATM   31  C   UNL     1      43.805 -18.398   4.355  1.00  0.00     0.037 A 
HETATM   32  C   UNL     1      43.547 -17.071   3.984  1.00  0.00     0.012 A 
BRANCH  30  33
HETATM   33  O   UNL     1      44.307 -20.686   3.609  1.00  0.00    -0.356 OA
HETATM   34  C   UNL     1      44.991 -20.995   4.818  1.00  0.00     0.210 C 
ENDBRANCH  30  33
ENDBRANCH   1  27
BRANCH   8  35
HETATM   35  C   UNL     1      39.522 -14.796   1.444  1.00  0.00     0.409 C 
HETATM   36  F   UNL     1      39.298 -13.471   1.595  1.00  0.00    -0.169 F 
HETATM   37  F   UNL     1      39.738 -14.997   0.113  1.00  0.00    -0.169 F 
HETATM   38  F   UNL     1      38.382 -15.456   1.735  1.00  0.00    -0.169 F 
ENDBRANCH   8  35
TORSDOF 9
ENDMDL
MODEL 4
REMARK VINA RESULT:      -7.9      2.483      5.253
REMARK  9 active torsions:
REMARK  status: ('A' for Active; 'I' for Inactive)
REMARK    1  A    between atoms: O_2  and  C_3 
REMARK    2  A    between atoms: C_6  and  C_7 
REMARK    3  A    between atoms: C_13  and  C_14 
REMARK       I    between atoms: C_14  and  N_15 
REMARK    4  A    between atoms: N_15  and  N_16 
REMARK    5  A    between atoms: N_16  and  C_17 
REMARK    6  A    between atoms: C_17  and  N_18 
REMARK    7  A    between atoms: N_18  and  C_19 
REMARK    8  A    between atoms: C_19  and  C_20 
REMARK    9  A    between atoms: C_27  and  C_28 
ROOT
HETATM    1  C   UNL     1      43.204 -13.440   3.977  1.00  0.00     0.118 C 
HETATM    2  N   UNL     1      43.107 -14.555   3.038  1.00  0.00    -0.365 N 
HETATM    3  C   UNL     1      42.680 -15.774   3.456  1.00  0.00     0.138 A 
HETATM    4  N   UNL     1      42.681 -16.095   4.790  1.00  0.00    -0.240 N 
HETATM    5  N   UNL     1      42.174 -17.310   5.046  1.00  0.00    -0.181 NA
HETATM    6  C   UNL     1      41.903 -17.788   3.827  1.00  0.00     0.160 A 
HETATM    7  C   UNL     1      42.173 -16.871   2.784  1.00  0.00     0.098 A 
HETATM    8  C   UNL     1      43.048 -15.167   5.846  1.00  0.00     0.221 C 
HETATM    9  C   UNL     1      43.850 -13.983   5.265  1.00  0.00     0.066 C 
HETATM   10  H   UNL     1      42.987 -14.301   2.054  1.00  0.00     0.161 HD
ENDROOT
BRANCH   7  11
HETATM   11  C   UNL     1      42.010 -16.981   1.346  1.00  0.00     0.275 C 
HETATM   12  N   UNL     1      40.763 -16.765   0.774  1.00  0.00    -0.263 N 
HETATM   13  H   UNL     1      40.829 -16.729  -0.240  1.00  0.00     0.190 HD
HETATM   14  O   UNL     1      42.947 -17.273   0.601  1.00  0.00    -0.266 OA
BRANCH  12  15
HETATM   15  N   UNL     1      39.821 -15.871   1.324  1.00  0.00    -0.274 N 
HETATM   16  H   UNL     1      39.318 -16.187   2.147  1.00  0.00     0.189 HD
BRANCH  15  17
HETATM   17  C   UNL     1      39.437 -14.736   0.654  1.00  0.00     0.186 C 
HETATM   18  S   UNL     1      37.949 -13.982   0.787  1.00  0.00    -0.040 SA
BRANCH  17  19
HETATM   19  N   UNL     1      40.355 -14.171  -0.178  1.00  0.00    -0.360 N 
HETATM   20  H   UNL     1      41.317 -14.334   0.097  1.00  0.00     0.162 HD
BRANCH  19  21
HETATM   21  C   UNL     1      40.143 -13.547  -1.470  1.00  0.00     0.187 C 
BRANCH  21  22
HETATM   22  C   UNL     1      39.679 -14.560  -2.443  1.00  0.00     0.070 A 
HETATM   23  O   UNL     1      38.379 -14.464  -2.850  1.00  0.00    -0.325 OA
HETATM   24  C   UNL     1      38.167 -15.477  -3.731  1.00  0.00     0.142 A 
HETATM   25  C   UNL     1      39.312 -16.218  -3.899  1.00  0.00     0.027 A 
HETATM   26  C   UNL     1      40.291 -15.629  -3.066  1.00  0.00     0.036 A 
ENDBRANCH  21  22
ENDBRANCH  19  21
ENDBRANCH  17  19
ENDBRANCH  15  17
ENDBRANCH  12  15
ENDBRANCH   7  11
BRANCH   1  27
HETATM   27  C   UNL     1      41.874 -12.729   4.210  1.00  0.00    -0.035 A 
HETATM   28  C   UNL     1      40.890 -12.611   3.215  1.00  0.00     0.012 A 
HETATM   29  C   UNL     1      39.678 -11.965   3.471  1.00  0.00     0.037 A 
HETATM   30  C   UNL     1      39.412 -11.417   4.724  1.00  0.00     0.068 A 
HETATM   31  C   UNL     1      40.390 -11.486   5.712  1.00  0.00     0.037 A 
HETATM   32  C   UNL     1      41.610 -12.127   5.454  1.00  0.00     0.012 A 
BRANCH  30  33
HETATM   33  O   UNL     1      38.183 -10.833   4.849  1.00  0.00    -0.356 OA
HETATM   34  C   UNL     1      37.801  -9.929   3.821  1.00  0.00     0.210 C 
ENDBRANCH  30  33
ENDBRANCH   1  27
BRANCH   8  35
HETATM   35  C   UNL     1      43.858 -15.838   6.933  1.00  0.00     0.409 C 
HETATM   36  F   UNL     1      44.743 -16.737   6.448  1.00  0.00    -0.169 F 
HETATM   37  F   UNL     1      44.591 -14.899   7.595  1.00  0.00    -0.169 F 
HETATM   38  F   UNL     1      43.105 -16.446   7.873  1.00  0.00    -0.169 F 
ENDBRANCH   8  35
TORSDOF 9
ENDMDL
MODEL 5
REMARK VINA RESULT:      -7.9      2.172      2.843
REMARK  9 active torsions:
REMARK  status: ('A' for Active; 'I' for Inactive)
REMARK    1  A    between atoms: O_2  and  C_3 
REMARK    2  A    between atoms: C_6  and  C_7 
REMARK    3  A    between atoms: C_13  and  C_14 
REMARK       I    between atoms: C_14  and  N_15 
REMARK    4  A    between atoms: N_15  and  N_16 
REMARK    5  A    between atoms: N_16  and  C_17 
REMARK    6  A    between atoms: C_17  and  N_18 
REMARK    7  A    between atoms: N_18  and  C_19 
REMARK    8  A    between atoms: C_19  and  C_20 
REMARK    9  A    between atoms: C_27  and  C_28 
ROOT
HETATM    1  C   UNL     1      41.741 -17.085   5.294  1.00  0.00     0.118 C 
HETATM    2  N   UNL     1      41.048 -16.175   4.384  1.00  0.00    -0.365 N 
HETATM    3  C   UNL     1      41.689 -15.097   3.865  1.00  0.00     0.138 A 
HETATM    4  N   UNL     1      42.843 -14.627   4.439  1.00  0.00    -0.240 N 
HETATM    5  N   UNL     1      43.388 -13.597   3.775  1.00  0.00    -0.181 NA
HETATM    6  C   UNL     1      42.513 -13.377   2.787  1.00  0.00     0.160 A 
HETATM    7  C   UNL     1      41.436 -14.295   2.768  1.00  0.00     0.098 A 
HETATM    8  C   UNL     1      43.505 -15.264   5.565  1.00  0.00     0.221 C 
HETATM    9  C   UNL     1      42.532 -16.217   6.291  1.00  0.00     0.066 C 
HETATM   10  H   UNL     1      40.257 -16.574   3.871  1.00  0.00     0.161 HD
ENDROOT
BRANCH   7  11
HETATM   11  C   UNL     1      40.300 -14.418   1.873  1.00  0.00     0.275 C 
HETATM   12  N   UNL     1      39.100 -13.796   2.192  1.00  0.00    -0.263 N 
HETATM   13  H   UNL     1      38.447 -13.844   1.413  1.00  0.00     0.190 HD
HETATM   14  O   UNL     1      40.356 -15.072   0.830  1.00  0.00    -0.266 OA
BRANCH  12  15
HETATM   15  N   UNL     1      39.041 -12.591   2.922  1.00  0.00    -0.274 N 
HETATM   16  H   UNL     1      38.906 -12.672   3.926  1.00  0.00     0.189 HD
BRANCH  15  17
HETATM   17  C   UNL     1      38.938 -11.377   2.292  1.00  0.00     0.186 C 
HETATM   18  S   UNL     1      37.508 -10.601   1.898  1.00  0.00    -0.040 SA
BRANCH  17  19
HETATM   19  N   UNL     1      40.102 -10.747   1.974  1.00  0.00    -0.360 N 
HETATM   20  H   UNL     1      40.811 -10.799   2.696  1.00  0.00     0.162 HD
BRANCH  19  21
HETATM   21  C   UNL     1      40.511 -10.190   0.698  1.00  0.00     0.187 C 
BRANCH  21  22
HETATM   22  C   UNL     1      40.797 -11.285  -0.255  1.00  0.00     0.070 A 
HETATM   23  O   UNL     1      42.066 -11.787  -0.244  1.00  0.00    -0.325 OA
HETATM   24  C   UNL     1      42.110 -12.768  -1.183  1.00  0.00     0.142 A 
HETATM   25  C   UNL     1      40.886 -12.907  -1.793  1.00  0.00     0.027 A 
HETATM   26  C   UNL     1      40.035 -11.948  -1.196  1.00  0.00     0.036 A 
ENDBRANCH  21  22
ENDBRANCH  19  21
ENDBRANCH  17  19
ENDBRANCH  15  17
ENDBRANCH  12  15
ENDBRANCH   7  11
BRANCH   1  27
HETATM   27  C   UNL     1      42.593 -18.126   4.574  1.00  0.00    -0.035 A 
HETATM   28  C   UNL     1      42.500 -18.361   3.193  1.00  0.00     0.012 A 
HETATM   29  C   UNL     1      43.310 -19.313   2.567  1.00  0.00     0.037 A 
HETATM   30  C   UNL     1      44.231 -20.059   3.299  1.00  0.00     0.068 A 
HETATM   31  C   UNL     1      44.309 -19.871   4.676  1.00  0.00     0.037 A 
HETATM   32  C   UNL     1      43.493 -18.922   5.307  1.00  0.00     0.012 A 
BRANCH  30  33
HETATM   33  O   UNL     1      44.974 -20.940   2.564  1.00  0.00    -0.356 OA
HETATM   34  C   UNL     1      44.252 -21.872   1.769  1.00  0.00     0.210 C 
ENDBRANCH  30  33
ENDBRANCH   1  27
BRANCH   8  35
HETATM   35  C   UNL     1      44.047 -14.253   6.550  1.00  0.00     0.409 C 
HETATM   36  F   UNL     1      44.250 -14.777   7.779  1.00  0.00    -0.169 F 
HETATM   37  F   UNL     1      45.261 -13.808   6.119  1.00  0.00    -0.169 F 
HETATM   38  F   UNL     1      43.277 -13.153   6.678  1.00  0.00    -0.169 F 
ENDBRANCH   8  35
TORSDOF 9
ENDMDL
MODEL 6
REMARK VINA RESULT:      -7.9      3.516      7.495
REMARK  9 active torsions:
REMARK  status: ('A' for Active; 'I' for Inactive)
REMARK    1  A    between atoms: O_2  and  C_3 
REMARK    2  A    between atoms: C_6  and  C_7 
REMARK    3  A    between atoms: C_13  and  C_14 
REMARK       I    between atoms: C_14  and  N_15 
REMARK    4  A    between atoms: N_15  and  N_16 
REMARK    5  A    between atoms: N_16  and  C_17 
REMARK    6  A    between atoms: C_17  and  N_18 
REMARK    7  A    between atoms: N_18  and  C_19 
REMARK    8  A    between atoms: C_19  and  C_20 
REMARK    9  A    between atoms: C_27  and  C_28 
ROOT
HETATM    1  C   UNL     1      42.907 -13.341   4.148  1.00  0.00     0.118 C 
HETATM    2  N   UNL     1      42.395 -14.471   3.377  1.00  0.00    -0.365 N 
HETATM    3  C   UNL     1      41.965 -15.596   4.004  1.00  0.00     0.138 A 
HETATM    4  N   UNL     1      42.326 -15.854   5.302  1.00  0.00    -0.240 N 
HETATM    5  N   UNL     1      41.772 -16.971   5.797  1.00  0.00    -0.181 NA
HETATM    6  C   UNL     1      41.091 -17.459   4.755  1.00  0.00     0.160 A 
HETATM    7  C   UNL     1      41.148 -16.637   3.605  1.00  0.00     0.098 A 
HETATM    8  C   UNL     1      43.105 -14.942   6.122  1.00  0.00     0.221 C 
HETATM    9  C   UNL     1      43.837 -13.913   5.234  1.00  0.00     0.066 C 
HETATM   10  H   UNL     1      42.019 -14.247   2.452  1.00  0.00     0.161 HD
ENDROOT
BRANCH   7  11
HETATM   11  C   UNL     1      40.548 -16.787   2.291  1.00  0.00     0.275 C 
HETATM   12  N   UNL     1      41.136 -17.629   1.357  1.00  0.00    -0.263 N 
HETATM   13  H   UNL     1      40.534 -17.749   0.545  1.00  0.00     0.190 HD
HETATM   14  O   UNL     1      39.528 -16.178   1.963  1.00  0.00    -0.266 OA
BRANCH  12  15
HETATM   15  N   UNL     1      41.848 -18.790   1.724  1.00  0.00    -0.274 N 
HETATM   16  H   UNL     1      41.302 -19.558   2.105  1.00  0.00     0.189 HD
BRANCH  15  17
HETATM   17  C   UNL     1      43.219 -18.800   1.783  1.00  0.00     0.186 C 
HETATM   18  S   UNL     1      44.216 -17.485   1.512  1.00  0.00    -0.040 SA
BRANCH  17  19
HETATM   19  N   UNL     1      43.813 -19.983   2.104  1.00  0.00    -0.360 N 
HETATM   20  H   UNL     1      43.425 -20.785   1.621  1.00  0.00     0.162 HD
BRANCH  19  21
HETATM   21  C   UNL     1      45.015 -20.210   2.882  1.00  0.00     0.187 C 
BRANCH  21  22
HETATM   22  C   UNL     1      44.653 -20.515   4.284  1.00  0.00     0.070 A 
HETATM   23  O   UNL     1      44.161 -19.478   5.025  1.00  0.00    -0.325 OA
HETATM   24  C   UNL     1      43.896 -19.971   6.263  1.00  0.00     0.142 A 
HETATM   25  C   UNL     1      44.206 -21.309   6.327  1.00  0.00     0.027 A 
HETATM   26  C   UNL     1      44.697 -21.663   5.048  1.00  0.00     0.036 A 
ENDBRANCH  21  22
ENDBRANCH  19  21
ENDBRANCH  17  19
ENDBRANCH  15  17
ENDBRANCH  12  15
ENDBRANCH   7  11
BRANCH   1  27
HETATM   27  C   UNL     1      41.807 -12.436   4.696  1.00  0.00    -0.035 A 
HETATM   28  C   UNL     1      40.812 -11.871   3.883  1.00  0.00     0.012 A 
HETATM   29  C   UNL     1      39.811 -11.059   4.424  1.00  0.00     0.037 A 
HETATM   30  C   UNL     1      39.776 -10.785   5.790  1.00  0.00     0.068 A 
HETATM   31  C   UNL     1      40.777 -11.300   6.607  1.00  0.00     0.037 A 
HETATM   32  C   UNL     1      41.786 -12.109   6.064  1.00  0.00     0.012 A 
BRANCH  30  33
HETATM   33  O   UNL     1      38.735  -9.996   6.193  1.00  0.00    -0.356 OA
HETATM   34  C   UNL     1      39.073  -8.815   6.909  1.00  0.00     0.210 C 
ENDBRANCH  30  33
ENDBRANCH   1  27
BRANCH   8  35
HETATM   35  C   UNL     1      44.113 -15.673   6.981  1.00  0.00     0.409 C 
HETATM   36  F   UNL     1      44.718 -16.690   6.326  1.00  0.00    -0.169 F 
HETATM   37  F   UNL     1      45.104 -14.812   7.348  1.00  0.00    -0.169 F 
HETATM   38  F   UNL     1      43.599 -16.154   8.132  1.00  0.00    -0.169 F 
ENDBRANCH   8  35
TORSDOF 9
ENDMDL
MODEL 7
REMARK VINA RESULT:      -7.8      1.778      2.214
REMARK  9 active torsions:
REMARK  status: ('A' for Active; 'I' for Inactive)
REMARK    1  A    between atoms: O_2  and  C_3 
REMARK    2  A    between atoms: C_6  and  C_7 
REMARK    3  A    between atoms: C_13  and  C_14 
REMARK       I    between atoms: C_14  and  N_15 
REMARK    4  A    between atoms: N_15  and  N_16 
REMARK    5  A    between atoms: N_16  and  C_17 
REMARK    6  A    between atoms: C_17  and  N_18 
REMARK    7  A    between atoms: N_18  and  C_19 
REMARK    8  A    between atoms: C_19  and  C_20 
REMARK    9  A    between atoms: C_27  and  C_28 
ROOT
HETATM    1  C   UNL     1      40.875 -16.607   4.509  1.00  0.00     0.118 C 
HETATM    2  N   UNL     1      40.557 -16.098   3.177  1.00  0.00    -0.365 N 
HETATM    3  C   UNL     1      41.268 -15.072   2.643  1.00  0.00     0.138 A 
HETATM    4  N   UNL     1      42.032 -14.261   3.442  1.00  0.00    -0.240 N 
HETATM    5  N   UNL     1      42.721 -13.335   2.757  1.00  0.00    -0.181 NA
HETATM    6  C   UNL     1      42.326 -13.535   1.496  1.00  0.00     0.160 A 
HETATM    7  C   UNL     1      41.434 -14.623   1.346  1.00  0.00     0.098 A 
HETATM    8  C   UNL     1      42.210 -14.466   4.869  1.00  0.00     0.221 C 
HETATM    9  C   UNL     1      41.103 -15.388   5.421  1.00  0.00     0.066 C 
HETATM   10  H   UNL     1      40.089 -16.756   2.548  1.00  0.00     0.161 HD
ENDROOT
BRANCH   7  11
HETATM   11  C   UNL     1      40.791 -15.179   0.168  1.00  0.00     0.275 C 
HETATM   12  N   UNL     1      39.461 -14.885  -0.095  1.00  0.00    -0.263 N 
HETATM   13  H   UNL     1      39.190 -15.216  -1.018  1.00  0.00     0.190 HD
HETATM   14  O   UNL     1      41.388 -15.922  -0.614  1.00  0.00    -0.266 OA
BRANCH  12  15
HETATM   15  N   UNL     1      38.867 -13.660   0.276  1.00  0.00    -0.274 N 
HETATM   16  H   UNL     1      38.347 -13.650   1.148  1.00  0.00     0.189 HD
BRANCH  15  17
HETATM   17  C   UNL     1      38.796 -12.605  -0.600  1.00  0.00     0.186 C 
HETATM   18  S   UNL     1      39.834 -11.293  -0.631  1.00  0.00    -0.040 SA
BRANCH  17  19
HETATM   19  N   UNL     1      37.802 -12.642  -1.530  1.00  0.00    -0.360 N 
HETATM   20  H   UNL     1      36.877 -12.477  -1.152  1.00  0.00     0.162 HD
BRANCH  19  21
HETATM   21  C   UNL     1      37.916 -12.699  -2.974  1.00  0.00     0.187 C 
BRANCH  21  22
HETATM   22  C   UNL     1      38.354 -14.050  -3.388  1.00  0.00     0.070 A 
HETATM   23  O   UNL     1      39.687 -14.321  -3.269  1.00  0.00    -0.325 OA
HETATM   24  C   UNL     1      39.869 -15.598  -3.697  1.00  0.00     0.142 A 
HETATM   25  C   UNL     1      38.671 -16.152  -4.084  1.00  0.00     0.027 A 
HETATM   26  C   UNL     1      37.690 -15.153  -3.887  1.00  0.00     0.036 A 
ENDBRANCH  21  22
ENDBRANCH  19  21
ENDBRANCH  17  19
ENDBRANCH  15  17
ENDBRANCH  12  15
ENDBRANCH   7  11
BRANCH   1  27
HETATM   27  C   UNL     1      42.031 -17.603   4.514  1.00  0.00    -0.035 A 
HETATM   28  C   UNL     1      42.547 -18.176   3.341  1.00  0.00     0.012 A 
HETATM   29  C   UNL     1      43.618 -19.073   3.385  1.00  0.00     0.037 A 
HETATM   30  C   UNL     1      44.203 -19.426   4.599  1.00  0.00     0.068 A 
HETATM   31  C   UNL     1      43.679 -18.902   5.778  1.00  0.00     0.037 A 
HETATM   32  C   UNL     1      42.600 -18.008   5.736  1.00  0.00     0.012 A 
BRANCH  30  33
HETATM   33  O   UNL     1      45.253 -20.294   4.502  1.00  0.00    -0.356 OA
HETATM   34  C   UNL     1      44.993 -21.649   4.847  1.00  0.00     0.210 C 
ENDBRANCH  30  33
ENDBRANCH   1  27
BRANCH   8  35
HETATM   35  C   UNL     1      42.206 -13.161   5.633  1.00  0.00     0.409 C 
HETATM   36  F   UNL     1      42.287 -12.080   4.825  1.00  0.00    -0.169 F 
HETATM   37  F   UNL     1      41.033 -13.039   6.316  1.00  0.00    -0.169 F 
HETATM   38  F   UNL     1      43.182 -13.071   6.561  1.00  0.00    -0.169 F 
ENDBRANCH   8  35
TORSDOF 9
ENDMDL
MODEL 8
REMARK VINA RESULT:      -7.8      2.939      5.296
REMARK  9 active torsions:
REMARK  status: ('A' for Active; 'I' for Inactive)
REMARK    1  A    between atoms: O_2  and  C_3 
REMARK    2  A    between atoms: C_6  and  C_7 
REMARK    3  A    between atoms: C_13  and  C_14 
REMARK       I    between atoms: C_14  and  N_15 
REMARK    4  A    between atoms: N_15  and  N_16 
REMARK    5  A    between atoms: N_16  and  C_17 
REMARK    6  A    between atoms: C_17  and  N_18 
REMARK    7  A    between atoms: N_18  and  C_19 
REMARK    8  A    between atoms: C_19  and  C_20 
REMARK    9  A    between atoms: C_27  and  C_28 
ROOT
HETATM    1  C   UNL     1      41.830 -17.015   5.447  1.00  0.00     0.118 C 
HETATM    2  N   UNL     1      41.164 -16.045   4.582  1.00  0.00    -0.365 N 
HETATM    3  C   UNL     1      41.835 -14.960   4.116  1.00  0.00     0.138 A 
HETATM    4  N   UNL     1      42.999 -14.550   4.714  1.00  0.00    -0.240 N 
HETATM    5  N   UNL     1      43.573 -13.504   4.100  1.00  0.00    -0.181 NA
HETATM    6  C   UNL     1      42.707 -13.213   3.124  1.00  0.00     0.160 A 
HETATM    7  C   UNL     1      41.606 -14.099   3.059  1.00  0.00     0.098 A 
HETATM    8  C   UNL     1      43.641 -15.258   5.808  1.00  0.00     0.221 C 
HETATM    9  C   UNL     1      42.641 -16.219   6.486  1.00  0.00     0.066 C 
HETATM   10  H   UNL     1      40.364 -16.397   4.049  1.00  0.00     0.161 HD
ENDROOT
BRANCH   7  11
HETATM   11  C   UNL     1      40.469 -14.149   2.158  1.00  0.00     0.275 C 
HETATM   12  N   UNL     1      39.265 -13.567   2.533  1.00  0.00    -0.263 N 
HETATM   13  H   UNL     1      38.611 -13.548   1.754  1.00  0.00     0.190 HD
HETATM   14  O   UNL     1      40.527 -14.705   1.060  1.00  0.00    -0.266 OA
BRANCH  12  15
HETATM   15  N   UNL     1      39.199 -12.434   3.370  1.00  0.00    -0.274 N 
HETATM   16  H   UNL     1      38.870 -12.586   4.319  1.00  0.00     0.189 HD
BRANCH  15  17
HETATM   17  C   UNL     1      39.347 -11.164   2.869  1.00  0.00     0.186 C 
HETATM   18  S   UNL     1      39.093 -10.708   1.279  1.00  0.00    -0.040 SA
BRANCH  17  19
HETATM   19  N   UNL     1      39.721 -10.195   3.749  1.00  0.00    -0.360 N 
HETATM   20  H   UNL     1      38.945  -9.748   4.224  1.00  0.00     0.162 HD
BRANCH  19  21
HETATM   21  C   UNL     1      41.052  -9.860   4.216  1.00  0.00     0.187 C 
BRANCH  21  22
HETATM   22  C   UNL     1      41.164 -10.158   5.661  1.00  0.00     0.070 A 
HETATM   23  O   UNL     1      41.794  -9.221   6.429  1.00  0.00    -0.325 OA
HETATM   24  C   UNL     1      41.785  -9.688   7.705  1.00  0.00     0.142 A 
HETATM   25  C   UNL     1      41.155 -10.908   7.768  1.00  0.00     0.027 A 
HETATM   26  C   UNL     1      40.753 -11.215   6.447  1.00  0.00     0.036 A 
ENDBRANCH  21  22
ENDBRANCH  19  21
ENDBRANCH  17  19
ENDBRANCH  15  17
ENDBRANCH  12  15
ENDBRANCH   7  11
BRANCH   1  27
HETATM   27  C   UNL     1      42.656 -18.042   4.679  1.00  0.00    -0.035 A 
HETATM   28  C   UNL     1      43.655 -18.821   5.284  1.00  0.00     0.012 A 
HETATM   29  C   UNL     1      44.381 -19.763   4.550  1.00  0.00     0.037 A 
HETATM   30  C   UNL     1      44.133 -19.954   3.192  1.00  0.00     0.068 A 
HETATM   31  C   UNL     1      43.176 -19.163   2.564  1.00  0.00     0.037 A 
HETATM   32  C   UNL     1      42.453 -18.212   3.297  1.00  0.00     0.012 A 
BRANCH  30  33
HETATM   33  O   UNL     1      44.896 -20.919   2.597  1.00  0.00    -0.356 OA
HETATM   34  C   UNL     1      44.212 -21.843   1.759  1.00  0.00     0.210 C 
ENDBRANCH  30  33
ENDBRANCH   1  27
BRANCH   8  35
HETATM   35  C   UNL     1      44.208 -14.310   6.841  1.00  0.00     0.409 C 
HETATM   36  F   UNL     1      44.221 -14.839   8.085  1.00  0.00    -0.169 F 
HETATM   37  F   UNL     1      45.505 -14.027   6.533  1.00  0.00    -0.169 F 
HETATM   38  F   UNL     1      43.575 -13.120   6.892  1.00  0.00    -0.169 F 
ENDBRANCH   8  35
TORSDOF 9
ENDMDL
MODEL 9
REMARK VINA RESULT:      -7.8      2.726      3.704
REMARK  9 active torsions:
REMARK  status: ('A' for Active; 'I' for Inactive)
REMARK    1  A    between atoms: O_2  and  C_3 
REMARK    2  A    between atoms: C_6  and  C_7 
REMARK    3  A    between atoms: C_13  and  C_14 
REMARK       I    between atoms: C_14  and  N_15 
REMARK    4  A    between atoms: N_15  and  N_16 
REMARK    5  A    between atoms: N_16  and  C_17 
REMARK    6  A    between atoms: C_17  and  N_18 
REMARK    7  A    between atoms: N_18  and  C_19 
REMARK    8  A    between atoms: C_19  and  C_20 
REMARK    9  A    between atoms: C_27  and  C_28 
ROOT
HETATM    1  C   UNL     1      39.987 -16.148   2.035  1.00  0.00     0.118 C 
HETATM    2  N   UNL     1      40.070 -15.738   0.635  1.00  0.00    -0.365 N 
HETATM    3  C   UNL     1      40.870 -14.706   0.264  1.00  0.00     0.138 A 
HETATM    4  N   UNL     1      41.324 -13.805   1.193  1.00  0.00    -0.240 N 
HETATM    5  N   UNL     1      42.152 -12.883   0.680  1.00  0.00    -0.181 NA
HETATM    6  C   UNL     1      42.168 -13.181  -0.623  1.00  0.00     0.160 A 
HETATM    7  C   UNL     1      41.406 -14.326  -0.953  1.00  0.00     0.098 A 
HETATM    8  C   UNL     1      41.067 -13.913   2.619  1.00  0.00     0.221 C 
HETATM    9  C   UNL     1      39.880 -14.864   2.880  1.00  0.00     0.066 C 
HETATM   10  H   UNL     1      39.841 -16.459  -0.055  1.00  0.00     0.161 HD
ENDROOT
BRANCH   7  11
HETATM   11  C   UNL     1      41.173 -14.988  -2.224  1.00  0.00     0.275 C 
HETATM   12  N   UNL     1      41.201 -14.252  -3.401  1.00  0.00    -0.263 N 
HETATM   13  H   UNL     1      41.171 -14.863  -4.214  1.00  0.00     0.190 HD
HETATM   14  O   UNL     1      40.938 -16.196  -2.300  1.00  0.00    -0.266 OA
BRANCH  12  15
HETATM   15  N   UNL     1      42.019 -13.115  -3.564  1.00  0.00    -0.274 N 
HETATM   16  H   UNL     1      42.983 -13.197  -3.253  1.00  0.00     0.189 HD
BRANCH  15  17
HETATM   17  C   UNL     1      41.490 -11.896  -3.906  1.00  0.00     0.186 C 
HETATM   18  S   UNL     1      42.323 -10.445  -3.938  1.00  0.00    -0.040 SA
BRANCH  17  19
HETATM   19  N   UNL     1      40.176 -11.873  -4.262  1.00  0.00    -0.360 N 
HETATM   20  H   UNL     1      39.935 -12.530  -4.995  1.00  0.00     0.162 HD
BRANCH  19  21
HETATM   21  C   UNL     1      39.075 -11.184  -3.616  1.00  0.00     0.187 C 
BRANCH  21  22
HETATM   22  C   UNL     1      38.598 -11.979  -2.463  1.00  0.00     0.070 A 
HETATM   23  O   UNL     1      38.217 -13.264  -2.724  1.00  0.00    -0.325 OA
HETATM   24  C   UNL     1      37.820 -13.804  -1.542  1.00  0.00     0.142 A 
HETATM   25  C   UNL     1      37.944 -12.887  -0.526  1.00  0.00     0.027 A 
HETATM   26  C   UNL     1      38.445 -11.705  -1.119  1.00  0.00     0.036 A 
ENDBRANCH  21  22
ENDBRANCH  19  21
ENDBRANCH  17  19
ENDBRANCH  15  17
ENDBRANCH  12  15
ENDBRANCH   7  11
BRANCH   1  27
HETATM   27  C   UNL     1      41.124 -17.071   2.462  1.00  0.00    -0.035 A 
HETATM   28  C   UNL     1      41.894 -17.805   1.545  1.00  0.00     0.012 A 
HETATM   29  C   UNL     1      42.937 -18.629   1.974  1.00  0.00     0.037 A 
HETATM   30  C   UNL     1      43.242 -18.748   3.329  1.00  0.00     0.068 A 
HETATM   31  C   UNL     1      42.464 -18.062   4.257  1.00  0.00     0.037 A 
HETATM   32  C   UNL     1      41.412 -17.241   3.829  1.00  0.00     0.012 A 
BRANCH  30  33
HETATM   33  O   UNL     1      44.297 -19.568   3.612  1.00  0.00    -0.356 OA
HETATM   34  C   UNL     1      44.588 -20.583   2.660  1.00  0.00     0.210 C 
ENDBRANCH  30  33
ENDBRANCH   1  27
BRANCH   8  35
HETATM   35  C   UNL     1      40.781 -12.568   3.247  1.00  0.00     0.409 C 
HETATM   36  F   UNL     1      39.967 -11.799   2.489  1.00  0.00    -0.169 F 
HETATM   37  F   UNL     1      40.137 -12.750   4.434  1.00  0.00    -0.169 F 
HETATM   38  F   UNL     1      41.890 -11.856   3.536  1.00  0.00    -0.169 F 
ENDBRANCH   8  35
TORSDOF 9
ENDMDL
MODEL 10
REMARK VINA RESULT:      -7.7      2.642      5.640
REMARK  9 active torsions:
REMARK  status: ('A' for Active; 'I' for Inactive)
REMARK    1  A    between atoms: O_2  and  C_3 
REMARK    2  A    between atoms: C_6  and  C_7 
REMARK    3  A    between atoms: C_13  and  C_14 
REMARK       I    between atoms: C_14  and  N_15 
REMARK    4  A    between atoms: N_15  and  N_16 
REMARK    5  A    between atoms: N_16  and  C_17 
REMARK    6  A    between atoms: C_17  and  N_18 
REMARK    7  A    between atoms: N_18  and  C_19 
REMARK    8  A    between atoms: C_19  and  C_20 
REMARK    9  A    between atoms: C_27  and  C_28 
ROOT
HETATM    1  C   UNL     1      43.074 -13.591   3.908  1.00  0.00     0.118 C 
HETATM    2  N   UNL     1      42.852 -14.830   3.166  1.00  0.00    -0.365 N 
HETATM    3  C   UNL     1      42.461 -15.959   3.811  1.00  0.00     0.138 A 
HETATM    4  N   UNL     1      42.616 -16.077   5.169  1.00  0.00    -0.240 N 
HETATM    5  N   UNL     1      42.126 -17.224   5.663  1.00  0.00    -0.181 NA
HETATM    6  C   UNL     1      41.707 -17.870   4.570  1.00  0.00     0.160 A 
HETATM    7  C   UNL     1      41.864 -17.127   3.376  1.00  0.00     0.098 A 
HETATM    8  C   UNL     1      43.117 -15.014   6.023  1.00  0.00     0.221 C 
HETATM    9  C   UNL     1      43.860 -13.955   5.181  1.00  0.00     0.066 C 
HETATM   10  H   UNL     1      42.620 -14.721   2.175  1.00  0.00     0.161 HD
ENDROOT
BRANCH   7  11
HETATM   11  C   UNL     1      41.530 -17.446   1.999  1.00  0.00     0.275 C 
HETATM   12  N   UNL     1      40.279 -17.114   1.498  1.00  0.00    -0.263 N 
HETATM   13  H   UNL     1      40.239 -17.260   0.492  1.00  0.00     0.190 HD
HETATM   14  O   UNL     1      42.324 -18.018   1.249  1.00  0.00    -0.266 OA
BRANCH  12  15
HETATM   15  N   UNL     1      39.556 -15.989   1.947  1.00  0.00    -0.274 N 
HETATM   16  H   UNL     1      39.096 -16.072   2.848  1.00  0.00     0.189 HD
BRANCH  15  17
HETATM   17  C   UNL     1      39.294 -14.929   1.116  1.00  0.00     0.186 C 
HETATM   18  S   UNL     1      37.834 -14.119   0.999  1.00  0.00    -0.040 SA
BRANCH  17  19
HETATM   19  N   UNL     1      40.318 -14.493   0.330  1.00  0.00    -0.360 N 
HETATM   20  H   UNL     1      41.076 -14.058   0.844  1.00  0.00     0.162 HD
BRANCH  19  21
HETATM   21  C   UNL     1      40.541 -14.735  -1.082  1.00  0.00     0.187 C 
BRANCH  21  22
HETATM   22  C   UNL     1      41.424 -13.685  -1.634  1.00  0.00     0.070 A 
HETATM   23  O   UNL     1      41.976 -12.818  -0.735  1.00  0.00    -0.325 OA
HETATM   24  C   UNL     1      42.742 -11.948  -1.446  1.00  0.00     0.142 A 
HETATM   25  C   UNL     1      42.693 -12.247  -2.787  1.00  0.00     0.027 A 
HETATM   26  C   UNL     1      41.841 -13.369  -2.912  1.00  0.00     0.036 A 
ENDBRANCH  21  22
ENDBRANCH  19  21
ENDBRANCH  17  19
ENDBRANCH  15  17
ENDBRANCH  12  15
ENDBRANCH   7  11
BRANCH   1  27
HETATM   27  C   UNL     1      41.790 -12.812   4.181  1.00  0.00    -0.035 A 
HETATM   28  C   UNL     1      41.433 -12.359   5.461  1.00  0.00     0.012 A 
HETATM   29  C   UNL     1      40.256 -11.635   5.669  1.00  0.00     0.037 A 
HETATM   30  C   UNL     1      39.400 -11.345   4.609  1.00  0.00     0.068 A 
HETATM   31  C   UNL     1      39.714 -11.821   3.339  1.00  0.00     0.037 A 
HETATM   32  C   UNL     1      40.891 -12.554   3.130  1.00  0.00     0.012 A 
BRANCH  30  33
HETATM   33  O   UNL     1      38.296 -10.613   4.943  1.00  0.00    -0.356 OA
HETATM   34  C   UNL     1      38.141  -9.360   4.288  1.00  0.00     0.210 C 
ENDBRANCH  30  33
ENDBRANCH   1  27
BRANCH   8  35
HETATM   35  C   UNL     1      44.040 -15.539   7.099  1.00  0.00     0.409 C 
HETATM   36  F   UNL     1      44.970 -16.395   6.619  1.00  0.00    -0.169 F 
HETATM   37  F   UNL     1      44.727 -14.501   7.653  1.00  0.00    -0.169 F 
HETATM   38  F   UNL     1      43.396 -16.141   8.121  1.00  0.00    -0.169 F 
ENDBRANCH   8  35
TORSDOF 9
ENDMDL
