MODEL 1
REMARK VINA RESULT:      -7.8      0.000      0.000
REMARK  4 active torsions:
REMARK  status: ('A' for Active; 'I' for Inactive)
REMARK    1  A    between atoms: O_2  and  C_3 
REMARK    2  A    between atoms: C_4  and  C_5 
REMARK    3  A    between atoms: C_9  and  N_10 
REMARK    4  A    between atoms: C_13  and  C_14 
ROOT
HETATM    1  C   UNL     1      42.858 -14.921   2.615  1.00  0.00     0.167 C 
HETATM    2  N   UNL     1      42.213 -15.187   1.336  1.00  0.00    -0.074 N 
HETATM    3  C   UNL     1      41.892 -16.435   0.873  1.00  0.00     0.736 A 
HETATM    4  N   UNL     1      41.290 -16.315  -0.281  1.00  0.00     0.131 NA
HETATM    5  C   UNL     1      41.312 -14.968  -0.501  1.00  0.00     0.753 A 
HETATM    6  N   UNL     1      41.851 -14.229   0.464  1.00  0.00     0.037 NA
HETATM    7  N   UNL     1      42.198 -17.543   1.576  1.00  0.00    -0.214 N 
HETATM    8  C   UNL     1      42.606 -17.427   2.973  1.00  0.00     0.135 C 
HETATM    9  C   UNL     1      43.523 -16.203   3.155  1.00  0.00     0.063 C 
HETATM   10  H   UNL     1      41.730 -18.406   1.311  1.00  0.00     0.178 HD
ENDROOT
BRANCH   1  11
HETATM   11  C   UNL     1      41.903 -14.299   3.630  1.00  0.00     0.001 A 
HETATM   12  C   UNL     1      42.414 -13.547   4.701  1.00  0.00     0.076 A 
HETATM   13  C   UNL     1      41.569 -13.024   5.685  1.00  0.00     0.037 A 
HETATM   14  C   UNL     1      40.191 -13.213   5.594  1.00  0.00     0.003 A 
HETATM   15  C   UNL     1      39.662 -13.932   4.527  1.00  0.00     0.001 A 
HETATM   16  C   UNL     1      40.508 -14.474   3.556  1.00  0.00     0.012 A 
BRANCH  12  17
HETATM   17  O   UNL     1      43.773 -13.391   4.804  1.00  0.00    -0.355 OA
HETATM   18  C   UNL     1      44.270 -13.947   6.024  1.00  0.00     0.210 C 
ENDBRANCH  12  17
ENDBRANCH   1  11
BRANCH   8  19
HETATM   19  C   UNL     1      43.301 -18.700   3.425  1.00  0.00    -0.035 A 
HETATM   20  C   UNL     1      43.661 -19.710   2.515  1.00  0.00     0.010 A 
HETATM   21  C   UNL     1      44.304 -20.871   2.954  1.00  0.00     0.019 A 
HETATM   22  C   UNL     1      44.604 -21.026   4.305  1.00  0.00     0.011 A 
HETATM   23 BR   UNL     1      45.473 -22.597   4.899  1.00  0.00    -0.051 Br
HETATM   24  C   UNL     1      44.272 -20.031   5.219  1.00  0.00     0.019 A 
HETATM   25  C   UNL     1      43.624 -18.872   4.781  1.00  0.00     0.010 A 
ENDBRANCH   8  19
BRANCH   5  26
HETATM   26  N   UNL     1      40.772 -14.499  -1.622  1.00  0.00    -0.229 N 
HETATM   27  H   UNL     1      39.936 -13.940  -1.525  1.00  0.00     0.174 HD
HETATM   28  H   UNL     1      41.410 -14.195  -2.344  1.00  0.00     0.174 HD
ENDBRANCH   5  26
TORSDOF 4
ENDMDL
MODEL 2
REMARK VINA RESULT:      -7.8      2.914      4.521
REMARK  4 active torsions:
REMARK  status: ('A' for Active; 'I' for Inactive)
REMARK    1  A    between atoms: O_2  and  C_3 
REMARK    2  A    between atoms: C_4  and  C_5 
REMARK    3  A    between atoms: C_9  and  N_10 
REMARK    4  A    between atoms: C_13  and  C_14 
ROOT
HETATM    1  C   UNL     1      40.660 -14.843   3.302  1.00  0.00     0.167 C 
HETATM    2  N   UNL     1      41.364 -14.228   4.420  1.00  0.00    -0.074 N 
HETATM    3  C   UNL     1      42.540 -14.693   4.946  1.00  0.00     0.736 A 
HETATM    4  N   UNL     1      42.919 -13.890   5.905  1.00  0.00     0.131 NA
HETATM    5  C   UNL     1      41.909 -12.974   5.957  1.00  0.00     0.753 A 
HETATM    6  N   UNL     1      40.940 -13.125   5.059  1.00  0.00     0.037 NA
HETATM    7  N   UNL     1      43.125 -15.811   4.474  1.00  0.00    -0.214 N 
HETATM    8  C   UNL     1      42.683 -16.383   3.207  1.00  0.00     0.135 C 
HETATM    9  C   UNL     1      41.149 -16.290   3.092  1.00  0.00     0.063 C 
HETATM   10  H   UNL     1      44.097 -15.970   4.728  1.00  0.00     0.178 HD
ENDROOT
BRANCH   1  11
HETATM   11  C   UNL     1      40.760 -14.014   2.025  1.00  0.00     0.001 A 
HETATM   12  C   UNL     1      39.670 -13.958   1.141  1.00  0.00     0.076 A 
HETATM   13  C   UNL     1      39.756 -13.263  -0.070  1.00  0.00     0.037 A 
HETATM   14  C   UNL     1      40.924 -12.580  -0.401  1.00  0.00     0.003 A 
HETATM   15  C   UNL     1      42.008 -12.600   0.473  1.00  0.00     0.001 A 
HETATM   16  C   UNL     1      41.929 -13.313   1.672  1.00  0.00     0.012 A 
BRANCH  12  17
HETATM   17  O   UNL     1      38.533 -14.657   1.456  1.00  0.00    -0.355 OA
HETATM   18  C   UNL     1      37.389 -14.122   0.785  1.00  0.00     0.210 C 
ENDBRANCH  12  17
ENDBRANCH   1  11
BRANCH   8  19
HETATM   19  C   UNL     1      43.151 -17.825   3.089  1.00  0.00    -0.035 A 
HETATM   20  C   UNL     1      42.832 -18.617   1.972  1.00  0.00     0.010 A 
HETATM   21  C   UNL     1      43.277 -19.938   1.884  1.00  0.00     0.019 A 
HETATM   22  C   UNL     1      44.056 -20.475   2.906  1.00  0.00     0.011 A 
HETATM   23 BR   UNL     1      44.657 -22.264   2.788  1.00  0.00    -0.051 Br
HETATM   24  C   UNL     1      44.397 -19.702   4.012  1.00  0.00     0.019 A 
HETATM   25  C   UNL     1      43.947 -18.382   4.102  1.00  0.00     0.010 A 
ENDBRANCH   8  19
BRANCH   5  26
HETATM   26  N   UNL     1      41.983 -11.996   6.855  1.00  0.00    -0.229 N 
HETATM   27  H   UNL     1      42.790 -11.997   7.464  1.00  0.00     0.174 HD
HETATM   28  H   UNL     1      41.665 -11.083   6.562  1.00  0.00     0.174 HD
ENDBRANCH   5  26
TORSDOF 4
ENDMDL
MODEL 3
REMARK VINA RESULT:      -7.6      4.187      7.499
REMARK  4 active torsions:
REMARK  status: ('A' for Active; 'I' for Inactive)
REMARK    1  A    between atoms: O_2  and  C_3 
REMARK    2  A    between atoms: C_4  and  C_5 
REMARK    3  A    between atoms: C_9  and  N_10 
REMARK    4  A    between atoms: C_13  and  C_14 
ROOT
HETATM    1  C   UNL     1      44.423 -18.216   4.844  1.00  0.00     0.167 C 
HETATM    2  N   UNL     1      44.045 -18.191   6.251  1.00  0.00    -0.074 N 
HETATM    3  C   UNL     1      42.831 -17.769   6.721  1.00  0.00     0.736 A 
HETATM    4  N   UNL     1      42.807 -17.915   8.020  1.00  0.00     0.131 NA
HETATM    5  C   UNL     1      44.057 -18.387   8.299  1.00  0.00     0.753 A 
HETATM    6  N   UNL     1      44.851 -18.589   7.251  1.00  0.00     0.037 NA
HETATM    7  N   UNL     1      41.883 -17.295   5.889  1.00  0.00    -0.214 N 
HETATM    8  C   UNL     1      42.015 -17.496   4.449  1.00  0.00     0.135 C 
HETATM    9  C   UNL     1      43.483 -17.311   4.022  1.00  0.00     0.063 C 
HETATM   10  H   UNL     1      40.936 -17.229   6.252  1.00  0.00     0.178 HD
ENDROOT
BRANCH   1  11
HETATM   11  C   UNL     1      44.487 -19.634   4.284  1.00  0.00     0.001 A 
HETATM   12  C   UNL     1      44.445 -19.839   2.894  1.00  0.00     0.076 A 
HETATM   13  C   UNL     1      44.431 -21.128   2.354  1.00  0.00     0.037 A 
HETATM   14  C   UNL     1      44.498 -22.238   3.195  1.00  0.00     0.003 A 
HETATM   15  C   UNL     1      44.567 -22.057   4.573  1.00  0.00     0.001 A 
HETATM   16  C   UNL     1      44.558 -20.768   5.114  1.00  0.00     0.012 A 
BRANCH  12  17
HETATM   17  O   UNL     1      44.347 -18.745   2.072  1.00  0.00    -0.355 OA
HETATM   18  C   UNL     1      43.299 -18.906   1.113  1.00  0.00     0.210 C 
ENDBRANCH  12  17
ENDBRANCH   1  11
BRANCH   8  19
HETATM   19  C   UNL     1      41.104 -16.538   3.699  1.00  0.00    -0.035 A 
HETATM   20  C   UNL     1      40.751 -15.284   4.229  1.00  0.00     0.010 A 
HETATM   21  C   UNL     1      39.916 -14.418   3.519  1.00  0.00     0.019 A 
HETATM   22  C   UNL     1      39.437 -14.793   2.267  1.00  0.00     0.011 A 
HETATM   23 BR   UNL     1      38.305 -13.622   1.306  1.00  0.00    -0.051 Br
HETATM   24  C   UNL     1      39.787 -16.022   1.717  1.00  0.00     0.019 A 
HETATM   25  C   UNL     1      40.619 -16.891   2.429  1.00  0.00     0.010 A 
ENDBRANCH   8  19
BRANCH   5  26
HETATM   26  N   UNL     1      44.373 -18.641   9.566  1.00  0.00    -0.229 N 
HETATM   27  H   UNL     1      43.605 -18.741  10.215  1.00  0.00     0.174 HD
HETATM   28  H   UNL     1      45.156 -19.260   9.726  1.00  0.00     0.174 HD
ENDBRANCH   5  26
TORSDOF 4
ENDMDL
MODEL 4
REMARK VINA RESULT:      -7.6      2.565      4.450
REMARK  4 active torsions:
REMARK  status: ('A' for Active; 'I' for Inactive)
REMARK    1  A    between atoms: O_2  and  C_3 
REMARK    2  A    between atoms: C_4  and  C_5 
REMARK    3  A    between atoms: C_9  and  N_10 
REMARK    4  A    between atoms: C_13  and  C_14 
ROOT
HETATM    1  C   UNL     1      40.353 -15.072   2.480  1.00  0.00     0.167 C 
HETATM    2  N   UNL     1      41.075 -14.006   3.163  1.00  0.00    -0.074 N 
HETATM    3  C   UNL     1      42.330 -14.135   3.693  1.00  0.00     0.736 A 
HETATM    4  N   UNL     1      42.697 -12.985   4.193  1.00  0.00     0.131 NA
HETATM    5  C   UNL     1      41.604 -12.195   3.984  1.00  0.00     0.753 A 
HETATM    6  N   UNL     1      40.588 -12.766   3.343  1.00  0.00     0.037 NA
HETATM    7  N   UNL     1      42.991 -15.308   3.652  1.00  0.00    -0.214 N 
HETATM    8  C   UNL     1      42.513 -16.382   2.787  1.00  0.00     0.135 C 
HETATM    9  C   UNL     1      40.974 -16.441   2.822  1.00  0.00     0.063 C 
HETATM   10  H   UNL     1      43.991 -15.286   3.835  1.00  0.00     0.178 HD
ENDROOT
BRANCH   1  11
HETATM   11  C   UNL     1      40.265 -14.843   0.974  1.00  0.00     0.001 A 
HETATM   12  C   UNL     1      39.147 -14.187   0.432  1.00  0.00     0.076 A 
HETATM   13  C   UNL     1      39.005 -14.023  -0.950  1.00  0.00     0.037 A 
HETATM   14  C   UNL     1      39.999 -14.481  -1.812  1.00  0.00     0.003 A 
HETATM   15  C   UNL     1      41.127 -15.110  -1.294  1.00  0.00     0.001 A 
HETATM   16  C   UNL     1      41.258 -15.294   0.085  1.00  0.00     0.012 A 
BRANCH  12  17
HETATM   17  O   UNL     1      38.156 -13.766   1.282  1.00  0.00    -0.355 OA
HETATM   18  C   UNL     1      37.256 -12.868   0.629  1.00  0.00     0.210 C 
ENDBRANCH  12  17
ENDBRANCH   1  11
BRANCH   8  19
HETATM   19  C   UNL     1      43.119 -17.709   3.211  1.00  0.00    -0.035 A 
HETATM   20  C   UNL     1      43.382 -18.733   2.284  1.00  0.00     0.010 A 
HETATM   21  C   UNL     1      43.944 -19.943   2.697  1.00  0.00     0.019 A 
HETATM   22  C   UNL     1      44.260 -20.136   4.040  1.00  0.00     0.011 A 
HETATM   23 BR   UNL     1      45.019 -21.775   4.600  1.00  0.00    -0.051 Br
HETATM   24  C   UNL     1      44.023 -19.129   4.971  1.00  0.00     0.019 A 
HETATM   25  C   UNL     1      43.457 -17.920   4.558  1.00  0.00     0.010 A 
ENDBRANCH   8  19
BRANCH   5  26
HETATM   26  N   UNL     1      41.645 -10.930   4.393  1.00  0.00    -0.229 N 
HETATM   27  H   UNL     1      41.149 -10.254   3.830  1.00  0.00     0.174 HD
HETATM   28  H   UNL     1      41.605 -10.772   5.390  1.00  0.00     0.174 HD
ENDBRANCH   5  26
TORSDOF 4
ENDMDL
MODEL 5
REMARK VINA RESULT:      -7.4      2.918      5.196
REMARK  4 active torsions:
REMARK  status: ('A' for Active; 'I' for Inactive)
REMARK    1  A    between atoms: O_2  and  C_3 
REMARK    2  A    between atoms: C_4  and  C_5 
REMARK    3  A    between atoms: C_9  and  N_10 
REMARK    4  A    between atoms: C_13  and  C_14 
ROOT
HETATM    1  C   UNL     1      40.228 -14.483   0.363  1.00  0.00     0.167 C 
HETATM    2  N   UNL     1      39.851 -13.711   1.540  1.00  0.00    -0.074 N 
HETATM    3  C   UNL     1      40.410 -13.864   2.781  1.00  0.00     0.736 A 
HETATM    4  N   UNL     1      39.877 -12.993   3.595  1.00  0.00     0.131 NA
HETATM    5  C   UNL     1      38.957 -12.361   2.809  1.00  0.00     0.753 A 
HETATM    6  N   UNL     1      38.910 -12.751   1.538  1.00  0.00     0.037 NA
HETATM    7  N   UNL     1      41.353 -14.798   3.014  1.00  0.00    -0.214 N 
HETATM    8  C   UNL     1      42.010 -15.463   1.893  1.00  0.00     0.135 C 
HETATM    9  C   UNL     1      40.985 -15.760   0.781  1.00  0.00     0.063 C 
HETATM   10  H   UNL     1      41.897 -14.707   3.868  1.00  0.00     0.178 HD
ENDROOT
BRANCH   1  11
HETATM   11  C   UNL     1      41.017 -13.655  -0.647  1.00  0.00     0.001 A 
HETATM   12  C   UNL     1      40.837 -13.875  -2.023  1.00  0.00     0.076 A 
HETATM   13  C   UNL     1      41.595 -13.181  -2.971  1.00  0.00     0.037 A 
HETATM   14  C   UNL     1      42.522 -12.225  -2.560  1.00  0.00     0.003 A 
HETATM   15  C   UNL     1      42.696 -11.972  -1.202  1.00  0.00     0.001 A 
HETATM   16  C   UNL     1      41.955 -12.682  -0.254  1.00  0.00     0.012 A 
BRANCH  12  17
HETATM   17  O   UNL     1      39.947 -14.840  -2.422  1.00  0.00    -0.355 OA
HETATM   18  C   UNL     1      40.607 -15.903  -3.115  1.00  0.00     0.210 C 
ENDBRANCH  12  17
ENDBRANCH   1  11
BRANCH   8  19
HETATM   19  C   UNL     1      42.688 -16.739   2.363  1.00  0.00    -0.035 A 
HETATM   20  C   UNL     1      42.585 -17.187   3.692  1.00  0.00     0.010 A 
HETATM   21  C   UNL     1      43.214 -18.366   4.100  1.00  0.00     0.019 A 
HETATM   22  C   UNL     1      43.942 -19.115   3.178  1.00  0.00     0.011 A 
HETATM   23 BR   UNL     1      44.795 -20.710   3.730  1.00  0.00    -0.051 Br
HETATM   24  C   UNL     1      44.043 -18.699   1.854  1.00  0.00     0.019 A 
HETATM   25  C   UNL     1      43.417 -17.517   1.447  1.00  0.00     0.010 A 
ENDBRANCH   8  19
BRANCH   5  26
HETATM   26  N   UNL     1      38.215 -11.397   3.347  1.00  0.00    -0.229 N 
HETATM   27  H   UNL     1      38.345 -10.465   2.980  1.00  0.00     0.174 HD
HETATM   28  H   UNL     1      37.264 -11.635   3.591  1.00  0.00     0.174 HD
ENDBRANCH   5  26
TORSDOF 4
ENDMDL
MODEL 6
REMARK VINA RESULT:      -7.4      3.617      6.111
REMARK  4 active torsions:
REMARK  status: ('A' for Active; 'I' for Inactive)
REMARK    1  A    between atoms: O_2  and  C_3 
REMARK    2  A    between atoms: C_4  and  C_5 
REMARK    3  A    between atoms: C_9  and  N_10 
REMARK    4  A    between atoms: C_13  and  C_14 
ROOT
HETATM    1  C   UNL     1      41.999 -17.291   4.358  1.00  0.00     0.167 C 
HETATM    2  N   UNL     1      42.822 -18.166   3.533  1.00  0.00    -0.074 N 
HETATM    3  C   UNL     1      42.997 -18.021   2.183  1.00  0.00     0.736 A 
HETATM    4  N   UNL     1      43.823 -18.942   1.762  1.00  0.00     0.131 NA
HETATM    5  C   UNL     1      44.086 -19.658   2.894  1.00  0.00     0.753 A 
HETATM    6  N   UNL     1      43.512 -19.217   4.009  1.00  0.00     0.037 NA
HETATM    7  N   UNL     1      42.368 -17.048   1.495  1.00  0.00    -0.214 N 
HETATM    8  C   UNL     1      41.724 -15.951   2.212  1.00  0.00     0.135 C 
HETATM    9  C   UNL     1      41.023 -16.487   3.476  1.00  0.00     0.063 C 
HETATM   10  H   UNL     1      42.715 -16.836   0.563  1.00  0.00     0.178 HD
ENDROOT
BRANCH   1  11
HETATM   11  C   UNL     1      42.835 -16.387   5.259  1.00  0.00     0.001 A 
HETATM   12  C   UNL     1      43.175 -16.813   6.554  1.00  0.00     0.076 A 
HETATM   13  C   UNL     1      43.881 -15.979   7.428  1.00  0.00     0.037 A 
HETATM   14  C   UNL     1      44.291 -14.716   7.007  1.00  0.00     0.003 A 
HETATM   15  C   UNL     1      43.988 -14.284   5.719  1.00  0.00     0.001 A 
HETATM   16  C   UNL     1      43.263 -15.109   4.854  1.00  0.00     0.012 A 
BRANCH  12  17
HETATM   17  O   UNL     1      42.742 -18.045   6.975  1.00  0.00    -0.355 OA
HETATM   18  C   UNL     1      43.766 -18.741   7.690  1.00  0.00     0.210 C 
ENDBRANCH  12  17
ENDBRANCH   1  11
BRANCH   8  19
HETATM   19  C   UNL     1      40.737 -15.237   1.304  1.00  0.00    -0.035 A 
HETATM   20  C   UNL     1      39.455 -14.867   1.749  1.00  0.00     0.010 A 
HETATM   21  C   UNL     1      38.567 -14.206   0.897  1.00  0.00     0.019 A 
HETATM   22  C   UNL     1      38.957 -13.898  -0.404  1.00  0.00     0.011 A 
HETATM   23 BR   UNL     1      37.754 -13.006  -1.558  1.00  0.00    -0.051 Br
HETATM   24  C   UNL     1      40.226 -14.241  -0.859  1.00  0.00     0.019 A 
HETATM   25  C   UNL     1      41.114 -14.906  -0.008  1.00  0.00     0.010 A 
ENDBRANCH   8  19
BRANCH   5  26
HETATM   26  N   UNL     1      44.909 -20.700   2.810  1.00  0.00    -0.229 N 
HETATM   27  H   UNL     1      44.488 -21.599   2.626  1.00  0.00     0.174 HD
HETATM   28  H   UNL     1      45.801 -20.542   2.361  1.00  0.00     0.174 HD
ENDBRANCH   5  26
TORSDOF 4
ENDMDL
MODEL 7
REMARK VINA RESULT:      -7.3      3.663      6.786
REMARK  4 active torsions:
REMARK  status: ('A' for Active; 'I' for Inactive)
REMARK    1  A    between atoms: O_2  and  C_3 
REMARK    2  A    between atoms: C_4  and  C_5 
REMARK    3  A    between atoms: C_9  and  N_10 
REMARK    4  A    between atoms: C_13  and  C_14 
ROOT
HETATM    1  C   UNL     1      43.366 -16.921   3.340  1.00  0.00     0.167 C 
HETATM    2  N   UNL     1      42.210 -16.676   4.192  1.00  0.00    -0.074 N 
HETATM    3  C   UNL     1      41.021 -16.157   3.756  1.00  0.00     0.736 A 
HETATM    4  N   UNL     1      40.188 -16.107   4.762  1.00  0.00     0.131 NA
HETATM    5  C   UNL     1      40.939 -16.565   5.806  1.00  0.00     0.753 A 
HETATM    6  N   UNL     1      42.179 -16.942   5.510  1.00  0.00     0.037 NA
HETATM    7  N   UNL     1      40.845 -15.788   2.472  1.00  0.00    -0.214 N 
HETATM    8  C   UNL     1      41.809 -16.205   1.459  1.00  0.00     0.135 C 
HETATM    9  C   UNL     1      43.240 -16.124   2.026  1.00  0.00     0.063 C 
HETATM   10  H   UNL     1      39.890 -15.643   2.156  1.00  0.00     0.178 HD
ENDROOT
BRANCH   1  11
HETATM   11  C   UNL     1      43.599 -18.407   3.087  1.00  0.00     0.001 A 
HETATM   12  C   UNL     1      44.389 -19.152   3.979  1.00  0.00     0.076 A 
HETATM   13  C   UNL     1      44.677 -20.500   3.738  1.00  0.00     0.037 A 
HETATM   14  C   UNL     1      44.147 -21.136   2.618  1.00  0.00     0.003 A 
HETATM   15  C   UNL     1      43.340 -20.424   1.736  1.00  0.00     0.001 A 
HETATM   16  C   UNL     1      43.071 -19.072   1.965  1.00  0.00     0.012 A 
BRANCH  12  17
HETATM   17  O   UNL     1      44.934 -18.513   5.064  1.00  0.00    -0.355 OA
HETATM   18  C   UNL     1      44.572 -19.162   6.286  1.00  0.00     0.210 C 
ENDBRANCH  12  17
ENDBRANCH   1  11
BRANCH   8  19
HETATM   19  C   UNL     1      41.668 -15.345   0.214  1.00  0.00    -0.035 A 
HETATM   20  C   UNL     1      41.964 -13.970   0.225  1.00  0.00     0.010 A 
HETATM   21  C   UNL     1      41.830 -13.202  -0.933  1.00  0.00     0.019 A 
HETATM   22  C   UNL     1      41.412 -13.803  -2.118  1.00  0.00     0.011 A 
HETATM   23 BR   UNL     1      41.229 -12.763  -3.686  1.00  0.00    -0.051 Br
HETATM   24  C   UNL     1      41.130 -15.165  -2.155  1.00  0.00     0.019 A 
HETATM   25  C   UNL     1      41.259 -15.934  -0.994  1.00  0.00     0.010 A 
ENDBRANCH   8  19
BRANCH   5  26
HETATM   26  N   UNL     1      40.379 -16.635   7.010  1.00  0.00    -0.229 N 
HETATM   27  H   UNL     1      40.394 -17.536   7.468  1.00  0.00     0.174 HD
HETATM   28  H   UNL     1      40.508 -15.840   7.621  1.00  0.00     0.174 HD
ENDBRANCH   5  26
TORSDOF 4
ENDMDL
MODEL 8
REMARK VINA RESULT:      -7.0      4.264      7.438
REMARK  4 active torsions:
REMARK  status: ('A' for Active; 'I' for Inactive)
REMARK    1  A    between atoms: O_2  and  C_3 
REMARK    2  A    between atoms: C_4  and  C_5 
REMARK    3  A    between atoms: C_9  and  N_10 
REMARK    4  A    between atoms: C_13  and  C_14 
ROOT
HETATM    1  C   UNL     1      44.090 -16.804   4.949  1.00  0.00     0.167 C 
HETATM    2  N   UNL     1      43.830 -17.248   6.312  1.00  0.00    -0.074 N 
HETATM    3  C   UNL     1      42.714 -16.923   7.035  1.00  0.00     0.736 A 
HETATM    4  N   UNL     1      42.775 -17.516   8.197  1.00  0.00     0.131 NA
HETATM    5  C   UNL     1      43.980 -18.157   8.152  1.00  0.00     0.753 A 
HETATM    6  N   UNL     1      44.659 -18.039   7.015  1.00  0.00     0.037 NA
HETATM    7  N   UNL     1      41.765 -16.109   6.531  1.00  0.00    -0.214 N 
HETATM    8  C   UNL     1      41.758 -15.798   5.105  1.00  0.00     0.135 C 
HETATM    9  C   UNL     1      43.200 -15.594   4.602  1.00  0.00     0.063 C 
HETATM   10  H   UNL     1      40.863 -16.098   7.001  1.00  0.00     0.178 HD
ENDROOT
BRANCH   1  11
HETATM   11  C   UNL     1      43.944 -17.932   3.932  1.00  0.00     0.001 A 
HETATM   12  C   UNL     1      43.718 -17.629   2.579  1.00  0.00     0.076 A 
HETATM   13  C   UNL     1      43.511 -18.640   1.636  1.00  0.00     0.037 A 
HETATM   14  C   UNL     1      43.563 -19.977   2.024  1.00  0.00     0.003 A 
HETATM   15  C   UNL     1      43.812 -20.301   3.354  1.00  0.00     0.001 A 
HETATM   16  C   UNL     1      43.996 -19.290   4.301  1.00  0.00     0.012 A 
BRANCH  12  17
HETATM   17  O   UNL     1      43.636 -16.311   2.207  1.00  0.00    -0.355 OA
HETATM   18  C   UNL     1      42.717 -16.131   1.126  1.00  0.00     0.210 C 
ENDBRANCH  12  17
ENDBRANCH   1  11
BRANCH   8  19
HETATM   19  C   UNL     1      40.910 -14.565   4.840  1.00  0.00    -0.035 A 
HETATM   20  C   UNL     1      40.256 -13.879   5.878  1.00  0.00     0.010 A 
HETATM   21  C   UNL     1      39.485 -12.745   5.611  1.00  0.00     0.019 A 
HETATM   22  C   UNL     1      39.370 -12.280   4.303  1.00  0.00     0.011 A 
HETATM   23 BR   UNL     1      38.325 -10.747   3.940  1.00  0.00    -0.051 Br
HETATM   24  C   UNL     1      40.022 -12.935   3.262  1.00  0.00     0.019 A 
HETATM   25  C   UNL     1      40.790 -14.072   3.530  1.00  0.00     0.010 A 
ENDBRANCH   8  19
BRANCH   5  26
HETATM   26  N   UNL     1      44.362 -18.867   9.209  1.00  0.00    -0.229 N 
HETATM   27  H   UNL     1      43.665 -19.459   9.637  1.00  0.00     0.174 HD
HETATM   28  H   UNL     1      45.297 -19.251   9.187  1.00  0.00     0.174 HD
ENDBRANCH   5  26
TORSDOF 4
ENDMDL
MODEL 9
REMARK VINA RESULT:      -6.9      3.557      5.540
REMARK  4 active torsions:
REMARK  status: ('A' for Active; 'I' for Inactive)
REMARK    1  A    between atoms: O_2  and  C_3 
REMARK    2  A    between atoms: C_4  and  C_5 
REMARK    3  A    between atoms: C_9  and  N_10 
REMARK    4  A    between atoms: C_13  and  C_14 
ROOT
HETATM    1  C   UNL     1      40.464 -13.914  -1.225  1.00  0.00     0.167 C 
HETATM    2  N   UNL     1      39.335 -13.674  -0.335  1.00  0.00    -0.074 N 
HETATM    3  C   UNL     1      39.203 -14.215   0.915  1.00  0.00     0.736 A 
HETATM    4  N   UNL     1      38.102 -13.765   1.456  1.00  0.00     0.131 NA
HETATM    5  C   UNL     1      37.570 -12.987   0.469  1.00  0.00     0.753 A 
HETATM    6  N   UNL     1      38.292 -12.883  -0.643  1.00  0.00     0.037 NA
HETATM    7  N   UNL     1      40.123 -15.066   1.411  1.00  0.00    -0.214 N 
HETATM    8  C   UNL     1      41.419 -15.199   0.753  1.00  0.00     0.135 C 
HETATM    9  C   UNL     1      41.240 -15.168  -0.777  1.00  0.00     0.063 C 
HETATM   10  H   UNL     1      40.103 -15.240   2.412  1.00  0.00     0.178 HD
ENDROOT
BRANCH   1  11
HETATM   11  C   UNL     1      41.372 -12.694  -1.352  1.00  0.00     0.001 A 
HETATM   12  C   UNL     1      41.529 -12.067  -2.600  1.00  0.00     0.076 A 
HETATM   13  C   UNL     1      42.407 -10.991  -2.763  1.00  0.00     0.037 A 
HETATM   14  C   UNL     1      43.117 -10.499  -1.671  1.00  0.00     0.003 A 
HETATM   15  C   UNL     1      42.957 -11.088  -0.420  1.00  0.00     0.001 A 
HETATM   16  C   UNL     1      42.097 -12.177  -0.262  1.00  0.00     0.012 A 
BRANCH  12  17
HETATM   17  O   UNL     1      40.852 -12.575  -3.679  1.00  0.00    -0.355 OA
HETATM   18  C   UNL     1      39.732 -11.755  -4.025  1.00  0.00     0.210 C 
ENDBRANCH  12  17
ENDBRANCH   1  11
BRANCH   8  19
HETATM   19  C   UNL     1      42.104 -16.481   1.196  1.00  0.00    -0.035 A 
HETATM   20  C   UNL     1      41.376 -17.649   1.480  1.00  0.00     0.010 A 
HETATM   21  C   UNL     1      42.029 -18.817   1.882  1.00  0.00     0.019 A 
HETATM   22  C   UNL     1      43.418 -18.831   1.990  1.00  0.00     0.011 A 
HETATM   23 BR   UNL     1      44.302 -20.411   2.535  1.00  0.00    -0.051 Br
HETATM   24  C   UNL     1      44.158 -17.690   1.697  1.00  0.00     0.019 A 
HETATM   25  C   UNL     1      43.505 -16.520   1.300  1.00  0.00     0.010 A 
ENDBRANCH   8  19
BRANCH   5  26
HETATM   26  N   UNL     1      36.413 -12.371   0.698  1.00  0.00    -0.229 N 
HETATM   27  H   UNL     1      35.576 -12.928   0.608  1.00  0.00     0.174 HD
HETATM   28  H   UNL     1      36.399 -11.690   1.444  1.00  0.00     0.174 HD
ENDBRANCH   5  26
TORSDOF 4
ENDMDL
MODEL 10
REMARK VINA RESULT:      -6.7      3.165      4.520
REMARK  4 active torsions:
REMARK  status: ('A' for Active; 'I' for Inactive)
REMARK    1  A    between atoms: O_2  and  C_3 
REMARK    2  A    between atoms: C_4  and  C_5 
REMARK    3  A    between atoms: C_9  and  N_10 
REMARK    4  A    between atoms: C_13  and  C_14 
ROOT
HETATM    1  C   UNL     1      41.469 -14.370   4.721  1.00  0.00     0.167 C 
HETATM    2  N   UNL     1      42.499 -14.019   5.690  1.00  0.00    -0.074 N 
HETATM    3  C   UNL     1      43.705 -14.658   5.806  1.00  0.00     0.736 A 
HETATM    4  N   UNL     1      44.406 -14.070   6.739  1.00  0.00     0.131 NA
HETATM    5  C   UNL     1      43.559 -13.102   7.197  1.00  0.00     0.753 A 
HETATM    6  N   UNL     1      42.384 -13.017   6.579  1.00  0.00     0.037 NA
HETATM    7  N   UNL     1      44.015 -15.717   5.032  1.00  0.00    -0.214 N 
HETATM    8  C   UNL     1      43.203 -16.020   3.858  1.00  0.00     0.135 C 
HETATM    9  C   UNL     1      41.713 -15.790   4.172  1.00  0.00     0.063 C 
HETATM   10  H   UNL     1      44.993 -15.992   4.990  1.00  0.00     0.178 HD
ENDROOT
BRANCH   1  11
HETATM   11  C   UNL     1      41.345 -13.338   3.604  1.00  0.00     0.001 A 
HETATM   12  C   UNL     1      40.279 -12.423   3.614  1.00  0.00     0.076 A 
HETATM   13  C   UNL     1      40.100 -11.511   2.569  1.00  0.00     0.037 A 
HETATM   14  C   UNL     1      41.007 -11.474   1.512  1.00  0.00     0.003 A 
HETATM   15  C   UNL     1      42.086 -12.354   1.496  1.00  0.00     0.001 A 
HETATM   16  C   UNL     1      42.252 -13.280   2.529  1.00  0.00     0.012 A 
BRANCH  12  17
HETATM   17  O   UNL     1      39.370 -12.484   4.640  1.00  0.00    -0.355 OA
HETATM   18  C   UNL     1      39.393 -11.291   5.427  1.00  0.00     0.210 C 
ENDBRANCH  12  17
ENDBRANCH   1  11
BRANCH   8  19
HETATM   19  C   UNL     1      43.450 -17.448   3.402  1.00  0.00    -0.035 A 
HETATM   20  C   UNL     1      43.117 -17.881   2.106  1.00  0.00     0.010 A 
HETATM   21  C   UNL     1      43.357 -19.198   1.709  1.00  0.00     0.019 A 
HETATM   22  C   UNL     1      43.945 -20.093   2.601  1.00  0.00     0.011 A 
HETATM   23 BR   UNL     1      44.269 -21.876   2.064  1.00  0.00    -0.051 Br
HETATM   24  C   UNL     1      44.298 -19.681   3.882  1.00  0.00     0.019 A 
HETATM   25  C   UNL     1      44.053 -18.363   4.281  1.00  0.00     0.010 A 
ENDBRANCH   8  19
BRANCH   5  26
HETATM   26  N   UNL     1      43.972 -12.308   8.180  1.00  0.00    -0.229 N 
HETATM   27  H   UNL     1      44.450 -12.750   8.952  1.00  0.00     0.174 HD
HETATM   28  H   UNL     1      44.331 -11.402   7.914  1.00  0.00     0.174 HD
ENDBRANCH   5  26
TORSDOF 4
ENDMDL
