MODEL 1
REMARK VINA RESULT:      -8.3      0.000      0.000
REMARK  8 active torsions:
REMARK  status: ('A' for Active; 'I' for Inactive)
REMARK    1  A    between atoms: S_2  and  C_3 
REMARK    2  A    between atoms: C_4  and  N_5 
REMARK       I    between atoms: N_5  and  C_6 
REMARK    3  A    between atoms: C_6  and  C_7 
REMARK       I    between atoms: C_7  and  N_8 
REMARK    4  A    between atoms: N_8  and  C_9 
REMARK    5  A    between atoms: C_9  and  C_10 
REMARK    6  A    between atoms: C_10  and  C_11 
REMARK    7  A    between atoms: C_13  and  O_14 
REMARK    8  A    between atoms: N_20  and  C_21 
ROOT
HETATM    1  N   UNL     1      39.856 -15.058   5.553  1.00  0.00    -0.302 N 
HETATM    2  C   UNL     1      40.671 -16.119   6.072  1.00  0.00     0.315 C 
HETATM    3  O   UNL     1      40.088 -17.046   6.610  1.00  0.00    -0.262 OA
HETATM    4  H   UNL     1      38.877 -15.299   5.446  1.00  0.00     0.171 HD
ENDROOT
BRANCH   2   5
HETATM    5  C   UNL     1      42.202 -16.166   5.844  1.00  0.00     0.309 C 
HETATM    6  N   UNL     1      42.635 -17.312   5.201  1.00  0.00    -0.353 N 
HETATM    7  H   UNL     1      41.929 -17.970   4.878  1.00  0.00     0.162 HD
HETATM    8  O   UNL     1      42.923 -15.238   6.177  1.00  0.00    -0.262 OA
BRANCH   6   9
HETATM    9  C   UNL     1      43.998 -17.438   4.716  1.00  0.00     0.128 C 
BRANCH   9  10
HETATM   10  C   UNL     1      44.636 -18.761   5.141  1.00  0.00     0.058 C 
BRANCH  10  11
HETATM   11  C   UNL     1      44.431 -19.842   4.111  1.00  0.00    -0.054 A 
HETATM   12  C   UNL     1      44.770 -21.171   4.401  1.00  0.00     0.043 A 
HETATM   13  C   UNL     1      44.590 -22.158   3.433  1.00  0.00     0.066 A 
HETATM   14  C   UNL     1      44.083 -21.844   2.179  1.00  0.00     0.036 A 
HETATM   15  C   UNL     1      43.748 -20.525   1.882  1.00  0.00     0.003 A 
HETATM   16  C   UNL     1      43.923 -19.526   2.842  1.00  0.00     0.007 A 
BRANCH  13  17
HETATM   17  O   UNL     1      44.903 -23.461   3.680  1.00  0.00    -0.361 OA
HETATM   18  H   UNL     1      45.710 -23.691   3.191  1.00  0.00     0.217 HD
ENDBRANCH  13  17
ENDBRANCH  10  11
ENDBRANCH   9  10
ENDBRANCH   6   9
ENDBRANCH   2   5
BRANCH   1  19
HETATM   19  C   UNL     1      40.365 -14.032   4.769  1.00  0.00     0.150 A 
HETATM   20  C   UNL     1      40.439 -12.727   5.199  1.00  0.00     0.065 A 
HETATM   21  C   UNL     1      40.986 -12.017   4.123  1.00  0.00     0.161 A 
HETATM   22  N   UNL     1      41.245 -12.800   3.076  1.00  0.00    -0.176 NA
HETATM   23  N   UNL     1      40.898 -14.059   3.477  1.00  0.00    -0.216 N 
BRANCH  20  24
HETATM   24  S   UNL     1      39.918 -12.105   6.742  1.00  0.00    -0.129 SA
HETATM   25  C   UNL     1      41.209 -10.884   7.086  1.00  0.00     0.096 C 
ENDBRANCH  20  24
BRANCH  23  26
HETATM   26  C   UNL     1      41.174 -15.174   2.632  1.00  0.00     0.060 A 
HETATM   27  C   UNL     1      40.209 -16.148   2.341  1.00  0.00     0.031 A 
HETATM   28  C   UNL     1      40.533 -17.235   1.521  1.00  0.00     0.002 A 
HETATM   29  C   UNL     1      41.816 -17.365   0.994  1.00  0.00     0.000 A 
HETATM   30  C   UNL     1      42.784 -16.410   1.287  1.00  0.00     0.002 A 
HETATM   31  C   UNL     1      42.468 -15.320   2.102  1.00  0.00     0.031 A 
ENDBRANCH  23  26
ENDBRANCH   1  19
TORSDOF 8
ENDMDL
MODEL 2
REMARK VINA RESULT:      -8.1      2.049      3.499
REMARK  8 active torsions:
REMARK  status: ('A' for Active; 'I' for Inactive)
REMARK    1  A    between atoms: S_2  and  C_3 
REMARK    2  A    between atoms: C_4  and  N_5 
REMARK       I    between atoms: N_5  and  C_6 
REMARK    3  A    between atoms: C_6  and  C_7 
REMARK       I    between atoms: C_7  and  N_8 
REMARK    4  A    between atoms: N_8  and  C_9 
REMARK    5  A    between atoms: C_9  and  C_10 
REMARK    6  A    between atoms: C_10  and  C_11 
REMARK    7  A    between atoms: C_13  and  O_14 
REMARK    8  A    between atoms: N_20  and  C_21 
ROOT
HETATM    1  N   UNL     1      39.896 -15.039   3.486  1.00  0.00    -0.302 N 
HETATM    2  C   UNL     1      40.368 -16.026   2.558  1.00  0.00     0.315 C 
HETATM    3  O   UNL     1      39.531 -16.767   2.071  1.00  0.00    -0.262 OA
HETATM    4  H   UNL     1      38.895 -14.878   3.449  1.00  0.00     0.171 HD
ENDROOT
BRANCH   2   5
HETATM    5  C   UNL     1      41.842 -16.068   2.085  1.00  0.00     0.309 C 
HETATM    6  N   UNL     1      42.612 -17.013   2.741  1.00  0.00    -0.353 N 
HETATM    7  H   UNL     1      42.145 -17.629   3.403  1.00  0.00     0.162 HD
HETATM    8  O   UNL     1      42.242 -15.348   1.183  1.00  0.00    -0.262 OA
BRANCH   6   9
HETATM    9  C   UNL     1      43.953 -17.342   2.290  1.00  0.00     0.128 C 
BRANCH   9  10
HETATM   10  C   UNL     1      44.053 -18.787   1.802  1.00  0.00     0.058 C 
BRANCH  10  11
HETATM   11  C   UNL     1      44.309 -19.748   2.934  1.00  0.00    -0.054 A 
HETATM   12  C   UNL     1      44.448 -21.121   2.683  1.00  0.00     0.043 A 
HETATM   13  C   UNL     1      44.669 -22.000   3.741  1.00  0.00     0.066 A 
HETATM   14  C   UNL     1      44.750 -21.537   5.048  1.00  0.00     0.036 A 
HETATM   15  C   UNL     1      44.608 -20.175   5.307  1.00  0.00     0.003 A 
HETATM   16  C   UNL     1      44.387 -19.283   4.256  1.00  0.00     0.007 A 
BRANCH  13  17
HETATM   17  O   UNL     1      44.814 -23.339   3.535  1.00  0.00    -0.361 OA
HETATM   18  H   UNL     1      45.507 -23.482   2.869  1.00  0.00     0.217 HD
ENDBRANCH  13  17
ENDBRANCH  10  11
ENDBRANCH   9  10
ENDBRANCH   6   9
ENDBRANCH   2   5
BRANCH   1  19
HETATM   19  C   UNL     1      40.702 -14.024   3.983  1.00  0.00     0.150 A 
HETATM   20  C   UNL     1      40.553 -12.704   3.623  1.00  0.00     0.065 A 
HETATM   21  C   UNL     1      41.556 -12.019   4.319  1.00  0.00     0.161 A 
HETATM   22  N   UNL     1      42.300 -12.830   5.070  1.00  0.00    -0.176 NA
HETATM   23  N   UNL     1      41.758 -14.073   4.898  1.00  0.00    -0.216 N 
BRANCH  20  24
HETATM   24  S   UNL     1      39.384 -12.053   2.505  1.00  0.00    -0.129 SA
HETATM   25  C   UNL     1      40.425 -11.712   1.063  1.00  0.00     0.096 C 
ENDBRANCH  20  24
BRANCH  23  26
HETATM   26  C   UNL     1      42.237 -15.170   5.672  1.00  0.00     0.060 A 
HETATM   27  C   UNL     1      41.376 -16.130   6.222  1.00  0.00     0.031 A 
HETATM   28  C   UNL     1      41.892 -17.179   6.991  1.00  0.00     0.002 A 
HETATM   29  C   UNL     1      43.262 -17.276   7.224  1.00  0.00     0.000 A 
HETATM   30  C   UNL     1      44.124 -16.322   6.692  1.00  0.00     0.002 A 
HETATM   31  C   UNL     1      43.617 -15.273   5.921  1.00  0.00     0.031 A 
ENDBRANCH  23  26
ENDBRANCH   1  19
TORSDOF 8
ENDMDL
MODEL 3
REMARK VINA RESULT:      -7.9      1.277      1.996
REMARK  8 active torsions:
REMARK  status: ('A' for Active; 'I' for Inactive)
REMARK    1  A    between atoms: S_2  and  C_3 
REMARK    2  A    between atoms: C_4  and  N_5 
REMARK       I    between atoms: N_5  and  C_6 
REMARK    3  A    between atoms: C_6  and  C_7 
REMARK       I    between atoms: C_7  and  N_8 
REMARK    4  A    between atoms: N_8  and  C_9 
REMARK    5  A    between atoms: C_9  and  C_10 
REMARK    6  A    between atoms: C_10  and  C_11 
REMARK    7  A    between atoms: C_13  and  O_14 
REMARK    8  A    between atoms: N_20  and  C_21 
ROOT
HETATM    1  N   UNL     1      42.895 -13.149   4.281  1.00  0.00    -0.302 N 
HETATM    2  C   UNL     1      43.838 -14.069   4.852  1.00  0.00     0.315 C 
HETATM    3  O   UNL     1      45.006 -13.720   4.864  1.00  0.00    -0.262 OA
HETATM    4  H   UNL     1      43.243 -12.202   4.185  1.00  0.00     0.171 HD
ENDROOT
BRANCH   2   5
HETATM    5  C   UNL     1      43.390 -15.378   5.547  1.00  0.00     0.309 C 
HETATM    6  N   UNL     1      43.497 -16.501   4.744  1.00  0.00    -0.353 N 
HETATM    7  H   UNL     1      43.916 -16.387   3.823  1.00  0.00     0.162 HD
HETATM    8  O   UNL     1      43.021 -15.387   6.711  1.00  0.00    -0.262 OA
BRANCH   6   9
HETATM    9  C   UNL     1      43.325 -17.837   5.285  1.00  0.00     0.128 C 
BRANCH   9  10
HETATM   10  C   UNL     1      44.573 -18.698   5.090  1.00  0.00     0.058 C 
BRANCH  10  11
HETATM   11  C   UNL     1      44.361 -19.772   4.056  1.00  0.00    -0.054 A 
HETATM   12  C   UNL     1      44.739 -21.097   4.321  1.00  0.00     0.043 A 
HETATM   13  C   UNL     1      44.552 -22.078   3.348  1.00  0.00     0.066 A 
HETATM   14  C   UNL     1      43.999 -21.763   2.114  1.00  0.00     0.036 A 
HETATM   15  C   UNL     1      43.626 -20.448   1.841  1.00  0.00     0.003 A 
HETATM   16  C   UNL     1      43.807 -19.456   2.807  1.00  0.00     0.007 A 
BRANCH  13  17
HETATM   17  O   UNL     1      44.901 -23.376   3.572  1.00  0.00    -0.361 OA
HETATM   18  H   UNL     1      44.097 -23.922   3.581  1.00  0.00     0.217 HD
ENDBRANCH  13  17
ENDBRANCH  10  11
ENDBRANCH   9  10
ENDBRANCH   6   9
ENDBRANCH   2   5
BRANCH   1  19
HETATM   19  C   UNL     1      41.521 -13.336   4.356  1.00  0.00     0.150 A 
HETATM   20  C   UNL     1      40.716 -12.634   5.224  1.00  0.00     0.065 A 
HETATM   21  C   UNL     1      39.423 -13.124   5.001  1.00  0.00     0.161 A 
HETATM   22  N   UNL     1      39.392 -14.069   4.063  1.00  0.00    -0.176 NA
HETATM   23  N   UNL     1      40.682 -14.185   3.630  1.00  0.00    -0.216 N 
BRANCH  20  24
HETATM   24  S   UNL     1      41.225 -11.429   6.377  1.00  0.00    -0.129 SA
HETATM   25  C   UNL     1      39.764 -11.316   7.440  1.00  0.00     0.096 C 
ENDBRANCH  20  24
BRANCH  23  26
HETATM   26  C   UNL     1      40.985 -15.029   2.520  1.00  0.00     0.060 A 
HETATM   27  C   UNL     1      41.421 -14.517   1.290  1.00  0.00     0.031 A 
HETATM   28  C   UNL     1      41.688 -15.383   0.224  1.00  0.00     0.002 A 
HETATM   29  C   UNL     1      41.517 -16.758   0.371  1.00  0.00     0.000 A 
HETATM   30  C   UNL     1      41.074 -17.274   1.585  1.00  0.00     0.002 A 
HETATM   31  C   UNL     1      40.808 -16.417   2.655  1.00  0.00     0.031 A 
ENDBRANCH  23  26
ENDBRANCH   1  19
TORSDOF 8
ENDMDL
MODEL 4
REMARK VINA RESULT:      -7.8      3.535      4.333
REMARK  8 active torsions:
REMARK  status: ('A' for Active; 'I' for Inactive)
REMARK    1  A    between atoms: S_2  and  C_3 
REMARK    2  A    between atoms: C_4  and  N_5 
REMARK       I    between atoms: N_5  and  C_6 
REMARK    3  A    between atoms: C_6  and  C_7 
REMARK       I    between atoms: C_7  and  N_8 
REMARK    4  A    between atoms: N_8  and  C_9 
REMARK    5  A    between atoms: C_9  and  C_10 
REMARK    6  A    between atoms: C_10  and  C_11 
REMARK    7  A    between atoms: C_13  and  O_14 
REMARK    8  A    between atoms: N_20  and  C_21 
ROOT
HETATM    1  N   UNL     1      39.915 -14.700   1.212  1.00  0.00    -0.302 N 
HETATM    2  C   UNL     1      40.382 -16.007   1.578  1.00  0.00     0.315 C 
HETATM    3  O   UNL     1      39.594 -16.726   2.168  1.00  0.00    -0.262 OA
HETATM    4  H   UNL     1      38.907 -14.595   1.242  1.00  0.00     0.171 HD
ENDROOT
BRANCH   2   5
HETATM    5  C   UNL     1      41.764 -16.540   1.128  1.00  0.00     0.309 C 
HETATM    6  N   UNL     1      42.623 -16.818   2.178  1.00  0.00    -0.353 N 
HETATM    7  H   UNL     1      42.261 -16.722   3.124  1.00  0.00     0.162 HD
HETATM    8  O   UNL     1      42.022 -16.726  -0.051  1.00  0.00    -0.262 OA
BRANCH   6   9
HETATM    9  C   UNL     1      43.877 -17.519   1.964  1.00  0.00     0.128 C 
BRANCH   9  10
HETATM   10  C   UNL     1      43.659 -19.003   1.671  1.00  0.00     0.058 C 
BRANCH  10  11
HETATM   11  C   UNL     1      44.082 -19.874   2.825  1.00  0.00    -0.054 A 
HETATM   12  C   UNL     1      44.298 -21.247   2.636  1.00  0.00     0.043 A 
HETATM   13  C   UNL     1      44.674 -22.043   3.716  1.00  0.00     0.066 A 
HETATM   14  C   UNL     1      44.834 -21.498   4.983  1.00  0.00     0.036 A 
HETATM   15  C   UNL     1      44.616 -20.136   5.180  1.00  0.00     0.003 A 
HETATM   16  C   UNL     1      44.240 -19.326   4.107  1.00  0.00     0.007 A 
BRANCH  13  17
HETATM   17  O   UNL     1      44.898 -23.379   3.570  1.00  0.00    -0.361 OA
HETATM   18  H   UNL     1      44.814 -23.810   4.436  1.00  0.00     0.217 HD
ENDBRANCH  13  17
ENDBRANCH  10  11
ENDBRANCH   9  10
ENDBRANCH   6   9
ENDBRANCH   2   5
BRANCH   1  19
HETATM   19  C   UNL     1      40.636 -13.845   0.391  1.00  0.00     0.150 A 
HETATM   20  C   UNL     1      41.620 -13.005   0.863  1.00  0.00     0.065 A 
HETATM   21  C   UNL     1      42.080 -12.311  -0.262  1.00  0.00     0.161 A 
HETATM   22  N   UNL     1      41.444 -12.670  -1.377  1.00  0.00    -0.176 NA
HETATM   23  N   UNL     1      40.571 -13.646  -0.991  1.00  0.00    -0.216 N 
BRANCH  20  24
HETATM   24  S   UNL     1      42.136 -12.831   2.519  1.00  0.00    -0.129 SA
HETATM   25  C   UNL     1      40.879 -11.697   3.163  1.00  0.00     0.096 C 
ENDBRANCH  20  24
BRANCH  23  26
HETATM   26  C   UNL     1      39.815 -14.352  -1.974  1.00  0.00     0.060 A 
HETATM   27  C   UNL     1      40.396 -15.308  -2.818  1.00  0.00     0.031 A 
HETATM   28  C   UNL     1      39.618 -15.961  -3.780  1.00  0.00     0.002 A 
HETATM   29  C   UNL     1      38.264 -15.663  -3.915  1.00  0.00     0.000 A 
HETATM   30  C   UNL     1      37.681 -14.707  -3.089  1.00  0.00     0.002 A 
HETATM   31  C   UNL     1      38.450 -14.052  -2.124  1.00  0.00     0.031 A 
ENDBRANCH  23  26
ENDBRANCH   1  19
TORSDOF 8
ENDMDL
MODEL 5
REMARK VINA RESULT:      -7.7      3.192      6.676
REMARK  8 active torsions:
REMARK  status: ('A' for Active; 'I' for Inactive)
REMARK    1  A    between atoms: S_2  and  C_3 
REMARK    2  A    between atoms: C_4  and  N_5 
REMARK       I    between atoms: N_5  and  C_6 
REMARK    3  A    between atoms: C_6  and  C_7 
REMARK       I    between atoms: C_7  and  N_8 
REMARK    4  A    between atoms: N_8  and  C_9 
REMARK    5  A    between atoms: C_9  and  C_10 
REMARK    6  A    between atoms: C_10  and  C_11 
REMARK    7  A    between atoms: C_13  and  O_14 
REMARK    8  A    between atoms: N_20  and  C_21 
ROOT
HETATM    1  N   UNL     1      40.598 -17.050   4.235  1.00  0.00    -0.302 N 
HETATM    2  C   UNL     1      40.829 -16.112   5.296  1.00  0.00     0.315 C 
HETATM    3  O   UNL     1      40.328 -16.371   6.377  1.00  0.00    -0.262 OA
HETATM    4  H   UNL     1      40.269 -17.957   4.545  1.00  0.00     0.171 HD
ENDROOT
BRANCH   2   5
HETATM    5  C   UNL     1      41.780 -14.901   5.129  1.00  0.00     0.309 C 
HETATM    6  N   UNL     1      42.937 -14.992   5.885  1.00  0.00    -0.353 N 
HETATM    7  H   UNL     1      43.094 -15.850   6.410  1.00  0.00     0.162 HD
HETATM    8  O   UNL     1      41.520 -13.989   4.361  1.00  0.00    -0.262 OA
BRANCH   6   9
HETATM    9  C   UNL     1      44.036 -14.062   5.700  1.00  0.00     0.128 C 
BRANCH   9  10
HETATM   10  C   UNL     1      45.189 -14.342   6.663  1.00  0.00     0.058 C 
BRANCH  10  11
HETATM   11  C   UNL     1      45.283 -13.301   7.749  1.00  0.00    -0.054 A 
HETATM   12  C   UNL     1      44.276 -13.195   8.719  1.00  0.00     0.043 A 
HETATM   13  C   UNL     1      44.368 -12.218   9.708  1.00  0.00     0.066 A 
HETATM   14  C   UNL     1      45.443 -11.339   9.746  1.00  0.00     0.036 A 
HETATM   15  C   UNL     1      46.444 -11.434   8.782  1.00  0.00     0.003 A 
HETATM   16  C   UNL     1      46.365 -12.410   7.786  1.00  0.00     0.007 A 
BRANCH  13  17
HETATM   17  O   UNL     1      43.412 -12.088  10.671  1.00  0.00    -0.361 OA
HETATM   18  H   UNL     1      43.128 -12.973  10.954  1.00  0.00     0.217 HD
ENDBRANCH  13  17
ENDBRANCH  10  11
ENDBRANCH   9  10
ENDBRANCH   6   9
ENDBRANCH   2   5
BRANCH   1  19
HETATM   19  C   UNL     1      41.245 -16.974   3.009  1.00  0.00     0.150 A 
HETATM   20  C   UNL     1      40.808 -16.172   1.979  1.00  0.00     0.065 A 
HETATM   21  C   UNL     1      41.710 -16.396   0.932  1.00  0.00     0.161 A 
HETATM   22  N   UNL     1      42.657 -17.275   1.256  1.00  0.00    -0.176 NA
HETATM   23  N   UNL     1      42.401 -17.615   2.554  1.00  0.00    -0.216 N 
BRANCH  20  24
HETATM   24  S   UNL     1      39.403 -15.138   1.986  1.00  0.00    -0.129 SA
HETATM   25  C   UNL     1      39.592 -14.276   0.406  1.00  0.00     0.096 C 
ENDBRANCH  20  24
BRANCH  23  26
HETATM   26  C   UNL     1      43.314 -18.450   3.263  1.00  0.00     0.060 A 
HETATM   27  C   UNL     1      43.875 -18.070   4.490  1.00  0.00     0.031 A 
HETATM   28  C   UNL     1      44.782 -18.915   5.140  1.00  0.00     0.002 A 
HETATM   29  C   UNL     1      45.141 -20.136   4.572  1.00  0.00     0.000 A 
HETATM   30  C   UNL     1      44.599 -20.516   3.349  1.00  0.00     0.002 A 
HETATM   31  C   UNL     1      43.691 -19.680   2.695  1.00  0.00     0.031 A 
ENDBRANCH  23  26
ENDBRANCH   1  19
TORSDOF 8
ENDMDL
MODEL 6
REMARK VINA RESULT:      -7.7      2.663      3.598
REMARK  8 active torsions:
REMARK  status: ('A' for Active; 'I' for Inactive)
REMARK    1  A    between atoms: S_2  and  C_3 
REMARK    2  A    between atoms: C_4  and  N_5 
REMARK       I    between atoms: N_5  and  C_6 
REMARK    3  A    between atoms: C_6  and  C_7 
REMARK       I    between atoms: C_7  and  N_8 
REMARK    4  A    between atoms: N_8  and  C_9 
REMARK    5  A    between atoms: C_9  and  C_10 
REMARK    6  A    between atoms: C_10  and  C_11 
REMARK    7  A    between atoms: C_13  and  O_14 
REMARK    8  A    between atoms: N_20  and  C_21 
ROOT
HETATM    1  N   UNL     1      42.238 -13.406   2.726  1.00  0.00    -0.302 N 
HETATM    2  C   UNL     1      43.399 -14.164   3.097  1.00  0.00     0.315 C 
HETATM    3  O   UNL     1      44.286 -13.561   3.677  1.00  0.00    -0.262 OA
HETATM    4  H   UNL     1      42.150 -12.518   3.207  1.00  0.00     0.171 HD
ENDROOT
BRANCH   2   5
HETATM    5  C   UNL     1      43.475 -15.698   2.901  1.00  0.00     0.309 C 
HETATM    6  N   UNL     1      43.358 -16.417   4.079  1.00  0.00    -0.353 N 
HETATM    7  H   UNL     1      43.166 -15.899   4.933  1.00  0.00     0.162 HD
HETATM    8  O   UNL     1      43.584 -16.194   1.791  1.00  0.00    -0.262 OA
BRANCH   6   9
HETATM    9  C   UNL     1      43.195 -17.860   4.072  1.00  0.00     0.128 C 
BRANCH   9  10
HETATM   10  C   UNL     1      44.380 -18.572   4.723  1.00  0.00     0.058 C 
BRANCH  10  11
HETATM   11  C   UNL     1      44.467 -20.018   4.307  1.00  0.00    -0.054 A 
HETATM   12  C   UNL     1      44.290 -20.382   2.964  1.00  0.00     0.043 A 
HETATM   13  C   UNL     1      44.358 -21.724   2.597  1.00  0.00     0.066 A 
HETATM   14  C   UNL     1      44.593 -22.713   3.543  1.00  0.00     0.036 A 
HETATM   15  C   UNL     1      44.764 -22.360   4.880  1.00  0.00     0.003 A 
HETATM   16  C   UNL     1      44.700 -21.018   5.262  1.00  0.00     0.007 A 
BRANCH  13  17
HETATM   17  O   UNL     1      44.197 -22.115   1.301  1.00  0.00    -0.361 OA
HETATM   18  H   UNL     1      43.920 -23.046   1.284  1.00  0.00     0.217 HD
ENDBRANCH  13  17
ENDBRANCH  10  11
ENDBRANCH   9  10
ENDBRANCH   6   9
ENDBRANCH   2   5
BRANCH   1  19
HETATM   19  C   UNL     1      41.087 -13.992   2.219  1.00  0.00     0.150 A 
HETATM   20  C   UNL     1      40.081 -14.483   3.020  1.00  0.00     0.065 A 
HETATM   21  C   UNL     1      39.125 -14.997   2.135  1.00  0.00     0.161 A 
HETATM   22  N   UNL     1      39.483 -14.852   0.860  1.00  0.00    -0.176 NA
HETATM   23  N   UNL     1      40.682 -14.198   0.897  1.00  0.00    -0.216 N 
BRANCH  20  24
HETATM   24  S   UNL     1      40.045 -14.491   4.764  1.00  0.00    -0.129 SA
HETATM   25  C   UNL     1      39.555 -12.784   5.115  1.00  0.00     0.096 C 
ENDBRANCH  20  24
BRANCH  23  26
HETATM   26  C   UNL     1      41.291 -13.762  -0.317  1.00  0.00     0.060 A 
HETATM   27  C   UNL     1      42.052 -12.588  -0.390  1.00  0.00     0.031 A 
HETATM   28  C   UNL     1      42.615 -12.191  -1.609  1.00  0.00     0.002 A 
HETATM   29  C   UNL     1      42.419 -12.952  -2.759  1.00  0.00     0.000 A 
HETATM   30  C   UNL     1      41.655 -14.113  -2.698  1.00  0.00     0.002 A 
HETATM   31  C   UNL     1      41.092 -14.518  -1.485  1.00  0.00     0.031 A 
ENDBRANCH  23  26
ENDBRANCH   1  19
TORSDOF 8
ENDMDL
MODEL 7
REMARK VINA RESULT:      -7.7      2.213      3.856
REMARK  8 active torsions:
REMARK  status: ('A' for Active; 'I' for Inactive)
REMARK    1  A    between atoms: S_2  and  C_3 
REMARK    2  A    between atoms: C_4  and  N_5 
REMARK       I    between atoms: N_5  and  C_6 
REMARK    3  A    between atoms: C_6  and  C_7 
REMARK       I    between atoms: C_7  and  N_8 
REMARK    4  A    between atoms: N_8  and  C_9 
REMARK    5  A    between atoms: C_9  and  C_10 
REMARK    6  A    between atoms: C_10  and  C_11 
REMARK    7  A    between atoms: C_13  and  O_14 
REMARK    8  A    between atoms: N_20  and  C_21 
ROOT
HETATM    1  N   UNL     1      41.669 -12.338   3.333  1.00  0.00    -0.302 N 
HETATM    2  C   UNL     1      41.937 -13.297   2.300  1.00  0.00     0.315 C 
HETATM    3  O   UNL     1      42.819 -13.016   1.506  1.00  0.00    -0.262 OA
HETATM    4  H   UNL     1      42.401 -11.650   3.463  1.00  0.00     0.171 HD
ENDROOT
BRANCH   2   5
HETATM    5  C   UNL     1      41.248 -14.683   2.268  1.00  0.00     0.309 C 
HETATM    6  N   UNL     1      42.114 -15.742   2.480  1.00  0.00    -0.353 N 
HETATM    7  H   UNL     1      43.083 -15.524   2.705  1.00  0.00     0.162 HD
HETATM    8  O   UNL     1      40.042 -14.791   2.109  1.00  0.00    -0.262 OA
BRANCH   6   9
HETATM    9  C   UNL     1      41.622 -17.091   2.694  1.00  0.00     0.128 C 
BRANCH   9  10
HETATM   10  C   UNL     1      42.256 -18.090   1.727  1.00  0.00     0.058 C 
BRANCH  10  11
HETATM   11  C   UNL     1      43.158 -19.067   2.436  1.00  0.00    -0.054 A 
HETATM   12  C   UNL     1      43.436 -20.319   1.869  1.00  0.00     0.043 A 
HETATM   13  C   UNL     1      44.259 -21.218   2.544  1.00  0.00     0.066 A 
HETATM   14  C   UNL     1      44.808 -20.895   3.778  1.00  0.00     0.036 A 
HETATM   15  C   UNL     1      44.532 -19.655   4.351  1.00  0.00     0.003 A 
HETATM   16  C   UNL     1      43.710 -18.744   3.685  1.00  0.00     0.007 A 
BRANCH  13  17
HETATM   17  O   UNL     1      44.556 -22.440   2.020  1.00  0.00    -0.361 OA
HETATM   18  H   UNL     1      45.122 -22.922   2.646  1.00  0.00     0.217 HD
ENDBRANCH  13  17
ENDBRANCH  10  11
ENDBRANCH   9  10
ENDBRANCH   6   9
ENDBRANCH   2   5
BRANCH   1  19
HETATM   19  C   UNL     1      40.820 -12.597   4.400  1.00  0.00     0.150 A 
HETATM   20  C   UNL     1      39.537 -12.104   4.475  1.00  0.00     0.065 A 
HETATM   21  C   UNL     1      39.034 -12.574   5.694  1.00  0.00     0.161 A 
HETATM   22  N   UNL     1      39.921 -13.312   6.360  1.00  0.00    -0.176 NA
HETATM   23  N   UNL     1      41.021 -13.364   5.551  1.00  0.00    -0.216 N 
BRANCH  20  24
HETATM   24  S   UNL     1      38.744 -11.080   3.308  1.00  0.00    -0.129 SA
HETATM   25  C   UNL     1      39.402  -9.455   3.759  1.00  0.00     0.096 C 
ENDBRANCH  20  24
BRANCH  23  26
HETATM   26  C   UNL     1      42.125 -14.195   5.906  1.00  0.00     0.060 A 
HETATM   27  C   UNL     1      42.006 -15.587   6.020  1.00  0.00     0.031 A 
HETATM   28  C   UNL     1      43.113 -16.359   6.390  1.00  0.00     0.002 A 
HETATM   29  C   UNL     1      44.339 -15.753   6.655  1.00  0.00     0.000 A 
HETATM   30  C   UNL     1      44.464 -14.371   6.556  1.00  0.00     0.002 A 
HETATM   31  C   UNL     1      43.365 -13.594   6.185  1.00  0.00     0.031 A 
ENDBRANCH  23  26
ENDBRANCH   1  19
TORSDOF 8
ENDMDL
MODEL 8
REMARK VINA RESULT:      -7.5      1.523      4.188
REMARK  8 active torsions:
REMARK  status: ('A' for Active; 'I' for Inactive)
REMARK    1  A    between atoms: S_2  and  C_3 
REMARK    2  A    between atoms: C_4  and  N_5 
REMARK       I    between atoms: N_5  and  C_6 
REMARK    3  A    between atoms: C_6  and  C_7 
REMARK       I    between atoms: C_7  and  N_8 
REMARK    4  A    between atoms: N_8  and  C_9 
REMARK    5  A    between atoms: C_9  and  C_10 
REMARK    6  A    between atoms: C_10  and  C_11 
REMARK    7  A    between atoms: C_13  and  O_14 
REMARK    8  A    between atoms: N_20  and  C_21 
ROOT
HETATM    1  N   UNL     1      39.778 -14.993   5.586  1.00  0.00    -0.302 N 
HETATM    2  C   UNL     1      40.649 -16.067   5.968  1.00  0.00     0.315 C 
HETATM    3  O   UNL     1      40.138 -17.005   6.557  1.00  0.00    -0.262 OA
HETATM    4  H   UNL     1      38.792 -15.229   5.605  1.00  0.00     0.171 HD
ENDROOT
BRANCH   2   5
HETATM    5  C   UNL     1      42.136 -16.111   5.538  1.00  0.00     0.309 C 
HETATM    6  N   UNL     1      42.507 -17.300   4.934  1.00  0.00    -0.353 N 
HETATM    7  H   UNL     1      41.780 -17.992   4.763  1.00  0.00     0.162 HD
HETATM    8  O   UNL     1      42.872 -15.150   5.694  1.00  0.00    -0.262 OA
BRANCH   6   9
HETATM    9  C   UNL     1      43.794 -17.446   4.279  1.00  0.00     0.128 C 
BRANCH   9  10
HETATM   10  C   UNL     1      43.663 -18.082   2.895  1.00  0.00     0.058 C 
BRANCH  10  11
HETATM   11  C   UNL     1      43.925 -19.565   2.929  1.00  0.00    -0.054 A 
HETATM   12  C   UNL     1      44.520 -20.156   4.053  1.00  0.00     0.043 A 
HETATM   13  C   UNL     1      44.771 -21.527   4.064  1.00  0.00     0.066 A 
HETATM   14  C   UNL     1      44.444 -22.320   2.972  1.00  0.00     0.036 A 
HETATM   15  C   UNL     1      43.858 -21.741   1.849  1.00  0.00     0.003 A 
HETATM   16  C   UNL     1      43.600 -20.368   1.825  1.00  0.00     0.007 A 
BRANCH  13  17
HETATM   17  O   UNL     1      45.341 -22.136   5.140  1.00  0.00    -0.361 OA
HETATM   18  H   UNL     1      45.672 -21.456   5.750  1.00  0.00     0.217 HD
ENDBRANCH  13  17
ENDBRANCH  10  11
ENDBRANCH   9  10
ENDBRANCH   6   9
ENDBRANCH   2   5
BRANCH   1  19
HETATM   19  C   UNL     1      40.184 -13.949   4.766  1.00  0.00     0.150 A 
HETATM   20  C   UNL     1      40.225 -14.047   3.393  1.00  0.00     0.065 A 
HETATM   21  C   UNL     1      40.698 -12.806   2.951  1.00  0.00     0.161 A 
HETATM   22  N   UNL     1      40.946 -11.968   3.957  1.00  0.00    -0.176 NA
HETATM   23  N   UNL     1      40.597 -12.653   5.087  1.00  0.00    -0.216 N 
BRANCH  20  24
HETATM   24  S   UNL     1      39.812 -15.444   2.434  1.00  0.00    -0.129 SA
HETATM   25  C   UNL     1      41.327 -15.671   1.470  1.00  0.00     0.096 C 
ENDBRANCH  20  24
BRANCH  23  26
HETATM   26  C   UNL     1      40.614 -11.993   6.351  1.00  0.00     0.060 A 
HETATM   27  C   UNL     1      39.468 -11.878   7.149  1.00  0.00     0.031 A 
HETATM   28  C   UNL     1      39.529 -11.205   8.374  1.00  0.00     0.002 A 
HETATM   29  C   UNL     1      40.724 -10.637   8.809  1.00  0.00     0.000 A 
HETATM   30  C   UNL     1      41.865 -10.735   8.018  1.00  0.00     0.002 A 
HETATM   31  C   UNL     1      41.813 -11.408   6.795  1.00  0.00     0.031 A 
ENDBRANCH  23  26
ENDBRANCH   1  19
TORSDOF 8
ENDMDL
MODEL 9
REMARK VINA RESULT:      -7.5      2.376      3.222
REMARK  8 active torsions:
REMARK  status: ('A' for Active; 'I' for Inactive)
REMARK    1  A    between atoms: S_2  and  C_3 
REMARK    2  A    between atoms: C_4  and  N_5 
REMARK       I    between atoms: N_5  and  C_6 
REMARK    3  A    between atoms: C_6  and  C_7 
REMARK       I    between atoms: C_7  and  N_8 
REMARK    4  A    between atoms: N_8  and  C_9 
REMARK    5  A    between atoms: C_9  and  C_10 
REMARK    6  A    between atoms: C_10  and  C_11 
REMARK    7  A    between atoms: C_13  and  O_14 
REMARK    8  A    between atoms: N_20  and  C_21 
ROOT
HETATM    1  N   UNL     1      42.428 -12.563   2.804  1.00  0.00    -0.302 N 
HETATM    2  C   UNL     1      43.079 -13.744   3.296  1.00  0.00     0.315 C 
HETATM    3  O   UNL     1      44.262 -13.641   3.577  1.00  0.00    -0.262 OA
HETATM    4  H   UNL     1      42.933 -11.703   2.982  1.00  0.00     0.171 HD
ENDROOT
BRANCH   2   5
HETATM    5  C   UNL     1      42.300 -15.048   3.593  1.00  0.00     0.309 C 
HETATM    6  N   UNL     1      42.246 -15.922   2.521  1.00  0.00    -0.353 N 
HETATM    7  H   UNL     1      42.768 -15.677   1.682  1.00  0.00     0.162 HD
HETATM    8  O   UNL     1      41.826 -15.269   4.696  1.00  0.00    -0.262 OA
BRANCH   6   9
HETATM    9  C   UNL     1      41.744 -17.276   2.673  1.00  0.00     0.128 C 
BRANCH   9  10
HETATM   10  C   UNL     1      42.441 -18.254   1.727  1.00  0.00     0.058 C 
BRANCH  10  11
HETATM   11  C   UNL     1      43.296 -19.246   2.472  1.00  0.00    -0.054 A 
HETATM   12  C   UNL     1      43.576 -20.502   1.913  1.00  0.00     0.043 A 
HETATM   13  C   UNL     1      44.355 -21.416   2.620  1.00  0.00     0.066 A 
HETATM   14  C   UNL     1      44.856 -21.104   3.877  1.00  0.00     0.036 A 
HETATM   15  C   UNL     1      44.578 -19.862   4.442  1.00  0.00     0.003 A 
HETATM   16  C   UNL     1      43.800 -18.936   3.744  1.00  0.00     0.007 A 
BRANCH  13  17
HETATM   17  O   UNL     1      44.653 -22.643   2.107  1.00  0.00    -0.361 OA
HETATM   18  H   UNL     1      45.005 -23.205   2.817  1.00  0.00     0.217 HD
ENDBRANCH  13  17
ENDBRANCH  10  11
ENDBRANCH   9  10
ENDBRANCH   6   9
ENDBRANCH   2   5
BRANCH   1  19
HETATM   19  C   UNL     1      41.056 -12.486   2.610  1.00  0.00     0.150 A 
HETATM   20  C   UNL     1      40.189 -12.009   3.567  1.00  0.00     0.065 A 
HETATM   21  C   UNL     1      38.916 -12.113   2.994  1.00  0.00     0.161 A 
HETATM   22  N   UNL     1      38.953 -12.618   1.761  1.00  0.00    -0.176 NA
HETATM   23  N   UNL     1      40.278 -12.821   1.498  1.00  0.00    -0.216 N 
BRANCH  20  24
HETATM   24  S   UNL     1      40.606 -11.443   5.163  1.00  0.00    -0.129 SA
HETATM   25  C   UNL     1      39.541 -12.480   6.196  1.00  0.00     0.096 C 
ENDBRANCH  20  24
BRANCH  23  26
HETATM   26  C   UNL     1      40.688 -13.236   0.196  1.00  0.00     0.060 A 
HETATM   27  C   UNL     1      40.423 -14.522  -0.296  1.00  0.00     0.031 A 
HETATM   28  C   UNL     1      40.862 -14.890  -1.572  1.00  0.00     0.002 A 
HETATM   29  C   UNL     1      41.570 -13.988  -2.363  1.00  0.00     0.000 A 
HETATM   30  C   UNL     1      41.848 -12.713  -1.879  1.00  0.00     0.002 A 
HETATM   31  C   UNL     1      41.411 -12.337  -0.607  1.00  0.00     0.031 A 
ENDBRANCH  23  26
ENDBRANCH   1  19
TORSDOF 8
ENDMDL
MODEL 10
REMARK VINA RESULT:      -7.4      3.583      6.647
REMARK  8 active torsions:
REMARK  status: ('A' for Active; 'I' for Inactive)
REMARK    1  A    between atoms: S_2  and  C_3 
REMARK    2  A    between atoms: C_4  and  N_5 
REMARK       I    between atoms: N_5  and  C_6 
REMARK    3  A    between atoms: C_6  and  C_7 
REMARK       I    between atoms: C_7  and  N_8 
REMARK    4  A    between atoms: N_8  and  C_9 
REMARK    5  A    between atoms: C_9  and  C_10 
REMARK    6  A    between atoms: C_10  and  C_11 
REMARK    7  A    between atoms: C_13  and  O_14 
REMARK    8  A    between atoms: N_20  and  C_21 
ROOT
HETATM    1  N   UNL     1      40.812 -17.004   3.756  1.00  0.00    -0.302 N 
HETATM    2  C   UNL     1      40.605 -16.463   2.443  1.00  0.00     0.315 C 
HETATM    3  O   UNL     1      39.541 -16.718   1.905  1.00  0.00    -0.262 OA
HETATM    4  H   UNL     1      39.965 -17.320   4.214  1.00  0.00     0.171 HD
ENDROOT
BRANCH   2   5
HETATM    5  C   UNL     1      41.615 -15.489   1.788  1.00  0.00     0.309 C 
HETATM    6  N   UNL     1      41.302 -14.153   1.976  1.00  0.00    -0.353 N 
HETATM    7  H   UNL     1      40.506 -13.931   2.569  1.00  0.00     0.162 HD
HETATM    8  O   UNL     1      42.607 -15.896   1.205  1.00  0.00    -0.262 OA
BRANCH   6   9
HETATM    9  C   UNL     1      42.237 -13.100   1.619  1.00  0.00     0.128 C 
BRANCH   9  10
HETATM   10  C   UNL     1      41.564 -11.987   0.816  1.00  0.00     0.058 C 
BRANCH  10  11
HETATM   11  C   UNL     1      41.917 -12.055  -0.647  1.00  0.00    -0.054 A 
HETATM   12  C   UNL     1      41.875 -13.279  -1.331  1.00  0.00     0.043 A 
HETATM   13  C   UNL     1      42.219 -13.329  -2.681  1.00  0.00     0.066 A 
HETATM   14  C   UNL     1      42.610 -12.184  -3.361  1.00  0.00     0.036 A 
HETATM   15  C   UNL     1      42.660 -10.965  -2.687  1.00  0.00     0.003 A 
HETATM   16  C   UNL     1      42.317 -10.900  -1.335  1.00  0.00     0.007 A 
BRANCH  13  17
HETATM   17  O   UNL     1      42.184 -14.499  -3.380  1.00  0.00    -0.361 OA
HETATM   18  H   UNL     1      43.094 -14.785  -3.563  1.00  0.00     0.217 HD
ENDBRANCH  13  17
ENDBRANCH  10  11
ENDBRANCH   9  10
ENDBRANCH   6   9
ENDBRANCH   2   5
BRANCH   1  19
HETATM   19  C   UNL     1      41.894 -16.656   4.552  1.00  0.00     0.150 A 
HETATM   20  C   UNL     1      41.874 -15.586   5.418  1.00  0.00     0.065 A 
HETATM   21  C   UNL     1      43.144 -15.568   6.008  1.00  0.00     0.161 A 
HETATM   22  N   UNL     1      43.928 -16.548   5.559  1.00  0.00    -0.176 NA
HETATM   23  N   UNL     1      43.152 -17.252   4.681  1.00  0.00    -0.216 N 
BRANCH  20  24
HETATM   24  S   UNL     1      40.553 -14.478   5.677  1.00  0.00    -0.129 SA
HETATM   25  C   UNL     1      41.427 -12.893   5.732  1.00  0.00     0.096 C 
ENDBRANCH  20  24
BRANCH  23  26
HETATM   26  C   UNL     1      43.646 -18.462   4.110  1.00  0.00     0.060 A 
HETATM   27  C   UNL     1      43.427 -18.798   2.767  1.00  0.00     0.031 A 
HETATM   28  C   UNL     1      43.915 -20.005   2.256  1.00  0.00     0.002 A 
HETATM   29  C   UNL     1      44.614 -20.888   3.076  1.00  0.00     0.000 A 
HETATM   30  C   UNL     1      44.826 -20.569   4.414  1.00  0.00     0.002 A 
HETATM   31  C   UNL     1      44.345 -19.364   4.931  1.00  0.00     0.031 A 
ENDBRANCH  23  26
ENDBRANCH   1  19
TORSDOF 8
ENDMDL
