MODEL 1
REMARK VINA RESULT:      -8.8      0.000      0.000
REMARK  3 active torsions:
REMARK  status: ('A' for Active; 'I' for Inactive)
REMARK    1  A    between atoms: C_9  and  C_10 
REMARK       I    between atoms: C_10  and  N_11 
REMARK    2  A    between atoms: N_11  and  C_12 
REMARK    3  A    between atoms: C_19  and  C_20 
REMARK       I    between atoms: C_20  and  N_21 
ROOT
HETATM    1  C   UNL     1      43.263 -16.829   2.981  1.00  0.00     0.035 A 
HETATM    2  C   UNL     1      43.256 -17.110   4.352  1.00  0.00     0.046 A 
HETATM    3  C   UNL     1      43.704 -18.372   4.801  1.00  0.00     0.030 A 
HETATM    4  C   UNL     1      44.166 -19.292   3.868  1.00  0.00     0.063 A 
HETATM    5  N   UNL     1      44.513 -20.398   4.592  1.00  0.00    -0.277 N 
HETATM    6  H   UNL     1      44.886 -21.271   4.235  1.00  0.00     0.189 HD
HETATM    7  N   UNL     1      44.307 -20.287   5.914  1.00  0.00    -0.168 NA
HETATM    8  C   UNL     1      43.806 -19.039   6.059  1.00  0.00     0.156 A 
HETATM    9  C   UNL     1      44.213 -19.033   2.498  1.00  0.00     0.034 A 
HETATM   10  C   UNL     1      43.744 -17.784   2.074  1.00  0.00     0.032 A 
ENDROOT
BRANCH   1  11
HETATM   11  N   UNL     1      42.722 -15.656   2.427  1.00  0.00    -0.325 N 
HETATM   12  C   UNL     1      43.052 -14.345   2.722  1.00  0.00     0.252 C 
HETATM   13  O   UNL     1      44.098 -13.961   3.240  1.00  0.00    -0.270 OA
HETATM   14  H   UNL     1      41.910 -15.767   1.830  1.00  0.00     0.169 HD
BRANCH  12  15
HETATM   15  C   UNL     1      41.903 -13.352   2.431  1.00  0.00     0.225 C 
HETATM   16  C   UNL     1      40.762 -14.110   1.734  1.00  0.00     0.083 C 
HETATM   17  C   UNL     1      41.097 -13.774   0.330  1.00  0.00    -0.021 A 
HETATM   18  C   UNL     1      41.927 -12.669   0.316  1.00  0.00     0.076 A 
HETATM   19  C   UNL     1      40.720 -14.392  -0.846  1.00  0.00     0.017 A 
HETATM   20  C   UNL     1      42.397 -12.118  -0.856  1.00  0.00     0.044 A 
HETATM   21  O   UNL     1      42.307 -12.254   1.571  1.00  0.00    -0.336 OA
HETATM   22  C   UNL     1      42.046 -12.732  -2.069  1.00  0.00    -0.053 A 
HETATM   23  C   UNL     1      41.213 -13.885  -2.063  1.00  0.00    -0.055 A 
HETATM   24  C   UNL     1      42.601 -12.178  -3.354  1.00  0.00     0.049 C 
HETATM   25  C   UNL     1      40.872 -14.605  -3.341  1.00  0.00     0.049 C 
ENDBRANCH  12  15
ENDBRANCH   1  11
BRANCH   8  26
HETATM   26  C   UNL     1      43.423 -18.523   7.381  1.00  0.00     0.270 C 
HETATM   27  N   UNL     1      43.920 -19.249   8.428  1.00  0.00    -0.365 N 
HETATM   28  H   UNL     1      44.485 -20.066   8.226  1.00  0.00     0.159 HD
HETATM   29  H   UNL     1      43.695 -18.979   9.372  1.00  0.00     0.159 HD
HETATM   30  O   UNL     1      42.714 -17.539   7.570  1.00  0.00    -0.266 OA
ENDBRANCH   8  26
TORSDOF 3
ENDMDL
MODEL 2
REMARK VINA RESULT:      -8.7      2.148      3.316
REMARK  3 active torsions:
REMARK  status: ('A' for Active; 'I' for Inactive)
REMARK    1  A    between atoms: C_9  and  C_10 
REMARK       I    between atoms: C_10  and  N_11 
REMARK    2  A    between atoms: N_11  and  C_12 
REMARK    3  A    between atoms: C_19  and  C_20 
REMARK       I    between atoms: C_20  and  N_21 
ROOT
HETATM    1  C   UNL     1      43.609 -17.775   3.736  1.00  0.00     0.035 A 
HETATM    2  C   UNL     1      44.019 -18.957   4.364  1.00  0.00     0.046 A 
HETATM    3  C   UNL     1      44.158 -20.134   3.597  1.00  0.00     0.030 A 
HETATM    4  C   UNL     1      43.907 -20.081   2.232  1.00  0.00     0.063 A 
HETATM    5  N   UNL     1      44.111 -21.353   1.776  1.00  0.00    -0.277 N 
HETATM    6  H   UNL     1      44.013 -21.686   0.824  1.00  0.00     0.189 HD
HETATM    7  N   UNL     1      44.461 -22.236   2.725  1.00  0.00    -0.168 NA
HETATM    8  C   UNL     1      44.494 -21.497   3.858  1.00  0.00     0.156 A 
HETATM    9  C   UNL     1      43.523 -18.914   1.571  1.00  0.00     0.034 A 
HETATM   10  C   UNL     1      43.372 -17.764   2.354  1.00  0.00     0.032 A 
ENDROOT
BRANCH   1  11
HETATM   11  N   UNL     1      43.322 -16.587   4.431  1.00  0.00    -0.325 N 
HETATM   12  C   UNL     1      42.191 -16.284   5.168  1.00  0.00     0.252 C 
HETATM   13  O   UNL     1      41.403 -17.094   5.650  1.00  0.00    -0.270 OA
HETATM   14  H   UNL     1      43.955 -15.809   4.281  1.00  0.00     0.169 HD
BRANCH  12  15
HETATM   15  C   UNL     1      41.919 -14.765   5.262  1.00  0.00     0.225 C 
HETATM   16  C   UNL     1      40.427 -14.514   4.996  1.00  0.00     0.083 C 
HETATM   17  C   UNL     1      40.512 -14.175   3.556  1.00  0.00    -0.021 A 
HETATM   18  C   UNL     1      41.815 -13.826   3.250  1.00  0.00     0.076 A 
HETATM   19  C   UNL     1      39.534 -14.182   2.581  1.00  0.00     0.017 A 
HETATM   20  C   UNL     1      42.195 -13.451   1.980  1.00  0.00     0.044 A 
HETATM   21  O   UNL     1      42.686 -13.992   4.300  1.00  0.00    -0.336 OA
HETATM   22  C   UNL     1      41.227 -13.465   0.962  1.00  0.00    -0.053 A 
HETATM   23  C   UNL     1      39.891 -13.845   1.262  1.00  0.00    -0.055 A 
HETATM   24  C   UNL     1      41.642 -13.115  -0.442  1.00  0.00     0.049 C 
HETATM   25  C   UNL     1      38.846 -13.933   0.181  1.00  0.00     0.049 C 
ENDBRANCH  12  15
ENDBRANCH   1  11
BRANCH   8  26
HETATM   26  C   UNL     1      44.825 -22.107   5.154  1.00  0.00     0.270 C 
HETATM   27  N   UNL     1      45.752 -23.110   5.077  1.00  0.00    -0.365 N 
HETATM   28  H   UNL     1      46.122 -23.359   4.167  1.00  0.00     0.159 HD
HETATM   29  H   UNL     1      46.028 -23.597   5.914  1.00  0.00     0.159 HD
HETATM   30  O   UNL     1      44.328 -21.782   6.227  1.00  0.00    -0.266 OA
ENDBRANCH   8  26
TORSDOF 3
ENDMDL
MODEL 3
REMARK VINA RESULT:      -8.5      3.345      8.550
REMARK  3 active torsions:
REMARK  status: ('A' for Active; 'I' for Inactive)
REMARK    1  A    between atoms: C_9  and  C_10 
REMARK       I    between atoms: C_10  and  N_11 
REMARK    2  A    between atoms: N_11  and  C_12 
REMARK    3  A    between atoms: C_19  and  C_20 
REMARK       I    between atoms: C_20  and  N_21 
ROOT
HETATM    1  C   UNL     1      41.424 -15.044  -0.523  1.00  0.00     0.035 A 
HETATM    2  C   UNL     1      41.919 -13.735  -0.572  1.00  0.00     0.046 A 
HETATM    3  C   UNL     1      42.048 -13.093  -1.823  1.00  0.00     0.030 A 
HETATM    4  C   UNL     1      41.655 -13.769  -2.971  1.00  0.00     0.063 A 
HETATM    5  N   UNL     1      41.906 -12.909  -4.002  1.00  0.00    -0.277 N 
HETATM    6  H   UNL     1      41.745 -13.073  -4.990  1.00  0.00     0.189 HD
HETATM    7  N   UNL     1      42.440 -11.734  -3.631  1.00  0.00    -0.168 NA
HETATM    8  C   UNL     1      42.534 -11.832  -2.285  1.00  0.00     0.156 A 
HETATM    9  C   UNL     1      41.132 -15.062  -2.953  1.00  0.00     0.034 A 
HETATM   10  C   UNL     1      41.033 -15.688  -1.705  1.00  0.00     0.032 A 
ENDROOT
BRANCH   1  11
HETATM   11  N   UNL     1      41.376 -15.811   0.654  1.00  0.00    -0.325 N 
HETATM   12  C   UNL     1      42.221 -16.838   1.036  1.00  0.00     0.252 C 
HETATM   13  O   UNL     1      43.356 -17.036   0.612  1.00  0.00    -0.270 OA
HETATM   14  H   UNL     1      40.559 -15.689   1.244  1.00  0.00     0.169 HD
BRANCH  12  15
HETATM   15  C   UNL     1      41.557 -17.835   2.014  1.00  0.00     0.225 C 
HETATM   16  C   UNL     1      40.913 -17.043   3.163  1.00  0.00     0.083 C 
HETATM   17  C   UNL     1      42.009 -17.160   4.154  1.00  0.00    -0.021 A 
HETATM   18  C   UNL     1      42.834 -18.210   3.794  1.00  0.00     0.076 A 
HETATM   19  C   UNL     1      42.278 -16.401   5.276  1.00  0.00     0.017 A 
HETATM   20  C   UNL     1      43.938 -18.565   4.538  1.00  0.00     0.044 A 
HETATM   21  O   UNL     1      42.499 -18.779   2.588  1.00  0.00    -0.336 OA
HETATM   22  C   UNL     1      44.248 -17.803   5.676  1.00  0.00    -0.053 A 
HETATM   23  C   UNL     1      43.420 -16.706   6.040  1.00  0.00    -0.055 A 
HETATM   24  C   UNL     1      45.485 -18.142   6.464  1.00  0.00     0.049 C 
HETATM   25  C   UNL     1      43.763 -15.829   7.216  1.00  0.00     0.049 C 
ENDBRANCH  12  15
ENDBRANCH   1  11
BRANCH   8  26
HETATM   26  C   UNL     1      43.098 -10.739  -1.481  1.00  0.00     0.270 C 
HETATM   27  N   UNL     1      43.254  -9.566  -2.167  1.00  0.00    -0.365 N 
HETATM   28  H   UNL     1      42.990  -9.538  -3.145  1.00  0.00     0.159 HD
HETATM   29  H   UNL     1      43.648  -8.765  -1.700  1.00  0.00     0.159 HD
HETATM   30  O   UNL     1      43.424 -10.833  -0.302  1.00  0.00    -0.266 OA
ENDBRANCH   8  26
TORSDOF 3
ENDMDL
MODEL 4
REMARK VINA RESULT:      -8.2      1.607      2.488
REMARK  3 active torsions:
REMARK  status: ('A' for Active; 'I' for Inactive)
REMARK    1  A    between atoms: C_9  and  C_10 
REMARK       I    between atoms: C_10  and  N_11 
REMARK    2  A    between atoms: N_11  and  C_12 
REMARK    3  A    between atoms: C_19  and  C_20 
REMARK       I    between atoms: C_20  and  N_21 
ROOT
HETATM    1  C   UNL     1      42.895 -16.622   3.784  1.00  0.00     0.035 A 
HETATM    2  C   UNL     1      43.160 -17.889   3.251  1.00  0.00     0.046 A 
HETATM    3  C   UNL     1      43.790 -18.861   4.059  1.00  0.00     0.030 A 
HETATM    4  C   UNL     1      44.106 -18.540   5.374  1.00  0.00     0.063 A 
HETATM    5  N   UNL     1      44.703 -19.658   5.885  1.00  0.00    -0.277 N 
HETATM    6  H   UNL     1      45.069 -19.782   6.822  1.00  0.00     0.189 HD
HETATM    7  N   UNL     1      44.815 -20.677   5.018  1.00  0.00    -0.168 NA
HETATM    8  C   UNL     1      44.255 -20.199   3.883  1.00  0.00     0.156 A 
HETATM    9  C   UNL     1      43.831 -17.297   5.944  1.00  0.00     0.034 A 
HETATM   10  C   UNL     1      43.226 -16.342   5.118  1.00  0.00     0.032 A 
ENDROOT
BRANCH   1  11
HETATM   11  N   UNL     1      42.389 -15.552   3.026  1.00  0.00    -0.325 N 
HETATM   12  C   UNL     1      42.891 -14.266   2.928  1.00  0.00     0.252 C 
HETATM   13  O   UNL     1      44.041 -13.917   3.184  1.00  0.00    -0.270 OA
HETATM   14  H   UNL     1      41.483 -15.690   2.593  1.00  0.00     0.169 HD
BRANCH  12  15
HETATM   15  C   UNL     1      41.814 -13.224   2.550  1.00  0.00     0.225 C 
HETATM   16  C   UNL     1      40.620 -13.957   1.915  1.00  0.00     0.083 C 
HETATM   17  C   UNL     1      40.975 -13.765   0.489  1.00  0.00    -0.021 A 
HETATM   18  C   UNL     1      41.881 -12.725   0.385  1.00  0.00     0.076 A 
HETATM   19  C   UNL     1      40.553 -14.452  -0.632  1.00  0.00     0.017 A 
HETATM   20  C   UNL     1      42.385 -12.310  -0.829  1.00  0.00     0.044 A 
HETATM   21  O   UNL     1      42.291 -12.233   1.601  1.00  0.00    -0.336 OA
HETATM   22  C   UNL     1      41.989 -12.999  -1.986  1.00  0.00    -0.053 A 
HETATM   23  C   UNL     1      41.077 -14.086  -1.886  1.00  0.00    -0.055 A 
HETATM   24  C   UNL     1      42.578 -12.596  -3.312  1.00  0.00     0.049 C 
HETATM   25  C   UNL     1      40.684 -14.886  -3.099  1.00  0.00     0.049 C 
ENDBRANCH  12  15
ENDBRANCH   1  11
BRANCH   8  26
HETATM   26  C   UNL     1      44.194 -21.016   2.663  1.00  0.00     0.270 C 
HETATM   27  N   UNL     1      44.545 -22.325   2.851  1.00  0.00    -0.365 N 
HETATM   28  H   UNL     1      44.821 -22.624   3.779  1.00  0.00     0.159 HD
HETATM   29  H   UNL     1      44.548 -22.957   2.067  1.00  0.00     0.159 HD
HETATM   30  O   UNL     1      43.874 -20.598   1.556  1.00  0.00    -0.266 OA
ENDBRANCH   8  26
TORSDOF 3
ENDMDL
MODEL 5
REMARK VINA RESULT:      -8.2      6.419      8.966
REMARK  3 active torsions:
REMARK  status: ('A' for Active; 'I' for Inactive)
REMARK    1  A    between atoms: C_9  and  C_10 
REMARK       I    between atoms: C_10  and  N_11 
REMARK    2  A    between atoms: N_11  and  C_12 
REMARK    3  A    between atoms: C_19  and  C_20 
REMARK       I    between atoms: C_20  and  N_21 
ROOT
HETATM    1  C   UNL     1      44.024 -14.051   6.846  1.00  0.00     0.035 A 
HETATM    2  C   UNL     1      44.164 -15.429   7.050  1.00  0.00     0.046 A 
HETATM    3  C   UNL     1      43.309 -16.320   6.365  1.00  0.00     0.030 A 
HETATM    4  C   UNL     1      42.366 -15.803   5.484  1.00  0.00     0.063 A 
HETATM    5  N   UNL     1      41.696 -16.888   4.994  1.00  0.00    -0.277 N 
HETATM    6  H   UNL     1      40.933 -16.886   4.326  1.00  0.00     0.189 HD
HETATM    7  N   UNL     1      42.110 -18.068   5.484  1.00  0.00    -0.168 NA
HETATM    8  C   UNL     1      43.107 -17.733   6.334  1.00  0.00     0.156 A 
HETATM    9  C   UNL     1      42.219 -14.438   5.238  1.00  0.00     0.034 A 
HETATM   10  C   UNL     1      43.063 -13.573   5.944  1.00  0.00     0.032 A 
ENDROOT
BRANCH   1  11
HETATM   11  N   UNL     1      44.738 -13.083   7.572  1.00  0.00    -0.325 N 
HETATM   12  C   UNL     1      44.686 -12.828   8.931  1.00  0.00     0.252 C 
HETATM   13  O   UNL     1      44.295 -13.605   9.798  1.00  0.00    -0.270 OA
HETATM   14  H   UNL     1      45.266 -12.407   7.031  1.00  0.00     0.169 HD
BRANCH  12  15
HETATM   15  C   UNL     1      45.081 -11.377   9.289  1.00  0.00     0.225 C 
HETATM   16  C   UNL     1      45.392 -11.307  10.793  1.00  0.00     0.083 C 
HETATM   17  C   UNL     1      44.075 -10.820  11.269  1.00  0.00    -0.021 A 
HETATM   18  C   UNL     1      43.386 -10.268  10.205  1.00  0.00     0.076 A 
HETATM   19  C   UNL     1      43.514 -10.865  12.529  1.00  0.00     0.017 A 
HETATM   20  C   UNL     1      42.129  -9.722  10.348  1.00  0.00     0.044 A 
HETATM   21  O   UNL     1      44.032 -10.416   9.000  1.00  0.00    -0.336 OA
HETATM   22  C   UNL     1      41.523  -9.767  11.614  1.00  0.00    -0.053 A 
HETATM   23  C   UNL     1      42.215 -10.355  12.709  1.00  0.00    -0.055 A 
HETATM   24  C   UNL     1      40.127  -9.228  11.773  1.00  0.00     0.049 C 
HETATM   25  C   UNL     1      41.566 -10.478  14.063  1.00  0.00     0.049 C 
ENDBRANCH  12  15
ENDBRANCH   1  11
BRANCH   8  26
HETATM   26  C   UNL     1      43.825 -18.758   7.104  1.00  0.00     0.270 C 
HETATM   27  N   UNL     1      43.842 -18.532   8.454  1.00  0.00    -0.365 N 
HETATM   28  H   UNL     1      43.385 -17.701   8.811  1.00  0.00     0.159 HD
HETATM   29  H   UNL     1      44.326 -19.174   9.060  1.00  0.00     0.159 HD
HETATM   30  O   UNL     1      44.383 -19.736   6.618  1.00  0.00    -0.266 OA
ENDBRANCH   8  26
TORSDOF 3
ENDMDL
MODEL 6
REMARK VINA RESULT:      -8.1      6.515      8.664
REMARK  3 active torsions:
REMARK  status: ('A' for Active; 'I' for Inactive)
REMARK    1  A    between atoms: C_9  and  C_10 
REMARK       I    between atoms: C_10  and  N_11 
REMARK    2  A    between atoms: N_11  and  C_12 
REMARK    3  A    between atoms: C_19  and  C_20 
REMARK       I    between atoms: C_20  and  N_21 
ROOT
HETATM    1  C   UNL     1      41.534  -9.784   8.470  1.00  0.00     0.035 A 
HETATM    2  C   UNL     1      42.362 -10.686   9.149  1.00  0.00     0.046 A 
HETATM    3  C   UNL     1      42.757 -10.397  10.474  1.00  0.00     0.030 A 
HETATM    4  C   UNL     1      42.290  -9.236  11.078  1.00  0.00     0.063 A 
HETATM    5  N   UNL     1      42.843  -9.230  12.327  1.00  0.00    -0.277 N 
HETATM    6  H   UNL     1      42.723  -8.525  13.046  1.00  0.00     0.189 HD
HETATM    7  N   UNL     1      43.639 -10.278  12.590  1.00  0.00    -0.168 NA
HETATM    8  C   UNL     1      43.598 -11.009  11.452  1.00  0.00     0.156 A 
HETATM    9  C   UNL     1      41.441  -8.332  10.439  1.00  0.00     0.034 A 
HETATM   10  C   UNL     1      41.080  -8.627   9.119  1.00  0.00     0.032 A 
ENDROOT
BRANCH   1  11
HETATM   11  N   UNL     1      41.189  -9.919   7.114  1.00  0.00    -0.325 N 
HETATM   12  C   UNL     1      40.050 -10.492   6.578  1.00  0.00     0.252 C 
HETATM   13  O   UNL     1      38.983 -10.664   7.162  1.00  0.00    -0.270 OA
HETATM   14  H   UNL     1      41.906  -9.681   6.437  1.00  0.00     0.169 HD
BRANCH  12  15
HETATM   15  C   UNL     1      40.260 -11.024   5.142  1.00  0.00     0.225 C 
HETATM   16  C   UNL     1      39.312 -12.212   4.911  1.00  0.00     0.083 C 
HETATM   17  C   UNL     1      40.260 -13.312   5.208  1.00  0.00    -0.021 A 
HETATM   18  C   UNL     1      41.553 -12.831   5.117  1.00  0.00     0.076 A 
HETATM   19  C   UNL     1      40.017 -14.628   5.546  1.00  0.00     0.017 A 
HETATM   20  C   UNL     1      42.652 -13.634   5.332  1.00  0.00     0.044 A 
HETATM   21  O   UNL     1      41.618 -11.475   4.897  1.00  0.00    -0.336 OA
HETATM   22  C   UNL     1      42.438 -14.974   5.694  1.00  0.00    -0.053 A 
HETATM   23  C   UNL     1      41.111 -15.471   5.814  1.00  0.00    -0.055 A 
HETATM   24  C   UNL     1      43.628 -15.847   5.991  1.00  0.00     0.049 C 
HETATM   25  C   UNL     1      40.848 -16.884   6.264  1.00  0.00     0.049 C 
ENDBRANCH  12  15
ENDBRANCH   1  11
BRANCH   8  26
HETATM   26  C   UNL     1      44.367 -12.254  11.321  1.00  0.00     0.270 C 
HETATM   27  N   UNL     1      43.883 -13.291  12.070  1.00  0.00    -0.365 N 
HETATM   28  H   UNL     1      43.066 -13.131  12.648  1.00  0.00     0.159 HD
HETATM   29  H   UNL     1      44.356 -14.180  12.055  1.00  0.00     0.159 HD
HETATM   30  O   UNL     1      45.366 -12.389  10.621  1.00  0.00    -0.266 OA
ENDBRANCH   8  26
TORSDOF 3
ENDMDL
MODEL 7
REMARK VINA RESULT:      -8.1      2.148      3.607
REMARK  3 active torsions:
REMARK  status: ('A' for Active; 'I' for Inactive)
REMARK    1  A    between atoms: C_9  and  C_10 
REMARK       I    between atoms: C_10  and  N_11 
REMARK    2  A    between atoms: N_11  and  C_12 
REMARK    3  A    between atoms: C_19  and  C_20 
REMARK       I    between atoms: C_20  and  N_21 
ROOT
HETATM    1  C   UNL     1      43.553 -16.402   5.660  1.00  0.00     0.035 A 
HETATM    2  C   UNL     1      43.357 -17.196   4.524  1.00  0.00     0.046 A 
HETATM    3  C   UNL     1      44.017 -18.440   4.429  1.00  0.00     0.030 A 
HETATM    4  C   UNL     1      44.826 -18.855   5.480  1.00  0.00     0.063 A 
HETATM    5  N   UNL     1      45.325 -20.068   5.097  1.00  0.00    -0.277 N 
HETATM    6  H   UNL     1      45.959 -20.662   5.619  1.00  0.00     0.189 HD
HETATM    7  N   UNL     1      44.923 -20.478   3.883  1.00  0.00    -0.168 NA
HETATM    8  C   UNL     1      44.114 -19.481   3.456  1.00  0.00     0.156 A 
HETATM    9  C   UNL     1      45.021 -18.100   6.637  1.00  0.00     0.034 A 
HETATM   10  C   UNL     1      44.373 -16.861   6.700  1.00  0.00     0.032 A 
ENDROOT
BRANCH   1  11
HETATM   11  N   UNL     1      43.043 -15.099   5.793  1.00  0.00    -0.325 N 
HETATM   12  C   UNL     1      41.720 -14.694   5.748  1.00  0.00     0.252 C 
HETATM   13  O   UNL     1      40.739 -15.407   5.943  1.00  0.00    -0.270 OA
HETATM   14  H   UNL     1      43.720 -14.343   5.800  1.00  0.00     0.169 HD
BRANCH  12  15
HETATM   15  C   UNL     1      41.554 -13.221   5.312  1.00  0.00     0.225 C 
HETATM   16  C   UNL     1      40.100 -13.000   4.862  1.00  0.00     0.083 C 
HETATM   17  C   UNL     1      40.292 -13.169   3.402  1.00  0.00    -0.021 A 
HETATM   18  C   UNL     1      41.632 -13.007   3.101  1.00  0.00     0.076 A 
HETATM   19  C   UNL     1      39.373 -13.455   2.412  1.00  0.00     0.017 A 
HETATM   20  C   UNL     1      42.110 -13.099   1.812  1.00  0.00     0.044 A 
HETATM   21  O   UNL     1      42.427 -12.853   4.211  1.00  0.00    -0.336 OA
HETATM   22  C   UNL     1      41.203 -13.406   0.784  1.00  0.00    -0.053 A 
HETATM   23  C   UNL     1      39.828 -13.598   1.088  1.00  0.00    -0.055 A 
HETATM   24  C   UNL     1      41.722 -13.568  -0.620  1.00  0.00     0.049 C 
HETATM   25  C   UNL     1      38.842 -13.992   0.020  1.00  0.00     0.049 C 
ENDBRANCH  12  15
ENDBRANCH   1  11
BRANCH   8  26
HETATM   26  C   UNL     1      43.472 -19.536   2.135  1.00  0.00     0.270 C 
HETATM   27  N   UNL     1      43.153 -20.801   1.723  1.00  0.00    -0.365 N 
HETATM   28  H   UNL     1      43.383 -21.580   2.328  1.00  0.00     0.159 HD
HETATM   29  H   UNL     1      42.725 -20.937   0.822  1.00  0.00     0.159 HD
HETATM   30  O   UNL     1      43.237 -18.560   1.430  1.00  0.00    -0.266 OA
ENDBRANCH   8  26
TORSDOF 3
ENDMDL
MODEL 8
REMARK VINA RESULT:      -8.1      2.210      4.030
REMARK  3 active torsions:
REMARK  status: ('A' for Active; 'I' for Inactive)
REMARK    1  A    between atoms: C_9  and  C_10 
REMARK       I    between atoms: C_10  and  N_11 
REMARK    2  A    between atoms: N_11  and  C_12 
REMARK    3  A    between atoms: C_19  and  C_20 
REMARK       I    between atoms: C_20  and  N_21 
ROOT
HETATM    1  C   UNL     1      42.225 -17.904   2.618  1.00  0.00     0.035 A 
HETATM    2  C   UNL     1      42.396 -17.823   4.005  1.00  0.00     0.046 A 
HETATM    3  C   UNL     1      43.311 -18.690   4.640  1.00  0.00     0.030 A 
HETATM    4  C   UNL     1      44.039 -19.585   3.865  1.00  0.00     0.063 A 
HETATM    5  N   UNL     1      44.816 -20.280   4.748  1.00  0.00    -0.277 N 
HETATM    6  H   UNL     1      45.472 -21.022   4.534  1.00  0.00     0.189 HD
HETATM    7  N   UNL     1      44.652 -19.927   6.033  1.00  0.00    -0.168 NA
HETATM    8  C   UNL     1      43.724 -18.944   5.983  1.00  0.00     0.156 A 
HETATM    9  C   UNL     1      43.912 -19.672   2.479  1.00  0.00     0.034 A 
HETATM   10  C   UNL     1      42.983 -18.818   1.873  1.00  0.00     0.032 A 
ENDROOT
BRANCH   1  11
HETATM   11  N   UNL     1      41.252 -17.175   1.912  1.00  0.00    -0.325 N 
HETATM   12  C   UNL     1      41.416 -15.996   1.208  1.00  0.00     0.252 C 
HETATM   13  O   UNL     1      42.476 -15.559   0.767  1.00  0.00    -0.270 OA
HETATM   14  H   UNL     1      40.289 -17.473   2.027  1.00  0.00     0.169 HD
BRANCH  12  15
HETATM   15  C   UNL     1      40.113 -15.172   1.097  1.00  0.00     0.225 C 
HETATM   16  C   UNL     1      40.480 -13.698   0.860  1.00  0.00     0.083 C 
HETATM   17  C   UNL     1      40.389 -13.220   2.260  1.00  0.00    -0.021 A 
HETATM   18  C   UNL     1      39.644 -14.121   2.998  1.00  0.00     0.076 A 
HETATM   19  C   UNL     1      40.926 -12.093   2.852  1.00  0.00     0.017 A 
HETATM   20  C   UNL     1      39.381 -13.933   4.338  1.00  0.00     0.044 A 
HETATM   21  O   UNL     1      39.291 -15.246   2.292  1.00  0.00    -0.336 OA
HETATM   22  C   UNL     1      39.927 -12.806   4.973  1.00  0.00    -0.053 A 
HETATM   23  C   UNL     1      40.716 -11.887   4.228  1.00  0.00    -0.055 A 
HETATM   24  C   UNL     1      39.699 -12.619   6.449  1.00  0.00     0.049 C 
HETATM   25  C   UNL     1      41.369 -10.704   4.893  1.00  0.00     0.049 C 
ENDBRANCH  12  15
ENDBRANCH   1  11
BRANCH   8  26
HETATM   26  C   UNL     1      43.244 -18.289   7.208  1.00  0.00     0.270 C 
HETATM   27  N   UNL     1      43.792 -18.787   8.358  1.00  0.00    -0.365 N 
HETATM   28  H   UNL     1      44.455 -19.550   8.287  1.00  0.00     0.159 HD
HETATM   29  H   UNL     1      43.509 -18.410   9.248  1.00  0.00     0.159 HD
HETATM   30  O   UNL     1      42.418 -17.382   7.239  1.00  0.00    -0.266 OA
ENDBRANCH   8  26
TORSDOF 3
ENDMDL
MODEL 9
REMARK VINA RESULT:      -7.8      2.732      4.705
REMARK  3 active torsions:
REMARK  status: ('A' for Active; 'I' for Inactive)
REMARK    1  A    between atoms: C_9  and  C_10 
REMARK       I    between atoms: C_10  and  N_11 
REMARK    2  A    between atoms: N_11  and  C_12 
REMARK    3  A    between atoms: C_19  and  C_20 
REMARK       I    between atoms: C_20  and  N_21 
ROOT
HETATM    1  C   UNL     1      42.196 -17.604   3.078  1.00  0.00     0.035 A 
HETATM    2  C   UNL     1      42.692 -18.888   2.825  1.00  0.00     0.046 A 
HETATM    3  C   UNL     1      43.740 -19.394   3.626  1.00  0.00     0.030 A 
HETATM    4  C   UNL     1      44.232 -18.611   4.663  1.00  0.00     0.063 A 
HETATM    5  N   UNL     1      45.225 -19.353   5.237  1.00  0.00    -0.277 N 
HETATM    6  H   UNL     1      45.809 -19.090   6.024  1.00  0.00     0.189 HD
HETATM    7  N   UNL     1      45.434 -20.547   4.660  1.00  0.00    -0.168 NA
HETATM    8  C   UNL     1      44.523 -20.587   3.661  1.00  0.00     0.156 A 
HETATM    9  C   UNL     1      43.741 -17.339   4.959  1.00  0.00     0.034 A 
HETATM   10  C   UNL     1      42.718 -16.849   4.139  1.00  0.00     0.032 A 
ENDROOT
BRANCH   1  11
HETATM   11  N   UNL     1      41.246 -16.965   2.262  1.00  0.00    -0.325 N 
HETATM   12  C   UNL     1      41.467 -16.001   1.294  1.00  0.00     0.252 C 
HETATM   13  O   UNL     1      42.530 -15.782   0.720  1.00  0.00    -0.270 OA
HETATM   14  H   UNL     1      40.271 -17.133   2.483  1.00  0.00     0.169 HD
BRANCH  12  15
HETATM   15  C   UNL     1      40.235 -15.101   1.047  1.00  0.00     0.225 C 
HETATM   16  C   UNL     1      40.714 -13.657   0.828  1.00  0.00     0.083 C 
HETATM   17  C   UNL     1      40.520 -13.148   2.206  1.00  0.00    -0.021 A 
HETATM   18  C   UNL     1      39.652 -13.987   2.880  1.00  0.00     0.076 A 
HETATM   19  C   UNL     1      41.067 -12.045   2.832  1.00  0.00     0.017 A 
HETATM   20  C   UNL     1      39.274 -13.758   4.185  1.00  0.00     0.044 A 
HETATM   21  O   UNL     1      39.299 -15.102   2.157  1.00  0.00    -0.336 OA
HETATM   22  C   UNL     1      39.826 -12.655   4.855  1.00  0.00    -0.053 A 
HETATM   23  C   UNL     1      40.739 -11.800   4.178  1.00  0.00    -0.055 A 
HETATM   24  C   UNL     1      39.469 -12.426   6.300  1.00  0.00     0.049 C 
HETATM   25  C   UNL     1      41.398 -10.647   4.888  1.00  0.00     0.049 C 
ENDBRANCH  12  15
ENDBRANCH   1  11
BRANCH   8  26
HETATM   26  C   UNL     1      44.434 -21.745   2.760  1.00  0.00     0.270 C 
HETATM   27  N   UNL     1      44.732 -22.939   3.356  1.00  0.00    -0.365 N 
HETATM   28  H   UNL     1      44.994 -22.940   4.335  1.00  0.00     0.159 HD
HETATM   29  H   UNL     1      44.713 -23.786   2.811  1.00  0.00     0.159 HD
HETATM   30  O   UNL     1      44.133 -21.685   1.572  1.00  0.00    -0.266 OA
ENDBRANCH   8  26
TORSDOF 3
ENDMDL
MODEL 10
REMARK VINA RESULT:      -7.8      2.065      3.096
REMARK  3 active torsions:
REMARK  status: ('A' for Active; 'I' for Inactive)
REMARK    1  A    between atoms: C_9  and  C_10 
REMARK       I    between atoms: C_10  and  N_11 
REMARK    2  A    between atoms: N_11  and  C_12 
REMARK    3  A    between atoms: C_19  and  C_20 
REMARK       I    between atoms: C_20  and  N_21 
ROOT
HETATM    1  C   UNL     1      41.070 -16.277   4.635  1.00  0.00     0.035 A 
HETATM    2  C   UNL     1      41.874 -17.138   3.878  1.00  0.00     0.046 A 
HETATM    3  C   UNL     1      42.794 -17.982   4.538  1.00  0.00     0.030 A 
HETATM    4  C   UNL     1      42.857 -17.954   5.925  1.00  0.00     0.063 A 
HETATM    5  N   UNL     1      43.828 -18.854   6.262  1.00  0.00    -0.277 N 
HETATM    6  H   UNL     1      44.148 -19.091   7.195  1.00  0.00     0.189 HD
HETATM    7  N   UNL     1      44.414 -19.460   5.217  1.00  0.00    -0.168 NA
HETATM    8  C   UNL     1      43.785 -18.931   4.142  1.00  0.00     0.156 A 
HETATM    9  C   UNL     1      42.052 -17.129   6.710  1.00  0.00     0.034 A 
HETATM   10  C   UNL     1      41.162 -16.285   6.034  1.00  0.00     0.032 A 
ENDROOT
BRANCH   1  11
HETATM   11  N   UNL     1      40.218 -15.314   4.068  1.00  0.00    -0.325 N 
HETATM   12  C   UNL     1      39.768 -15.239   2.762  1.00  0.00     0.252 C 
HETATM   13  O   UNL     1      39.728 -16.165   1.956  1.00  0.00    -0.270 OA
HETATM   14  H   UNL     1      39.998 -14.507   4.642  1.00  0.00     0.169 HD
BRANCH  12  15
HETATM   15  C   UNL     1      39.393 -13.801   2.334  1.00  0.00     0.225 C 
HETATM   16  C   UNL     1      38.428 -13.878   1.139  1.00  0.00     0.083 C 
HETATM   17  C   UNL     1      39.414 -13.698   0.047  1.00  0.00    -0.021 A 
HETATM   18  C   UNL     1      40.567 -13.140   0.567  1.00  0.00     0.076 A 
HETATM   19  C   UNL     1      39.320 -14.008  -1.295  1.00  0.00     0.017 A 
HETATM   20  C   UNL     1      41.660 -12.846  -0.220  1.00  0.00     0.044 A 
HETATM   21  O   UNL     1      40.543 -13.010   1.935  1.00  0.00    -0.336 OA
HETATM   22  C   UNL     1      41.602 -13.166  -1.587  1.00  0.00    -0.053 A 
HETATM   23  C   UNL     1      40.429 -13.762  -2.125  1.00  0.00    -0.055 A 
HETATM   24  C   UNL     1      42.810 -12.906  -2.446  1.00  0.00     0.049 C 
HETATM   25  C   UNL     1      40.361 -14.176  -3.571  1.00  0.00     0.049 C 
ENDBRANCH  12  15
ENDBRANCH   1  11
BRANCH   8  26
HETATM   26  C   UNL     1      44.153 -19.326   2.775  1.00  0.00     0.270 C 
HETATM   27  N   UNL     1      44.315 -20.674   2.609  1.00  0.00    -0.365 N 
HETATM   28  H   UNL     1      44.186 -21.280   3.411  1.00  0.00     0.159 HD
HETATM   29  H   UNL     1      44.584 -21.035   1.708  1.00  0.00     0.159 HD
HETATM   30  O   UNL     1      44.320 -18.546   1.843  1.00  0.00    -0.266 OA
ENDBRANCH   8  26
TORSDOF 3
ENDMDL
