MODEL 1
REMARK VINA RESULT:      -8.1      0.000      0.000
REMARK  2 active torsions:
REMARK  status: ('A' for Active; 'I' for Inactive)
REMARK    1  A    between atoms: C_8  and  S_9 
REMARK    2  A    between atoms: S_9  and  C_10 
ROOT
HETATM    1  C   UNL     1      43.970 -21.856   1.803  1.00  0.00     0.002 A 
HETATM    2  C   UNL     1      43.578 -20.517   1.844  1.00  0.00     0.034 A 
HETATM    3  C   UNL     1      43.827 -19.727   2.958  1.00  0.00     0.087 A 
HETATM    4  C   UNL     1      44.498 -20.298   4.074  1.00  0.00     0.087 A 
HETATM    5  N   UNL     1      44.764 -19.576   5.180  1.00  0.00    -0.232 NA
HETATM    6  C   UNL     1      44.390 -18.281   5.158  1.00  0.00     0.164 A 
HETATM    7 CL   UNL     1      44.753 -17.421   6.598  1.00  0.00    -0.059 Cl
HETATM    8  C   UNL     1      43.734 -17.724   4.075  1.00  0.00     0.165 A 
HETATM    9  N   UNL     1      43.424 -18.440   2.965  1.00  0.00    -0.234 NA
HETATM   10  C   UNL     1      44.880 -21.632   4.020  1.00  0.00     0.034 A 
HETATM   11  C   UNL     1      44.622 -22.415   2.894  1.00  0.00     0.002 A 
ENDROOT
BRANCH   8  12
HETATM   12  S   UNL     1      43.194 -16.021   3.997  1.00  0.00     0.076 S 
HETATM   13  O   UNL     1      43.583 -15.470   2.656  1.00  0.00    -0.251 OA
BRANCH  12  14
HETATM   14  C   UNL     1      41.373 -16.275   3.951  1.00  0.00     0.089 C 
HETATM   15  C   UNL     1      40.552 -14.980   3.959  1.00  0.00     0.045 C 
HETATM   16  C   UNL     1      40.587 -14.243   5.290  1.00  0.00     0.233 C 
HETATM   17  N   UNL     1      40.173 -15.175   6.383  1.00  0.00    -0.075 N 
HETATM   18  H   UNL     1      39.173 -15.401   6.295  1.00  0.00     0.277 HD
HETATM   19  H   UNL     1      40.265 -14.670   7.276  1.00  0.00     0.277 HD
HETATM   20  C   UNL     1      40.978 -16.427   6.477  1.00  0.00     0.233 C 
HETATM   21  C   UNL     1      40.962 -17.160   5.139  1.00  0.00     0.045 C 
ENDBRANCH  12  14
ENDBRANCH   8  12
TORSDOF 2
ENDMDL
MODEL 2
REMARK VINA RESULT:      -7.5      1.628      2.202
REMARK  2 active torsions:
REMARK  status: ('A' for Active; 'I' for Inactive)
REMARK    1  A    between atoms: C_8  and  S_9 
REMARK    2  A    between atoms: S_9  and  C_10 
ROOT
HETATM    1  C   UNL     1      44.974 -22.172   4.786  1.00  0.00     0.002 A 
HETATM    2  C   UNL     1      44.716 -20.831   5.073  1.00  0.00     0.034 A 
HETATM    3  C   UNL     1      44.263 -19.958   4.092  1.00  0.00     0.087 A 
HETATM    4  C   UNL     1      44.059 -20.447   2.773  1.00  0.00     0.087 A 
HETATM    5  N   UNL     1      43.622 -19.642   1.784  1.00  0.00    -0.232 NA
HETATM    6  C   UNL     1      43.360 -18.363   2.121  1.00  0.00     0.164 A 
HETATM    7 CL   UNL     1      42.813 -17.393   0.816  1.00  0.00    -0.059 Cl
HETATM    8  C   UNL     1      43.561 -17.885   3.403  1.00  0.00     0.165 A 
HETATM    9  N   UNL     1      44.034 -18.666   4.406  1.00  0.00    -0.234 NA
HETATM   10  C   UNL     1      44.323 -21.783   2.501  1.00  0.00     0.034 A 
HETATM   11  C   UNL     1      44.779 -22.649   3.496  1.00  0.00     0.002 A 
ENDROOT
BRANCH   8  12
HETATM   12  S   UNL     1      43.253 -16.196   3.903  1.00  0.00     0.076 S 
HETATM   13  O   UNL     1      43.718 -15.291   2.799  1.00  0.00    -0.251 OA
BRANCH  12  14
HETATM   14  C   UNL     1      41.414 -16.186   3.848  1.00  0.00     0.089 C 
HETATM   15  C   UNL     1      40.782 -14.797   3.995  1.00  0.00     0.045 C 
HETATM   16  C   UNL     1      40.912 -14.213   5.394  1.00  0.00     0.233 C 
HETATM   17  N   UNL     1      40.366 -15.184   6.389  1.00  0.00    -0.075 N 
HETATM   18  H   UNL     1      39.344 -15.258   6.288  1.00  0.00     0.277 HD
HETATM   19  H   UNL     1      40.523 -14.791   7.329  1.00  0.00     0.277 HD
HETATM   20  C   UNL     1      40.987 -16.539   6.348  1.00  0.00     0.233 C 
HETATM   21  C   UNL     1      40.876 -17.123   4.942  1.00  0.00     0.045 C 
ENDBRANCH  12  14
ENDBRANCH   8  12
TORSDOF 2
ENDMDL
MODEL 3
REMARK VINA RESULT:      -7.3      2.005      2.371
REMARK  2 active torsions:
REMARK  status: ('A' for Active; 'I' for Inactive)
REMARK    1  A    between atoms: C_8  and  S_9 
REMARK    2  A    between atoms: S_9  and  C_10 
ROOT
HETATM    1  C   UNL     1      44.093 -21.917   1.990  1.00  0.00     0.002 A 
HETATM    2  C   UNL     1      43.556 -20.642   1.812  1.00  0.00     0.034 A 
HETATM    3  C   UNL     1      43.644 -19.678   2.807  1.00  0.00     0.087 A 
HETATM    4  C   UNL     1      44.298 -20.001   4.027  1.00  0.00     0.087 A 
HETATM    5  N   UNL     1      44.411 -19.101   5.025  1.00  0.00    -0.232 NA
HETATM    6  C   UNL     1      43.900 -17.876   4.791  1.00  0.00     0.164 A 
HETATM    7 CL   UNL     1      44.072 -16.784   6.103  1.00  0.00    -0.059 Cl
HETATM    8  C   UNL     1      43.260 -17.561   3.607  1.00  0.00     0.165 A 
HETATM    9  N   UNL     1      43.102 -18.459   2.602  1.00  0.00    -0.234 NA
HETATM   10  C   UNL     1      44.826 -21.275   4.191  1.00  0.00     0.034 A 
HETATM   11  C   UNL     1      44.729 -22.235   3.183  1.00  0.00     0.002 A 
ENDROOT
BRANCH   8  12
HETATM   12  S   UNL     1      42.543 -15.961   3.249  1.00  0.00     0.076 S 
HETATM   13  O   UNL     1      43.657 -15.022   2.890  1.00  0.00    -0.251 OA
BRANCH  12  14
HETATM   14  C   UNL     1      41.666 -16.358   1.682  1.00  0.00     0.089 C 
HETATM   15  C   UNL     1      41.894 -15.345   0.553  1.00  0.00     0.045 C 
HETATM   16  C   UNL     1      41.217 -14.003   0.791  1.00  0.00     0.233 C 
HETATM   17  N   UNL     1      39.764 -14.223   1.060  1.00  0.00    -0.075 N 
HETATM   18  H   UNL     1      39.291 -14.547   0.205  1.00  0.00     0.277 HD
HETATM   19  H   UNL     1      39.345 -13.307   1.278  1.00  0.00     0.277 HD
HETATM   20  C   UNL     1      39.470 -15.146   2.194  1.00  0.00     0.233 C 
HETATM   21  C   UNL     1      40.161 -16.487   1.970  1.00  0.00     0.045 C 
ENDBRANCH  12  14
ENDBRANCH   8  12
TORSDOF 2
ENDMDL
MODEL 4
REMARK VINA RESULT:      -7.3      2.103      2.483
REMARK  2 active torsions:
REMARK  status: ('A' for Active; 'I' for Inactive)
REMARK    1  A    between atoms: C_8  and  S_9 
REMARK    2  A    between atoms: S_9  and  C_10 
ROOT
HETATM    1  C   UNL     1      43.712 -21.047   1.739  1.00  0.00     0.002 A 
HETATM    2  C   UNL     1      42.987 -19.890   2.028  1.00  0.00     0.034 A 
HETATM    3  C   UNL     1      43.257 -19.135   3.161  1.00  0.00     0.087 A 
HETATM    4  C   UNL     1      44.295 -19.551   4.038  1.00  0.00     0.087 A 
HETATM    5  N   UNL     1      44.598 -18.854   5.151  1.00  0.00    -0.232 NA
HETATM    6  C   UNL     1      43.888 -17.729   5.369  1.00  0.00     0.164 A 
HETATM    7 CL   UNL     1      44.320 -16.894   6.804  1.00  0.00    -0.059 Cl
HETATM    8  C   UNL     1      42.875 -17.324   4.519  1.00  0.00     0.165 A 
HETATM    9  N   UNL     1      42.528 -18.028   3.412  1.00  0.00    -0.234 NA
HETATM   10  C   UNL     1      45.007 -20.706   3.739  1.00  0.00     0.034 A 
HETATM   11  C   UNL     1      44.723 -21.457   2.597  1.00  0.00     0.002 A 
ENDROOT
BRANCH   8  12
HETATM   12  S   UNL     1      41.884 -15.856   4.768  1.00  0.00     0.076 S 
HETATM   13  O   UNL     1      41.333 -15.897   6.163  1.00  0.00    -0.251 OA
BRANCH  12  14
HETATM   14  C   UNL     1      43.211 -14.582   4.765  1.00  0.00     0.089 C 
HETATM   15  C   UNL     1      42.910 -13.350   5.627  1.00  0.00     0.045 C 
HETATM   16  C   UNL     1      41.817 -12.458   5.055  1.00  0.00     0.233 C 
HETATM   17  N   UNL     1      42.167 -12.086   3.651  1.00  0.00    -0.075 N 
HETATM   18  H   UNL     1      42.979 -11.454   3.644  1.00  0.00     0.277 HD
HETATM   19  H   UNL     1      41.384 -11.536   3.269  1.00  0.00     0.277 HD
HETATM   20  C   UNL     1      42.405 -13.241   2.738  1.00  0.00     0.233 C 
HETATM   21  C   UNL     1      43.486 -14.149   3.315  1.00  0.00     0.045 C 
ENDBRANCH  12  14
ENDBRANCH   8  12
TORSDOF 2
ENDMDL
MODEL 5
REMARK VINA RESULT:      -7.2      2.674      3.446
REMARK  2 active torsions:
REMARK  status: ('A' for Active; 'I' for Inactive)
REMARK    1  A    between atoms: C_8  and  S_9 
REMARK    2  A    between atoms: S_9  and  C_10 
ROOT
HETATM    1  C   UNL     1      44.999 -20.715   4.073  1.00  0.00     0.002 A 
HETATM    2  C   UNL     1      44.398 -19.602   4.661  1.00  0.00     0.034 A 
HETATM    3  C   UNL     1      43.477 -18.829   3.966  1.00  0.00     0.087 A 
HETATM    4  C   UNL     1      43.141 -19.186   2.632  1.00  0.00     0.087 A 
HETATM    5  N   UNL     1      42.253 -18.470   1.914  1.00  0.00    -0.232 NA
HETATM    6  C   UNL     1      41.680 -17.421   2.538  1.00  0.00     0.164 A 
HETATM    7 CL   UNL     1      40.566 -16.551   1.566  1.00  0.00    -0.059 Cl
HETATM    8  C   UNL     1      42.008 -17.070   3.835  1.00  0.00     0.165 A 
HETATM    9  N   UNL     1      42.925 -17.754   4.565  1.00  0.00    -0.234 NA
HETATM   10  C   UNL     1      43.749 -20.296   2.059  1.00  0.00     0.034 A 
HETATM   11  C   UNL     1      44.675 -21.062   2.768  1.00  0.00     0.002 A 
ENDROOT
BRANCH   8  12
HETATM   12  S   UNL     1      41.299 -15.678   4.706  1.00  0.00     0.076 S 
HETATM   13  O   UNL     1      41.037 -16.100   6.123  1.00  0.00    -0.251 OA
BRANCH  12  14
HETATM   14  C   UNL     1      42.762 -14.564   4.753  1.00  0.00     0.089 C 
HETATM   15  C   UNL     1      42.523 -13.234   5.477  1.00  0.00     0.045 C 
HETATM   16  C   UNL     1      41.610 -12.282   4.718  1.00  0.00     0.233 C 
HETATM   17  N   UNL     1      42.143 -12.079   3.338  1.00  0.00    -0.075 N 
HETATM   18  H   UNL     1      43.020 -11.543   3.372  1.00  0.00     0.277 HD
HETATM   19  H   UNL     1      41.474 -11.482   2.829  1.00  0.00     0.277 HD
HETATM   20  C   UNL     1      42.333 -13.331   2.550  1.00  0.00     0.233 C 
HETATM   21  C   UNL     1      43.234 -14.297   3.314  1.00  0.00     0.045 C 
ENDBRANCH  12  14
ENDBRANCH   8  12
TORSDOF 2
ENDMDL
MODEL 6
REMARK VINA RESULT:      -7.0      1.600      1.819
REMARK  2 active torsions:
REMARK  status: ('A' for Active; 'I' for Inactive)
REMARK    1  A    between atoms: C_8  and  S_9 
REMARK    2  A    between atoms: S_9  and  C_10 
ROOT
HETATM    1  C   UNL     1      43.860 -21.301   1.722  1.00  0.00     0.002 A 
HETATM    2  C   UNL     1      43.402 -20.023   2.047  1.00  0.00     0.034 A 
HETATM    3  C   UNL     1      43.630 -19.473   3.301  1.00  0.00     0.087 A 
HETATM    4  C   UNL     1      44.345 -20.230   4.268  1.00  0.00     0.087 A 
HETATM    5  N   UNL     1      44.593 -19.743   5.501  1.00  0.00    -0.232 NA
HETATM    6  C   UNL     1      44.154 -18.494   5.754  1.00  0.00     0.164 A 
HETATM    7 CL   UNL     1      44.497 -17.939   7.341  1.00  0.00    -0.059 Cl
HETATM    8  C   UNL     1      43.455 -17.757   4.815  1.00  0.00     0.165 A 
HETATM    9  N   UNL     1      43.163 -18.239   3.581  1.00  0.00    -0.234 NA
HETATM   10  C   UNL     1      44.793 -21.501   3.932  1.00  0.00     0.034 A 
HETATM   11  C   UNL     1      44.556 -22.043   2.668  1.00  0.00     0.002 A 
ENDROOT
BRANCH   8  12
HETATM   12  S   UNL     1      42.829 -16.106   5.100  1.00  0.00     0.076 S 
HETATM   13  O   UNL     1      43.972 -15.248   5.561  1.00  0.00    -0.251 OA
BRANCH  12  14
HETATM   14  C   UNL     1      42.465 -15.609   3.368  1.00  0.00     0.089 C 
HETATM   15  C   UNL     1      43.057 -14.255   2.958  1.00  0.00     0.045 C 
HETATM   16  C   UNL     1      42.377 -13.066   3.622  1.00  0.00     0.233 C 
HETATM   17  N   UNL     1      40.906 -13.132   3.369  1.00  0.00    -0.075 N 
HETATM   18  H   UNL     1      40.710 -12.957   2.375  1.00  0.00     0.277 HD
HETATM   19  H   UNL     1      40.466 -12.353   3.880  1.00  0.00     0.277 HD
HETATM   20  C   UNL     1      40.252 -14.398   3.809  1.00  0.00     0.233 C 
HETATM   21  C   UNL     1      40.941 -15.595   3.161  1.00  0.00     0.045 C 
ENDBRANCH  12  14
ENDBRANCH   8  12
TORSDOF 2
ENDMDL
MODEL 7
REMARK VINA RESULT:      -6.5      2.233      3.020
REMARK  2 active torsions:
REMARK  status: ('A' for Active; 'I' for Inactive)
REMARK    1  A    between atoms: C_8  and  S_9 
REMARK    2  A    between atoms: S_9  and  C_10 
ROOT
HETATM    1  C   UNL     1      44.805 -19.765   5.002  1.00  0.00     0.002 A 
HETATM    2  C   UNL     1      44.472 -18.421   5.170  1.00  0.00     0.034 A 
HETATM    3  C   UNL     1      43.916 -17.681   4.134  1.00  0.00     0.087 A 
HETATM    4  C   UNL     1      43.683 -18.313   2.882  1.00  0.00     0.087 A 
HETATM    5  N   UNL     1      43.147 -17.640   1.844  1.00  0.00    -0.232 NA
HETATM    6  C   UNL     1      42.816 -16.352   2.067  1.00  0.00     0.164 A 
HETATM    7 CL   UNL     1      42.144 -15.555   0.705  1.00  0.00    -0.059 Cl
HETATM    8  C   UNL     1      43.045 -15.736   3.284  1.00  0.00     0.165 A 
HETATM    9  N   UNL     1      43.617 -16.381   4.331  1.00  0.00    -0.234 NA
HETATM   10  C   UNL     1      44.022 -19.651   2.729  1.00  0.00     0.034 A 
HETATM   11  C   UNL     1      44.581 -20.382   3.778  1.00  0.00     0.002 A 
ENDROOT
BRANCH   8  12
HETATM   12  S   UNL     1      42.649 -14.027   3.632  1.00  0.00     0.076 S 
HETATM   13  O   UNL     1      42.992 -13.213   2.418  1.00  0.00    -0.251 OA
BRANCH  12  14
HETATM   14  C   UNL     1      40.814 -14.138   3.687  1.00  0.00     0.089 C 
HETATM   15  C   UNL     1      40.120 -12.895   4.256  1.00  0.00     0.045 C 
HETATM   16  C   UNL     1      40.323 -12.714   5.753  1.00  0.00     0.233 C 
HETATM   17  N   UNL     1      39.908 -13.961   6.463  1.00  0.00    -0.075 N 
HETATM   18  H   UNL     1      38.887 -14.079   6.404  1.00  0.00     0.277 HD
HETATM   19  H   UNL     1      40.114 -13.834   7.465  1.00  0.00     0.277 HD
HETATM   20  C   UNL     1      40.598 -15.201   6.006  1.00  0.00     0.233 C 
HETATM   21  C   UNL     1      40.413 -15.379   4.502  1.00  0.00     0.045 C 
ENDBRANCH  12  14
ENDBRANCH   8  12
TORSDOF 2
ENDMDL
MODEL 8
REMARK VINA RESULT:      -6.4      3.375      5.742
REMARK  2 active torsions:
REMARK  status: ('A' for Active; 'I' for Inactive)
REMARK    1  A    between atoms: C_8  and  S_9 
REMARK    2  A    between atoms: S_9  and  C_10 
ROOT
HETATM    1  C   UNL     1      38.503 -14.255   0.959  1.00  0.00     0.002 A 
HETATM    2  C   UNL     1      38.934 -15.191   1.900  1.00  0.00     0.034 A 
HETATM    3  C   UNL     1      40.213 -15.730   1.846  1.00  0.00     0.087 A 
HETATM    4  C   UNL     1      41.096 -15.314   0.813  1.00  0.00     0.087 A 
HETATM    5  N   UNL     1      42.347 -15.805   0.716  1.00  0.00    -0.232 NA
HETATM    6  C   UNL     1      42.724 -16.685   1.666  1.00  0.00     0.164 A 
HETATM    7 CL   UNL     1      44.324 -17.275   1.479  1.00  0.00    -0.059 Cl
HETATM    8  C   UNL     1      41.866 -17.094   2.670  1.00  0.00     0.165 A 
HETATM    9  N   UNL     1      40.591 -16.641   2.767  1.00  0.00    -0.234 NA
HETATM   10  C   UNL     1      40.653 -14.383  -0.117  1.00  0.00     0.034 A 
HETATM   11  C   UNL     1      39.364 -13.851  -0.053  1.00  0.00     0.002 A 
ENDROOT
BRANCH   8  12
HETATM   12  S   UNL     1      42.301 -18.273   3.942  1.00  0.00     0.076 S 
HETATM   13  O   UNL     1      43.132 -19.353   3.312  1.00  0.00    -0.251 OA
BRANCH  12  14
HETATM   14  C   UNL     1      43.450 -17.242   4.941  1.00  0.00     0.089 C 
HETATM   15  C   UNL     1      44.456 -18.041   5.778  1.00  0.00     0.045 C 
HETATM   16  C   UNL     1      43.826 -18.777   6.951  1.00  0.00     0.233 C 
HETATM   17  N   UNL     1      43.051 -17.808   7.784  1.00  0.00    -0.075 N 
HETATM   18  H   UNL     1      43.693 -17.162   8.263  1.00  0.00     0.277 HD
HETATM   19  H   UNL     1      42.586 -18.342   8.533  1.00  0.00     0.277 HD
HETATM   20  C   UNL     1      42.004 -17.045   7.045  1.00  0.00     0.233 C 
HETATM   21  C   UNL     1      42.628 -16.319   5.857  1.00  0.00     0.045 C 
ENDBRANCH  12  14
ENDBRANCH   8  12
TORSDOF 2
ENDMDL
MODEL 9
REMARK VINA RESULT:      -6.4      2.874      4.327
REMARK  2 active torsions:
REMARK  status: ('A' for Active; 'I' for Inactive)
REMARK    1  A    between atoms: C_8  and  S_9 
REMARK    2  A    between atoms: S_9  and  C_10 
ROOT
HETATM    1  C   UNL     1      43.199 -17.355   8.005  1.00  0.00     0.002 A 
HETATM    2  C   UNL     1      42.670 -16.804   6.837  1.00  0.00     0.034 A 
HETATM    3  C   UNL     1      42.844 -17.424   5.606  1.00  0.00     0.087 A 
HETATM    4  C   UNL     1      43.572 -18.642   5.543  1.00  0.00     0.087 A 
HETATM    5  N   UNL     1      43.770 -19.284   4.373  1.00  0.00    -0.232 NA
HETATM    6  C   UNL     1      43.215 -18.725   3.279  1.00  0.00     0.164 A 
HETATM    7 CL   UNL     1      43.509 -19.588   1.826  1.00  0.00    -0.059 Cl
HETATM    8  C   UNL     1      42.508 -17.538   3.339  1.00  0.00     0.165 A 
HETATM    9  N   UNL     1      42.327 -16.856   4.497  1.00  0.00    -0.234 NA
HETATM   10  C   UNL     1      44.095 -19.177   6.713  1.00  0.00     0.034 A 
HETATM   11  C   UNL     1      43.914 -18.543   7.943  1.00  0.00     0.002 A 
ENDROOT
BRANCH   8  12
HETATM   12  S   UNL     1      41.770 -16.739   1.920  1.00  0.00     0.076 S 
HETATM   13  O   UNL     1      40.654 -17.611   1.422  1.00  0.00    -0.251 OA
BRANCH  12  14
HETATM   14  C   UNL     1      40.979 -15.300   2.750  1.00  0.00     0.089 C 
HETATM   15  C   UNL     1      39.558 -14.990   2.266  1.00  0.00     0.045 C 
HETATM   16  C   UNL     1      39.504 -14.422   0.855  1.00  0.00     0.233 C 
HETATM   17  N   UNL     1      40.397 -13.227   0.769  1.00  0.00    -0.075 N 
HETATM   18  H   UNL     1      40.006 -12.452   1.322  1.00  0.00     0.277 HD
HETATM   19  H   UNL     1      40.390 -12.901  -0.209  1.00  0.00     0.277 HD
HETATM   20  C   UNL     1      41.815 -13.475   1.160  1.00  0.00     0.233 C 
HETATM   21  C   UNL     1      41.874 -14.063   2.567  1.00  0.00     0.045 C 
ENDBRANCH  12  14
ENDBRANCH   8  12
TORSDOF 2
ENDMDL
MODEL 10
REMARK VINA RESULT:      -6.3      5.086      6.223
REMARK  2 active torsions:
REMARK  status: ('A' for Active; 'I' for Inactive)
REMARK    1  A    between atoms: C_8  and  S_9 
REMARK    2  A    between atoms: S_9  and  C_10 
ROOT
HETATM    1  C   UNL     1      43.967 -18.682   1.918  1.00  0.00     0.002 A 
HETATM    2  C   UNL     1      43.611 -17.638   1.064  1.00  0.00     0.034 A 
HETATM    3  C   UNL     1      42.583 -16.761   1.386  1.00  0.00     0.087 A 
HETATM    4  C   UNL     1      41.887 -16.934   2.612  1.00  0.00     0.087 A 
HETATM    5  N   UNL     1      40.881 -16.111   2.973  1.00  0.00    -0.232 NA
HETATM    6  C   UNL     1      40.596 -15.102   2.126  1.00  0.00     0.164 A 
HETATM    7 CL   UNL     1      39.305 -14.098   2.642  1.00  0.00    -0.059 Cl
HETATM    8  C   UNL     1      41.271 -14.934   0.931  1.00  0.00     0.165 A 
HETATM    9  N   UNL     1      42.262 -15.770   0.530  1.00  0.00    -0.234 NA
HETATM   10  C   UNL     1      42.249 -17.979   3.452  1.00  0.00     0.034 A 
HETATM   11  C   UNL     1      43.283 -18.854   3.115  1.00  0.00     0.002 A 
ENDROOT
BRANCH   8  12
HETATM   12  S   UNL     1      40.923 -13.629  -0.242  1.00  0.00     0.076 S 
HETATM   13  O   UNL     1      42.231 -13.043  -0.688  1.00  0.00    -0.251 OA
BRANCH  12  14
HETATM   14  C   UNL     1      40.293 -14.635  -1.647  1.00  0.00     0.089 C 
HETATM   15  C   UNL     1      41.157 -14.570  -2.912  1.00  0.00     0.045 C 
HETATM   16  C   UNL     1      41.097 -13.227  -3.625  1.00  0.00     0.233 C 
HETATM   17  N   UNL     1      39.671 -12.879  -3.904  1.00  0.00    -0.075 N 
HETATM   18  H   UNL     1      39.285 -13.512  -4.617  1.00  0.00     0.277 HD
HETATM   19  H   UNL     1      39.655 -11.940  -4.329  1.00  0.00     0.277 HD
HETATM   20  C   UNL     1      38.786 -12.854  -2.703  1.00  0.00     0.233 C 
HETATM   21  C   UNL     1      38.856 -14.192  -1.974  1.00  0.00     0.045 C 
ENDBRANCH  12  14
ENDBRANCH   8  12
TORSDOF 2
ENDMDL
