MODEL 1
REMARK VINA RESULT:      -8.9      0.000      0.000
REMARK  10 active torsions:
REMARK  status: ('A' for Active; 'I' for Inactive)
REMARK    1  A    between atoms: O_2  and  C_3 
REMARK    2  A    between atoms: C_3  and  C_4 
REMARK    3  A    between atoms: C_8  and  N_9 
REMARK       I    between atoms: N_9  and  C_10 
REMARK    4  A    between atoms: C_10  and  C_11 
REMARK    5  A    between atoms: C_12  and  C_13 
REMARK    6  A    between atoms: C_22  and  C_23 
REMARK    7  A    between atoms: C_23  and  N_24 
REMARK    8  A    between atoms: C_26  and  C_27 
REMARK    9  A    between atoms: C_27  and  C_28 
REMARK   10  A    between atoms: C_28  and  O_29 
ROOT
HETATM    1  C   UNL     1      40.117 -13.659   3.818  1.00  0.00     0.110 C 
HETATM    2  S   UNL     1      39.451 -12.342   4.682  1.00  0.00    -0.061 SA
HETATM    3  C   UNL     1      40.767 -12.284   5.747  1.00  0.00     0.111 A 
HETATM    4  C   UNL     1      41.728 -13.251   5.480  1.00  0.00     0.028 A 
HETATM    5  C   UNL     1      41.294 -14.121   4.406  1.00  0.00     0.071 C 
HETATM    6  N   UNL     1      40.803 -11.341   6.714  1.00  0.00    -0.243 NA
HETATM    7  C   UNL     1      41.931 -11.320   7.455  1.00  0.00     0.061 A 
HETATM    8  C   UNL     1      42.997 -12.186   7.255  1.00  0.00     0.030 A 
HETATM    9  C   UNL     1      42.902 -13.160   6.263  1.00  0.00     0.019 A 
ENDROOT
BRANCH   5  10
HETATM   10  N   UNL     1      41.928 -15.265   3.900  1.00  0.00    -0.321 N 
HETATM   11  C   UNL     1      43.091 -15.290   3.163  1.00  0.00     0.245 C 
HETATM   12  O   UNL     1      43.806 -14.332   2.897  1.00  0.00    -0.268 OA
HETATM   13  H   UNL     1      41.601 -16.153   4.283  1.00  0.00     0.169 HD
BRANCH  11  14
HETATM   14  C   UNL     1      43.453 -16.671   2.740  1.00  0.00     0.075 C 
HETATM   15  C   UNL     1      43.265 -17.697   3.583  1.00  0.00     0.017 C 
BRANCH  15  16
HETATM   16  C   UNL     1      43.669 -19.069   3.262  1.00  0.00    -0.036 A 
HETATM   17  C   UNL     1      44.420 -19.788   4.203  1.00  0.00     0.014 A 
HETATM   18  C   UNL     1      44.824 -21.097   3.930  1.00  0.00     0.043 A 
HETATM   19  C   UNL     1      44.466 -21.687   2.725  1.00  0.00     0.116 A 
HETATM   20  F   UNL     1      44.856 -22.941   2.463  1.00  0.00    -0.206 F 
HETATM   21  C   UNL     1      43.705 -20.997   1.789  1.00  0.00     0.043 A 
HETATM   22  C   UNL     1      43.304 -19.686   2.058  1.00  0.00     0.014 A 
ENDBRANCH  15  16
ENDBRANCH  11  14
ENDBRANCH   5  10
BRANCH   1  23
HETATM   23  C   UNL     1      39.460 -14.218   2.645  1.00  0.00     0.302 C 
HETATM   24  O   UNL     1      39.588 -15.386   2.290  1.00  0.00    -0.259 OA
BRANCH  23  25
HETATM   25  O   UNL     1      38.714 -13.291   1.983  1.00  0.00    -0.322 OA
HETATM   26  C   UNL     1      37.851 -13.835   0.980  1.00  0.00     0.213 C 
ENDBRANCH  23  25
ENDBRANCH   1  23
BRANCH   7  27
HETATM   27  C   UNL     1      41.986 -10.301   8.576  1.00  0.00     0.294 C 
BRANCH  27  28
HETATM   28  N   UNL     1      41.893 -10.862  10.003  1.00  0.00    -0.061 N 
HETATM   29  H   UNL     1      41.986 -11.879   9.899  1.00  0.00     0.280 HD
HETATM   30  C   UNL     1      43.015 -10.428  10.962  1.00  0.00     0.190 C 
HETATM   31  C   UNL     1      42.789 -11.152  12.305  1.00  0.00     0.033 C 
HETATM   32  C   UNL     1      41.398 -10.928  12.881  1.00  0.00     0.004 C 
HETATM   33  C   UNL     1      40.332 -11.340  11.879  1.00  0.00     0.028 C 
HETATM   34  C   UNL     1      40.511 -10.594  10.571  1.00  0.00     0.235 C 
BRANCH  30  35
HETATM   35  C   UNL     1      44.398 -10.828  10.420  1.00  0.00     0.059 C 
BRANCH  35  36
HETATM   36  C   UNL     1      44.873 -12.195  10.903  1.00  0.00     0.166 C 
BRANCH  36  37
HETATM   37  O   UNL     1      44.188 -13.176  10.139  1.00  0.00    -0.401 OA
HETATM   38  H   UNL     1      44.090 -12.832   9.232  1.00  0.00     0.209 HD
ENDBRANCH  36  37
ENDBRANCH  35  36
ENDBRANCH  30  35
ENDBRANCH  27  28
ENDBRANCH   7  27
TORSDOF 10
ENDMDL
MODEL 2
REMARK VINA RESULT:      -8.2      3.852      7.004
REMARK  10 active torsions:
REMARK  status: ('A' for Active; 'I' for Inactive)
REMARK    1  A    between atoms: O_2  and  C_3 
REMARK    2  A    between atoms: C_3  and  C_4 
REMARK    3  A    between atoms: C_8  and  N_9 
REMARK       I    between atoms: N_9  and  C_10 
REMARK    4  A    between atoms: C_10  and  C_11 
REMARK    5  A    between atoms: C_12  and  C_13 
REMARK    6  A    between atoms: C_22  and  C_23 
REMARK    7  A    between atoms: C_23  and  N_24 
REMARK    8  A    between atoms: C_26  and  C_27 
REMARK    9  A    between atoms: C_27  and  C_28 
REMARK   10  A    between atoms: C_28  and  O_29 
ROOT
HETATM    1  C   UNL     1      40.652 -13.792   4.392  1.00  0.00     0.110 C 
HETATM    2  S   UNL     1      39.943 -12.235   4.370  1.00  0.00    -0.061 SA
HETATM    3  C   UNL     1      39.110 -12.558   2.931  1.00  0.00     0.111 A 
HETATM    4  C   UNL     1      39.348 -13.834   2.437  1.00  0.00     0.028 A 
HETATM    5  C   UNL     1      40.333 -14.521   3.247  1.00  0.00     0.071 C 
HETATM    6  N   UNL     1      38.298 -11.616   2.402  1.00  0.00    -0.243 NA
HETATM    7  C   UNL     1      37.611 -11.999   1.306  1.00  0.00     0.061 A 
HETATM    8  C   UNL     1      37.704 -13.264   0.743  1.00  0.00     0.030 A 
HETATM    9  C   UNL     1      38.577 -14.193   1.308  1.00  0.00     0.019 A 
ENDROOT
BRANCH   5  10
HETATM   10  N   UNL     1      40.911 -15.782   3.036  1.00  0.00    -0.321 N 
HETATM   11  C   UNL     1      41.676 -16.153   1.954  1.00  0.00     0.245 C 
HETATM   12  O   UNL     1      42.049 -15.426   1.041  1.00  0.00    -0.268 OA
HETATM   13  H   UNL     1      40.922 -16.400   3.848  1.00  0.00     0.169 HD
BRANCH  11  14
HETATM   14  C   UNL     1      42.083 -17.584   2.023  1.00  0.00     0.075 C 
HETATM   15  C   UNL     1      43.059 -17.959   2.863  1.00  0.00     0.017 C 
BRANCH  15  16
HETATM   16  C   UNL     1      43.561 -19.335   2.928  1.00  0.00    -0.036 A 
HETATM   17  C   UNL     1      43.289 -20.203   1.861  1.00  0.00     0.014 A 
HETATM   18  C   UNL     1      43.750 -21.521   1.890  1.00  0.00     0.043 A 
HETATM   19  C   UNL     1      44.492 -21.964   2.977  1.00  0.00     0.116 A 
HETATM   20  F   UNL     1      44.931 -23.228   3.006  1.00  0.00    -0.206 F 
HETATM   21  C   UNL     1      44.787 -21.112   4.036  1.00  0.00     0.043 A 
HETATM   22  C   UNL     1      44.324 -19.795   4.011  1.00  0.00     0.014 A 
ENDBRANCH  15  16
ENDBRANCH  11  14
ENDBRANCH   5  10
BRANCH   1  23
HETATM   23  C   UNL     1      41.514 -14.226   5.482  1.00  0.00     0.302 C 
HETATM   24  O   UNL     1      41.333 -15.260   6.118  1.00  0.00    -0.259 OA
BRANCH  23  25
HETATM   25  O   UNL     1      42.522 -13.342   5.724  1.00  0.00    -0.322 OA
HETATM   26  C   UNL     1      43.820 -13.936   5.811  1.00  0.00     0.213 C 
ENDBRANCH  23  25
ENDBRANCH   1  23
BRANCH   7  27
HETATM   27  C   UNL     1      36.722 -10.951   0.663  1.00  0.00     0.294 C 
BRANCH  27  28
HETATM   28  N   UNL     1      35.552 -10.442   1.518  1.00  0.00    -0.061 N 
HETATM   29  H   UNL     1      35.655 -10.914   2.424  1.00  0.00     0.280 HD
HETATM   30  C   UNL     1      35.557  -8.934   1.821  1.00  0.00     0.190 C 
HETATM   31  C   UNL     1      34.359  -8.639   2.748  1.00  0.00     0.033 C 
HETATM   32  C   UNL     1      33.031  -9.125   2.184  1.00  0.00     0.004 C 
HETATM   33  C   UNL     1      33.096 -10.610   1.871  1.00  0.00     0.028 C 
HETATM   34  C   UNL     1      34.238 -10.907   0.918  1.00  0.00     0.235 C 
BRANCH  30  35
HETATM   35  C   UNL     1      36.847  -8.515   2.547  1.00  0.00     0.059 C 
BRANCH  35  36
HETATM   36  C   UNL     1      36.775  -8.667   4.063  1.00  0.00     0.166 C 
BRANCH  36  37
HETATM   37  O   UNL     1      37.024 -10.033   4.364  1.00  0.00    -0.401 OA
HETATM   38  H   UNL     1      37.146 -10.506   3.521  1.00  0.00     0.209 HD
ENDBRANCH  36  37
ENDBRANCH  35  36
ENDBRANCH  30  35
ENDBRANCH  27  28
ENDBRANCH   7  27
TORSDOF 10
ENDMDL
MODEL 3
REMARK VINA RESULT:      -8.1      4.079      9.787
REMARK  10 active torsions:
REMARK  status: ('A' for Active; 'I' for Inactive)
REMARK    1  A    between atoms: O_2  and  C_3 
REMARK    2  A    between atoms: C_3  and  C_4 
REMARK    3  A    between atoms: C_8  and  N_9 
REMARK       I    between atoms: N_9  and  C_10 
REMARK    4  A    between atoms: C_10  and  C_11 
REMARK    5  A    between atoms: C_12  and  C_13 
REMARK    6  A    between atoms: C_22  and  C_23 
REMARK    7  A    between atoms: C_23  and  N_24 
REMARK    8  A    between atoms: C_26  and  C_27 
REMARK    9  A    between atoms: C_27  and  C_28 
REMARK   10  A    between atoms: C_28  and  O_29 
ROOT
HETATM    1  C   UNL     1      41.107 -10.607   5.362  1.00  0.00     0.110 C 
HETATM    2  S   UNL     1      41.222 -11.314   3.809  1.00  0.00    -0.061 SA
HETATM    3  C   UNL     1      41.024 -12.878   4.430  1.00  0.00     0.111 A 
HETATM    4  C   UNL     1      40.872 -12.902   5.810  1.00  0.00     0.028 A 
HETATM    5  C   UNL     1      41.021 -11.573   6.365  1.00  0.00     0.071 C 
HETATM    6  N   UNL     1      41.004 -13.934   3.586  1.00  0.00    -0.243 NA
HETATM    7  C   UNL     1      40.754 -15.127   4.165  1.00  0.00     0.061 A 
HETATM    8  C   UNL     1      40.520 -15.288   5.524  1.00  0.00     0.030 A 
HETATM    9  C   UNL     1      40.578 -14.172   6.357  1.00  0.00     0.019 A 
ENDROOT
BRANCH   5  10
HETATM   10  N   UNL     1      41.028 -11.186   7.713  1.00  0.00    -0.321 N 
HETATM   11  C   UNL     1      39.929 -11.101   8.538  1.00  0.00     0.245 C 
HETATM   12  O   UNL     1      38.781 -11.427   8.261  1.00  0.00    -0.268 OA
HETATM   13  H   UNL     1      41.947 -11.159   8.157  1.00  0.00     0.169 HD
BRANCH  11  14
HETATM   14  C   UNL     1      40.288 -10.603   9.895  1.00  0.00     0.075 C 
HETATM   15  C   UNL     1      41.521 -10.816  10.378  1.00  0.00     0.017 C 
BRANCH  15  16
HETATM   16  C   UNL     1      41.920 -10.422  11.732  1.00  0.00    -0.036 A 
HETATM   17  C   UNL     1      41.040 -10.676  12.795  1.00  0.00     0.014 A 
HETATM   18  C   UNL     1      41.386 -10.312  14.098  1.00  0.00     0.043 A 
HETATM   19  C   UNL     1      42.613  -9.707  14.338  1.00  0.00     0.116 A 
HETATM   20  F   UNL     1      42.943  -9.356  15.587  1.00  0.00    -0.206 F 
HETATM   21  C   UNL     1      43.506  -9.465  13.300  1.00  0.00     0.043 A 
HETATM   22  C   UNL     1      43.161  -9.825  11.995  1.00  0.00     0.014 A 
ENDBRANCH  15  16
ENDBRANCH  11  14
ENDBRANCH   5  10
BRANCH   1  23
HETATM   23  C   UNL     1      41.149  -9.164   5.553  1.00  0.00     0.302 C 
HETATM   24  O   UNL     1      41.988  -8.598   6.248  1.00  0.00    -0.259 OA
BRANCH  23  25
HETATM   25  O   UNL     1      40.141  -8.528   4.894  1.00  0.00    -0.322 OA
HETATM   26  C   UNL     1      38.856  -8.668   5.506  1.00  0.00     0.213 C 
ENDBRANCH  23  25
ENDBRANCH   1  23
BRANCH   7  27
HETATM   27  C   UNL     1      40.767 -16.338   3.252  1.00  0.00     0.294 C 
BRANCH  27  28
HETATM   28  N   UNL     1      42.145 -16.949   2.961  1.00  0.00    -0.061 N 
HETATM   29  H   UNL     1      42.821 -16.300   3.382  1.00  0.00     0.280 HD
HETATM   30  C   UNL     1      42.414 -18.320   3.602  1.00  0.00     0.190 C 
HETATM   31  C   UNL     1      43.864 -18.721   3.260  1.00  0.00     0.033 C 
HETATM   32  C   UNL     1      44.156 -18.699   1.766  1.00  0.00     0.004 C 
HETATM   33  C   UNL     1      43.839 -17.333   1.181  1.00  0.00     0.028 C 
HETATM   34  C   UNL     1      42.399 -16.950   1.464  1.00  0.00     0.235 C 
BRANCH  30  35
HETATM   35  C   UNL     1      42.276 -18.257   5.133  1.00  0.00     0.059 C 
BRANCH  35  36
HETATM   36  C   UNL     1      43.562 -17.858   5.849  1.00  0.00     0.166 C 
BRANCH  36  37
HETATM   37  O   UNL     1      43.699 -16.451   5.722  1.00  0.00    -0.401 OA
HETATM   38  H   UNL     1      44.629 -16.262   5.497  1.00  0.00     0.209 HD
ENDBRANCH  36  37
ENDBRANCH  35  36
ENDBRANCH  30  35
ENDBRANCH  27  28
ENDBRANCH   7  27
TORSDOF 10
ENDMDL
MODEL 4
REMARK VINA RESULT:      -8.0      3.208      5.118
REMARK  10 active torsions:
REMARK  status: ('A' for Active; 'I' for Inactive)
REMARK    1  A    between atoms: O_2  and  C_3 
REMARK    2  A    between atoms: C_3  and  C_4 
REMARK    3  A    between atoms: C_8  and  N_9 
REMARK       I    between atoms: N_9  and  C_10 
REMARK    4  A    between atoms: C_10  and  C_11 
REMARK    5  A    between atoms: C_12  and  C_13 
REMARK    6  A    between atoms: C_22  and  C_23 
REMARK    7  A    between atoms: C_23  and  N_24 
REMARK    8  A    between atoms: C_26  and  C_27 
REMARK    9  A    between atoms: C_27  and  C_28 
REMARK   10  A    between atoms: C_28  and  O_29 
ROOT
HETATM    1  C   UNL     1      43.016 -15.035   4.754  1.00  0.00     0.110 C 
HETATM    2  S   UNL     1      43.791 -14.559   6.202  1.00  0.00    -0.061 SA
HETATM    3  C   UNL     1      42.832 -13.170   6.341  1.00  0.00     0.111 A 
HETATM    4  C   UNL     1      41.916 -13.033   5.306  1.00  0.00     0.028 A 
HETATM    5  C   UNL     1      42.096 -14.081   4.322  1.00  0.00     0.071 C 
HETATM    6  N   UNL     1      42.995 -12.348   7.401  1.00  0.00    -0.243 NA
HETATM    7  C   UNL     1      42.126 -11.318   7.470  1.00  0.00     0.061 A 
HETATM    8  C   UNL     1      41.121 -11.098   6.538  1.00  0.00     0.030 A 
HETATM    9  C   UNL     1      41.009 -11.958   5.447  1.00  0.00     0.019 A 
ENDROOT
BRANCH   5  10
HETATM   10  N   UNL     1      41.439 -14.246   3.093  1.00  0.00    -0.321 N 
HETATM   11  C   UNL     1      41.719 -13.572   1.926  1.00  0.00     0.245 C 
HETATM   12  O   UNL     1      42.636 -12.780   1.743  1.00  0.00    -0.268 OA
HETATM   13  H   UNL     1      40.844 -15.073   3.022  1.00  0.00     0.169 HD
BRANCH  11  14
HETATM   14  C   UNL     1      40.791 -13.952   0.826  1.00  0.00     0.075 C 
HETATM   15  C   UNL     1      41.285 -14.296  -0.373  1.00  0.00     0.017 C 
BRANCH  15  16
HETATM   16  C   UNL     1      40.429 -14.607  -1.522  1.00  0.00    -0.036 A 
HETATM   17  C   UNL     1      40.820 -15.632  -2.395  1.00  0.00     0.014 A 
HETATM   18  C   UNL     1      40.031 -15.954  -3.502  1.00  0.00     0.043 A 
HETATM   19  C   UNL     1      38.848 -15.262  -3.724  1.00  0.00     0.116 A 
HETATM   20  F   UNL     1      38.092 -15.570  -4.786  1.00  0.00    -0.206 F 
HETATM   21  C   UNL     1      38.434 -14.257  -2.858  1.00  0.00     0.043 A 
HETATM   22  C   UNL     1      39.224 -13.929  -1.753  1.00  0.00     0.014 A 
ENDBRANCH  15  16
ENDBRANCH  11  14
ENDBRANCH   5  10
BRANCH   1  23
HETATM   23  C   UNL     1      43.357 -16.278   4.075  1.00  0.00     0.302 C 
HETATM   24  O   UNL     1      43.666 -16.337   2.888  1.00  0.00    -0.259 OA
BRANCH  23  25
HETATM   25  O   UNL     1      43.267 -17.357   4.901  1.00  0.00    -0.322 OA
HETATM   26  C   UNL     1      41.996 -18.012   4.878  1.00  0.00     0.213 C 
ENDBRANCH  23  25
ENDBRANCH   1  23
BRANCH   7  27
HETATM   27  C   UNL     1      42.309 -10.353   8.625  1.00  0.00     0.294 C 
BRANCH  27  28
HETATM   28  N   UNL     1      42.061 -10.924  10.029  1.00  0.00    -0.061 N 
HETATM   29  H   UNL     1      42.156 -11.942   9.925  1.00  0.00     0.280 HD
HETATM   30  C   UNL     1      43.078 -10.509  11.104  1.00  0.00     0.190 C 
HETATM   31  C   UNL     1      42.706 -11.242  12.410  1.00  0.00     0.033 C 
HETATM   32  C   UNL     1      41.264 -11.010  12.837  1.00  0.00     0.004 C 
HETATM   33  C   UNL     1      40.307 -11.403  11.725  1.00  0.00     0.028 C 
HETATM   34  C   UNL     1      40.629 -10.649  10.449  1.00  0.00     0.235 C 
BRANCH  30  35
HETATM   35  C   UNL     1      44.508 -10.918  10.708  1.00  0.00     0.059 C 
BRANCH  35  36
HETATM   36  C   UNL     1      44.813 -12.392  10.951  1.00  0.00     0.166 C 
BRANCH  36  37
HETATM   37  O   UNL     1      44.169 -13.133   9.924  1.00  0.00    -0.401 OA
HETATM   38  H   UNL     1      44.786 -13.826   9.626  1.00  0.00     0.209 HD
ENDBRANCH  36  37
ENDBRANCH  35  36
ENDBRANCH  30  35
ENDBRANCH  27  28
ENDBRANCH   7  27
TORSDOF 10
ENDMDL
MODEL 5
REMARK VINA RESULT:      -7.9      4.505     10.215
REMARK  10 active torsions:
REMARK  status: ('A' for Active; 'I' for Inactive)
REMARK    1  A    between atoms: O_2  and  C_3 
REMARK    2  A    between atoms: C_3  and  C_4 
REMARK    3  A    between atoms: C_8  and  N_9 
REMARK       I    between atoms: N_9  and  C_10 
REMARK    4  A    between atoms: C_10  and  C_11 
REMARK    5  A    between atoms: C_12  and  C_13 
REMARK    6  A    between atoms: C_22  and  C_23 
REMARK    7  A    between atoms: C_23  and  N_24 
REMARK    8  A    between atoms: C_26  and  C_27 
REMARK    9  A    between atoms: C_27  and  C_28 
REMARK   10  A    between atoms: C_28  and  O_29 
ROOT
HETATM    1  C   UNL     1      43.299 -16.355   6.184  1.00  0.00     0.110 C 
HETATM    2  S   UNL     1      42.823 -17.234   4.795  1.00  0.00    -0.061 SA
HETATM    3  C   UNL     1      42.633 -15.821   3.881  1.00  0.00     0.111 A 
HETATM    4  C   UNL     1      42.917 -14.665   4.596  1.00  0.00     0.028 A 
HETATM    5  C   UNL     1      43.213 -14.979   5.979  1.00  0.00     0.071 C 
HETATM    6  N   UNL     1      42.262 -15.909   2.584  1.00  0.00    -0.243 NA
HETATM    7  C   UNL     1      42.224 -14.738   1.916  1.00  0.00     0.061 A 
HETATM    8  C   UNL     1      42.544 -13.515   2.490  1.00  0.00     0.030 A 
HETATM    9  C   UNL     1      42.895 -13.471   3.838  1.00  0.00     0.019 A 
ENDROOT
BRANCH   5  10
HETATM   10  N   UNL     1      43.459 -14.096   7.040  1.00  0.00    -0.321 N 
HETATM   11  C   UNL     1      44.673 -13.532   7.361  1.00  0.00     0.245 C 
HETATM   12  O   UNL     1      45.717 -13.640   6.730  1.00  0.00    -0.268 OA
HETATM   13  H   UNL     1      42.629 -13.694   7.479  1.00  0.00     0.169 HD
BRANCH  11  14
HETATM   14  C   UNL     1      44.590 -12.685   8.583  1.00  0.00     0.075 C 
HETATM   15  C   UNL     1      43.486 -11.957   8.814  1.00  0.00     0.017 C 
BRANCH  15  16
HETATM   16  C   UNL     1      43.365 -11.044   9.954  1.00  0.00    -0.036 A 
HETATM   17  C   UNL     1      44.212 -11.227  11.057  1.00  0.00     0.014 A 
HETATM   18  C   UNL     1      44.123 -10.378  12.162  1.00  0.00     0.043 A 
HETATM   19  C   UNL     1      43.199  -9.341  12.158  1.00  0.00     0.116 A 
HETATM   20  F   UNL     1      43.112  -8.528  13.218  1.00  0.00    -0.206 F 
HETATM   21  C   UNL     1      42.365  -9.132  11.065  1.00  0.00     0.043 A 
HETATM   22  C   UNL     1      42.449  -9.983   9.960  1.00  0.00     0.014 A 
ENDBRANCH  15  16
ENDBRANCH  11  14
ENDBRANCH   5  10
BRANCH   1  23
HETATM   23  C   UNL     1      43.689 -17.023   7.417  1.00  0.00     0.302 C 
HETATM   24  O   UNL     1      43.502 -16.546   8.533  1.00  0.00    -0.259 OA
BRANCH  23  25
HETATM   25  O   UNL     1      44.303 -18.217   7.185  1.00  0.00    -0.322 OA
HETATM   26  C   UNL     1      45.582 -18.109   6.555  1.00  0.00     0.213 C 
ENDBRANCH  23  25
ENDBRANCH   1  23
BRANCH   7  27
HETATM   27  C   UNL     1      41.770 -14.797   0.470  1.00  0.00     0.294 C 
BRANCH  27  28
HETATM   28  N   UNL     1      40.453 -14.076   0.146  1.00  0.00    -0.061 N 
HETATM   29  H   UNL     1      40.590 -13.109   0.465  1.00  0.00     0.280 HD
HETATM   30  C   UNL     1      40.095 -13.985  -1.347  1.00  0.00     0.190 C 
HETATM   31  C   UNL     1      38.794 -13.166  -1.468  1.00  0.00     0.033 C 
HETATM   32  C   UNL     1      37.657 -13.717  -0.619  1.00  0.00     0.004 C 
HETATM   33  C   UNL     1      38.078 -13.818   0.837  1.00  0.00     0.028 C 
HETATM   34  C   UNL     1      39.327 -14.666   0.976  1.00  0.00     0.235 C 
BRANCH  30  35
HETATM   35  C   UNL     1      41.198 -13.266  -2.143  1.00  0.00     0.059 C 
BRANCH  35  36
HETATM   36  C   UNL     1      41.342 -13.762  -3.578  1.00  0.00     0.166 C 
BRANCH  36  37
HETATM   37  O   UNL     1      42.039 -14.998  -3.532  1.00  0.00    -0.401 OA
HETATM   38  H   UNL     1      42.503 -15.109  -4.383  1.00  0.00     0.209 HD
ENDBRANCH  36  37
ENDBRANCH  35  36
ENDBRANCH  30  35
ENDBRANCH  27  28
ENDBRANCH   7  27
TORSDOF 10
ENDMDL
MODEL 6
REMARK VINA RESULT:      -7.8      6.533      9.306
REMARK  10 active torsions:
REMARK  status: ('A' for Active; 'I' for Inactive)
REMARK    1  A    between atoms: O_2  and  C_3 
REMARK    2  A    between atoms: C_3  and  C_4 
REMARK    3  A    between atoms: C_8  and  N_9 
REMARK       I    between atoms: N_9  and  C_10 
REMARK    4  A    between atoms: C_10  and  C_11 
REMARK    5  A    between atoms: C_12  and  C_13 
REMARK    6  A    between atoms: C_22  and  C_23 
REMARK    7  A    between atoms: C_23  and  N_24 
REMARK    8  A    between atoms: C_26  and  C_27 
REMARK    9  A    between atoms: C_27  and  C_28 
REMARK   10  A    between atoms: C_28  and  O_29 
ROOT
HETATM    1  C   UNL     1      39.452 -13.948  -2.518  1.00  0.00     0.110 C 
HETATM    2  S   UNL     1      38.369 -12.787  -3.154  1.00  0.00    -0.061 SA
HETATM    3  C   UNL     1      37.720 -12.453  -1.626  1.00  0.00     0.111 A 
HETATM    4  C   UNL     1      38.297 -13.205  -0.611  1.00  0.00     0.028 A 
HETATM    5  C   UNL     1      39.246 -14.155  -1.154  1.00  0.00     0.071 C 
HETATM    6  N   UNL     1      36.756 -11.514  -1.499  1.00  0.00    -0.243 NA
HETATM    7  C   UNL     1      36.366 -11.257  -0.233  1.00  0.00     0.061 A 
HETATM    8  C   UNL     1      36.903 -11.889   0.880  1.00  0.00     0.030 A 
HETATM    9  C   UNL     1      37.876 -12.870   0.697  1.00  0.00     0.019 A 
ENDROOT
BRANCH   5  10
HETATM   10  N   UNL     1      39.968 -15.150  -0.479  1.00  0.00    -0.321 N 
HETATM   11  C   UNL     1      41.249 -15.031   0.012  1.00  0.00     0.245 C 
HETATM   12  O   UNL     1      41.937 -14.018   0.017  1.00  0.00    -0.268 OA
HETATM   13  H   UNL     1      39.420 -15.950  -0.161  1.00  0.00     0.169 HD
BRANCH  11  14
HETATM   14  C   UNL     1      41.731 -16.301   0.624  1.00  0.00     0.075 C 
HETATM   15  C   UNL     1      42.519 -16.259   1.708  1.00  0.00     0.017 C 
BRANCH  15  16
HETATM   16  C   UNL     1      43.092 -17.464   2.316  1.00  0.00    -0.036 A 
HETATM   17  C   UNL     1      43.317 -18.586   1.506  1.00  0.00     0.014 A 
HETATM   18  C   UNL     1      43.859 -19.752   2.052  1.00  0.00     0.043 A 
HETATM   19  C   UNL     1      44.187 -19.789   3.401  1.00  0.00     0.116 A 
HETATM   20  F   UNL     1      44.705 -20.907   3.924  1.00  0.00    -0.206 F 
HETATM   21  C   UNL     1      43.990 -18.679   4.215  1.00  0.00     0.043 A 
HETATM   22  C   UNL     1      43.444 -17.514   3.673  1.00  0.00     0.014 A 
ENDBRANCH  15  16
ENDBRANCH  11  14
ENDBRANCH   5  10
BRANCH   1  23
HETATM   23  C   UNL     1      40.417 -14.639  -3.361  1.00  0.00     0.302 C 
HETATM   24  O   UNL     1      41.383 -14.085  -3.878  1.00  0.00    -0.259 OA
BRANCH  23  25
HETATM   25  O   UNL     1      40.108 -15.955  -3.525  1.00  0.00    -0.322 OA
HETATM   26  C   UNL     1      38.970 -16.194  -4.358  1.00  0.00     0.213 C 
ENDBRANCH  23  25
ENDBRANCH   1  23
BRANCH   7  27
HETATM   27  C   UNL     1      35.255 -10.238  -0.060  1.00  0.00     0.294 C 
BRANCH  27  28
HETATM   28  N   UNL     1      33.841 -10.712  -0.425  1.00  0.00    -0.061 N 
HETATM   29  H   UNL     1      33.859 -11.732  -0.302  1.00  0.00     0.280 HD
HETATM   30  C   UNL     1      32.712 -10.193   0.480  1.00  0.00     0.190 C 
HETATM   31  C   UNL     1      31.394 -10.839   0.002  1.00  0.00     0.033 C 
HETATM   32  C   UNL     1      31.118 -10.614  -1.477  1.00  0.00     0.004 C 
HETATM   33  C   UNL     1      32.280 -11.113  -2.320  1.00  0.00     0.028 C 
HETATM   34  C   UNL     1      33.574 -10.445  -1.896  1.00  0.00     0.235 C 
BRANCH  30  35
HETATM   35  C   UNL     1      32.945 -10.592   1.948  1.00  0.00     0.059 C 
BRANCH  35  36
HETATM   36  C   UNL     1      31.709 -11.169   2.630  1.00  0.00     0.166 C 
BRANCH  36  37
HETATM   37  O   UNL     1      32.155 -11.923   3.748  1.00  0.00    -0.401 OA
HETATM   38  H   UNL     1      32.735 -11.350   4.281  1.00  0.00     0.209 HD
ENDBRANCH  36  37
ENDBRANCH  35  36
ENDBRANCH  30  35
ENDBRANCH  27  28
ENDBRANCH   7  27
TORSDOF 10
ENDMDL
MODEL 7
REMARK VINA RESULT:      -7.8      4.420      8.695
REMARK  10 active torsions:
REMARK  status: ('A' for Active; 'I' for Inactive)
REMARK    1  A    between atoms: O_2  and  C_3 
REMARK    2  A    between atoms: C_3  and  C_4 
REMARK    3  A    between atoms: C_8  and  N_9 
REMARK       I    between atoms: N_9  and  C_10 
REMARK    4  A    between atoms: C_10  and  C_11 
REMARK    5  A    between atoms: C_12  and  C_13 
REMARK    6  A    between atoms: C_22  and  C_23 
REMARK    7  A    between atoms: C_23  and  N_24 
REMARK    8  A    between atoms: C_26  and  C_27 
REMARK    9  A    between atoms: C_27  and  C_28 
REMARK   10  A    between atoms: C_28  and  O_29 
ROOT
HETATM    1  C   UNL     1      40.383 -13.725   2.605  1.00  0.00     0.110 C 
HETATM    2  S   UNL     1      39.698 -12.511   1.613  1.00  0.00    -0.061 SA
HETATM    3  C   UNL     1      40.137 -13.324   0.194  1.00  0.00     0.111 A 
HETATM    4  C   UNL     1      40.807 -14.516   0.433  1.00  0.00     0.028 A 
HETATM    5  C   UNL     1      41.037 -14.699   1.852  1.00  0.00     0.071 C 
HETATM    6  N   UNL     1      39.804 -12.800  -1.007  1.00  0.00    -0.243 NA
HETATM    7  C   UNL     1      40.118 -13.564  -2.074  1.00  0.00     0.061 A 
HETATM    8  C   UNL     1      40.732 -14.805  -1.977  1.00  0.00     0.030 A 
HETATM    9  C   UNL     1      41.081 -15.291  -0.718  1.00  0.00     0.019 A 
ENDROOT
BRANCH   5  10
HETATM   10  N   UNL     1      41.753 -15.719   2.495  1.00  0.00    -0.321 N 
HETATM   11  C   UNL     1      43.038 -15.628   2.979  1.00  0.00     0.245 C 
HETATM   12  O   UNL     1      43.739 -14.623   3.004  1.00  0.00    -0.268 OA
HETATM   13  H   UNL     1      41.197 -16.521   2.798  1.00  0.00     0.169 HD
BRANCH  11  14
HETATM   14  C   UNL     1      43.510 -16.918   3.555  1.00  0.00     0.075 C 
HETATM   15  C   UNL     1      43.651 -17.989   2.760  1.00  0.00     0.017 C 
BRANCH  15  16
HETATM   16  C   UNL     1      44.038 -19.307   3.271  1.00  0.00    -0.036 A 
HETATM   17  C   UNL     1      44.301 -19.449   4.641  1.00  0.00     0.014 A 
HETATM   18  C   UNL     1      44.674 -20.690   5.163  1.00  0.00     0.043 A 
HETATM   19  C   UNL     1      44.771 -21.787   4.317  1.00  0.00     0.116 A 
HETATM   20  F   UNL     1      45.130 -22.976   4.817  1.00  0.00    -0.206 F 
HETATM   21  C   UNL     1      44.494 -21.671   2.959  1.00  0.00     0.043 A 
HETATM   22  C   UNL     1      44.125 -20.430   2.435  1.00  0.00     0.014 A 
ENDBRANCH  15  16
ENDBRANCH  11  14
ENDBRANCH   5  10
BRANCH   1  23
HETATM   23  C   UNL     1      40.301 -13.665   4.057  1.00  0.00     0.302 C 
HETATM   24  O   UNL     1      40.554 -12.655   4.708  1.00  0.00    -0.259 OA
BRANCH  23  25
HETATM   25  O   UNL     1      39.938 -14.860   4.602  1.00  0.00    -0.322 OA
HETATM   26  C   UNL     1      40.594 -15.169   5.835  1.00  0.00     0.213 C 
ENDBRANCH  23  25
ENDBRANCH   1  23
BRANCH   7  27
HETATM   27  C   UNL     1      39.796 -12.986  -3.439  1.00  0.00     0.294 C 
BRANCH  27  28
HETATM   28  N   UNL     1      40.153 -11.506  -3.647  1.00  0.00    -0.061 N 
HETATM   29  H   UNL     1      40.125 -11.088  -2.709  1.00  0.00     0.280 HD
HETATM   30  C   UNL     1      41.564 -11.233  -4.193  1.00  0.00     0.190 C 
HETATM   31  C   UNL     1      41.755  -9.703  -4.254  1.00  0.00     0.033 C 
HETATM   32  C   UNL     1      40.666  -8.995  -5.048  1.00  0.00     0.004 C 
HETATM   33  C   UNL     1      39.294  -9.329  -4.487  1.00  0.00     0.028 C 
HETATM   34  C   UNL     1      39.072 -10.829  -4.471  1.00  0.00     0.235 C 
BRANCH  30  35
HETATM   35  C   UNL     1      42.644 -11.821  -3.267  1.00  0.00     0.059 C 
BRANCH  35  36
HETATM   36  C   UNL     1      42.936 -10.959  -2.042  1.00  0.00     0.166 C 
BRANCH  36  37
HETATM   37  O   UNL     1      42.973 -11.823  -0.915  1.00  0.00    -0.401 OA
HETATM   38  H   UNL     1      43.428 -12.642  -1.184  1.00  0.00     0.209 HD
ENDBRANCH  36  37
ENDBRANCH  35  36
ENDBRANCH  30  35
ENDBRANCH  27  28
ENDBRANCH   7  27
TORSDOF 10
ENDMDL
MODEL 8
REMARK VINA RESULT:      -7.6      4.372      8.087
REMARK  10 active torsions:
REMARK  status: ('A' for Active; 'I' for Inactive)
REMARK    1  A    between atoms: O_2  and  C_3 
REMARK    2  A    between atoms: C_3  and  C_4 
REMARK    3  A    between atoms: C_8  and  N_9 
REMARK       I    between atoms: N_9  and  C_10 
REMARK    4  A    between atoms: C_10  and  C_11 
REMARK    5  A    between atoms: C_12  and  C_13 
REMARK    6  A    between atoms: C_22  and  C_23 
REMARK    7  A    between atoms: C_23  and  N_24 
REMARK    8  A    between atoms: C_26  and  C_27 
REMARK    9  A    between atoms: C_27  and  C_28 
REMARK   10  A    between atoms: C_28  and  O_29 
ROOT
HETATM    1  C   UNL     1      41.329 -13.599   3.399  1.00  0.00     0.110 C 
HETATM    2  S   UNL     1      40.629 -12.055   3.164  1.00  0.00    -0.061 SA
HETATM    3  C   UNL     1      39.389 -12.687   2.199  1.00  0.00     0.111 A 
HETATM    4  C   UNL     1      39.476 -14.062   2.029  1.00  0.00     0.028 A 
HETATM    5  C   UNL     1      40.675 -14.581   2.655  1.00  0.00     0.071 C 
HETATM    6  N   UNL     1      38.439 -11.861   1.706  1.00  0.00    -0.243 NA
HETATM    7  C   UNL     1      37.446 -12.469   1.024  1.00  0.00     0.061 A 
HETATM    8  C   UNL     1      37.375 -13.843   0.832  1.00  0.00     0.030 A 
HETATM    9  C   UNL     1      38.393 -14.650   1.336  1.00  0.00     0.019 A 
ENDROOT
BRANCH   5  10
HETATM   10  N   UNL     1      41.173 -15.892   2.635  1.00  0.00    -0.321 N 
HETATM   11  C   UNL     1      41.663 -16.556   1.534  1.00  0.00     0.245 C 
HETATM   12  O   UNL     1      41.823 -16.091   0.412  1.00  0.00    -0.268 OA
HETATM   13  H   UNL     1      41.365 -16.302   3.550  1.00  0.00     0.169 HD
BRANCH  11  14
HETATM   14  C   UNL     1      42.058 -17.956   1.857  1.00  0.00     0.075 C 
HETATM   15  C   UNL     1      43.208 -18.190   2.506  1.00  0.00     0.017 C 
BRANCH  15  16
HETATM   16  C   UNL     1      43.695 -19.543   2.789  1.00  0.00    -0.036 A 
HETATM   17  C   UNL     1      43.504 -20.544   1.825  1.00  0.00     0.014 A 
HETATM   18  C   UNL     1      43.953 -21.845   2.061  1.00  0.00     0.043 A 
HETATM   19  C   UNL     1      44.602 -22.140   3.253  1.00  0.00     0.116 A 
HETATM   20  F   UNL     1      45.031 -23.388   3.480  1.00  0.00    -0.206 F 
HETATM   21  C   UNL     1      44.818 -21.157   4.212  1.00  0.00     0.043 A 
HETATM   22  C   UNL     1      44.366 -19.856   3.980  1.00  0.00     0.014 A 
ENDBRANCH  15  16
ENDBRANCH  11  14
ENDBRANCH   5  10
BRANCH   1  23
HETATM   23  C   UNL     1      42.497 -13.790   4.246  1.00  0.00     0.302 C 
HETATM   24  O   UNL     1      43.587 -13.271   4.023  1.00  0.00    -0.259 OA
BRANCH  23  25
HETATM   25  O   UNL     1      42.243 -14.626   5.292  1.00  0.00    -0.322 OA
HETATM   26  C   UNL     1      43.295 -15.553   5.574  1.00  0.00     0.213 C 
ENDBRANCH  23  25
ENDBRANCH   1  23
BRANCH   7  27
HETATM   27  C   UNL     1      36.387 -11.567   0.421  1.00  0.00     0.294 C 
BRANCH  27  28
HETATM   28  N   UNL     1      36.897 -10.446  -0.496  1.00  0.00    -0.061 N 
HETATM   29  H   UNL     1      37.907 -10.391  -0.318  1.00  0.00     0.280 HD
HETATM   30  C   UNL     1      36.744 -10.700  -2.005  1.00  0.00     0.190 C 
HETATM   31  C   UNL     1      37.381  -9.507  -2.748  1.00  0.00     0.033 C 
HETATM   32  C   UNL     1      36.818  -8.162  -2.315  1.00  0.00     0.004 C 
HETATM   33  C   UNL     1      36.964  -7.980  -0.813  1.00  0.00     0.028 C 
HETATM   34  C   UNL     1      36.295  -9.119  -0.069  1.00  0.00     0.235 C 
BRANCH  30  35
HETATM   35  C   UNL     1      37.475 -11.985  -2.432  1.00  0.00     0.059 C 
BRANCH  35  36
HETATM   36  C   UNL     1      38.980 -11.806  -2.604  1.00  0.00     0.166 C 
BRANCH  36  37
HETATM   37  O   UNL     1      39.562 -11.836  -1.309  1.00  0.00    -0.401 OA
HETATM   38  H   UNL     1      39.061 -11.219  -0.744  1.00  0.00     0.209 HD
ENDBRANCH  36  37
ENDBRANCH  35  36
ENDBRANCH  30  35
ENDBRANCH  27  28
ENDBRANCH   7  27
TORSDOF 10
ENDMDL
MODEL 9
REMARK VINA RESULT:      -7.6      4.271      9.158
REMARK  10 active torsions:
REMARK  status: ('A' for Active; 'I' for Inactive)
REMARK    1  A    between atoms: O_2  and  C_3 
REMARK    2  A    between atoms: C_3  and  C_4 
REMARK    3  A    between atoms: C_8  and  N_9 
REMARK       I    between atoms: N_9  and  C_10 
REMARK    4  A    between atoms: C_10  and  C_11 
REMARK    5  A    between atoms: C_12  and  C_13 
REMARK    6  A    between atoms: C_22  and  C_23 
REMARK    7  A    between atoms: C_23  and  N_24 
REMARK    8  A    between atoms: C_26  and  C_27 
REMARK    9  A    between atoms: C_27  and  C_28 
REMARK   10  A    between atoms: C_28  and  O_29 
ROOT
HETATM    1  C   UNL     1      40.311 -13.817   2.657  1.00  0.00     0.110 C 
HETATM    2  S   UNL     1      39.590 -12.531   1.790  1.00  0.00    -0.061 SA
HETATM    3  C   UNL     1      39.863 -13.290   0.301  1.00  0.00     0.111 A 
HETATM    4  C   UNL     1      40.501 -14.518   0.422  1.00  0.00     0.028 A 
HETATM    5  C   UNL     1      40.852 -14.778   1.804  1.00  0.00     0.071 C 
HETATM    6  N   UNL     1      39.444 -12.697  -0.840  1.00  0.00    -0.243 NA
HETATM    7  C   UNL     1      39.627 -13.419  -1.965  1.00  0.00     0.061 A 
HETATM    8  C   UNL     1      40.195 -14.686  -1.981  1.00  0.00     0.030 A 
HETATM    9  C   UNL     1      40.636 -15.245  -0.783  1.00  0.00     0.019 A 
ENDROOT
BRANCH   5  10
HETATM   10  N   UNL     1      41.579 -15.854   2.332  1.00  0.00    -0.321 N 
HETATM   11  C   UNL     1      42.906 -15.835   2.699  1.00  0.00     0.245 C 
HETATM   12  O   UNL     1      43.646 -14.859   2.706  1.00  0.00    -0.268 OA
HETATM   13  H   UNL     1      41.021 -16.649   2.646  1.00  0.00     0.169 HD
BRANCH  11  14
HETATM   14  C   UNL     1      43.374 -17.168   3.169  1.00  0.00     0.075 C 
HETATM   15  C   UNL     1      43.522 -18.170   2.289  1.00  0.00     0.017 C 
BRANCH  15  16
HETATM   16  C   UNL     1      43.905 -19.526   2.692  1.00  0.00    -0.036 A 
HETATM   17  C   UNL     1      43.677 -20.583   1.799  1.00  0.00     0.014 A 
HETATM   18  C   UNL     1      44.027 -21.889   2.150  1.00  0.00     0.043 A 
HETATM   19  C   UNL     1      44.615 -22.133   3.384  1.00  0.00     0.116 A 
HETATM   20  F   UNL     1      44.949 -23.385   3.721  1.00  0.00    -0.206 F 
HETATM   21  C   UNL     1      44.866 -21.095   4.274  1.00  0.00     0.043 A 
HETATM   22  C   UNL     1      44.513 -19.789   3.927  1.00  0.00     0.014 A 
ENDBRANCH  15  16
ENDBRANCH  11  14
ENDBRANCH   5  10
BRANCH   1  23
HETATM   23  C   UNL     1      40.364 -13.825   4.112  1.00  0.00     0.302 C 
HETATM   24  O   UNL     1      39.909 -14.733   4.801  1.00  0.00    -0.259 OA
BRANCH  23  25
HETATM   25  O   UNL     1      40.952 -12.702   4.612  1.00  0.00    -0.322 OA
HETATM   26  C   UNL     1      42.199 -12.933   5.272  1.00  0.00     0.213 C 
ENDBRANCH  23  25
ENDBRANCH   1  23
BRANCH   7  27
HETATM   27  C   UNL     1      39.207 -12.764  -3.266  1.00  0.00     0.294 C 
BRANCH  27  28
HETATM   28  N   UNL     1      40.189 -11.740  -3.854  1.00  0.00    -0.061 N 
HETATM   29  H   UNL     1      40.001 -11.736  -4.864  1.00  0.00     0.280 HD
HETATM   30  C   UNL     1      39.999 -10.289  -3.381  1.00  0.00     0.190 C 
HETATM   31  C   UNL     1      41.018  -9.412  -4.138  1.00  0.00     0.033 C 
HETATM   32  C   UNL     1      42.453  -9.900  -3.992  1.00  0.00     0.004 C 
HETATM   33  C   UNL     1      42.574 -11.346  -4.440  1.00  0.00     0.028 C 
HETATM   34  C   UNL     1      41.614 -12.229  -3.666  1.00  0.00     0.235 C 
BRANCH  30  35
HETATM   35  C   UNL     1      38.584  -9.778  -3.703  1.00  0.00     0.059 C 
BRANCH  35  36
HETATM   36  C   UNL     1      38.363  -9.474  -5.182  1.00  0.00     0.166 C 
BRANCH  36  37
HETATM   37  O   UNL     1      38.160 -10.714  -5.843  1.00  0.00    -0.401 OA
HETATM   38  H   UNL     1      38.729 -11.378  -5.411  1.00  0.00     0.209 HD
ENDBRANCH  36  37
ENDBRANCH  35  36
ENDBRANCH  30  35
ENDBRANCH  27  28
ENDBRANCH   7  27
TORSDOF 10
ENDMDL
MODEL 10
REMARK VINA RESULT:      -7.6      4.504     10.464
REMARK  10 active torsions:
REMARK  status: ('A' for Active; 'I' for Inactive)
REMARK    1  A    between atoms: O_2  and  C_3 
REMARK    2  A    between atoms: C_3  and  C_4 
REMARK    3  A    between atoms: C_8  and  N_9 
REMARK       I    between atoms: N_9  and  C_10 
REMARK    4  A    between atoms: C_10  and  C_11 
REMARK    5  A    between atoms: C_12  and  C_13 
REMARK    6  A    between atoms: C_22  and  C_23 
REMARK    7  A    between atoms: C_23  and  N_24 
REMARK    8  A    between atoms: C_26  and  C_27 
REMARK    9  A    between atoms: C_27  and  C_28 
REMARK   10  A    between atoms: C_28  and  O_29 
ROOT
HETATM    1  C   UNL     1      43.412 -13.497   5.342  1.00  0.00     0.110 C 
HETATM    2  S   UNL     1      43.455 -13.964   3.697  1.00  0.00    -0.061 SA
HETATM    3  C   UNL     1      42.100 -13.019   3.321  1.00  0.00     0.111 A 
HETATM    4  C   UNL     1      41.587 -12.339   4.418  1.00  0.00     0.028 A 
HETATM    5  C   UNL     1      42.302 -12.701   5.625  1.00  0.00     0.071 C 
HETATM    6  N   UNL     1      41.649 -12.973   2.048  1.00  0.00    -0.243 NA
HETATM    7  C   UNL     1      40.622 -12.125   1.831  1.00  0.00     0.061 A 
HETATM    8  C   UNL     1      40.054 -11.338   2.823  1.00  0.00     0.030 A 
HETATM    9  C   UNL     1      40.535 -11.440   4.127  1.00  0.00     0.019 A 
ENDROOT
BRANCH   5  10
HETATM   10  N   UNL     1      42.039 -12.309   6.946  1.00  0.00    -0.321 N 
HETATM   11  C   UNL     1      41.992 -11.016   7.414  1.00  0.00     0.245 C 
HETATM   12  O   UNL     1      42.088  -9.994   6.746  1.00  0.00    -0.268 OA
HETATM   13  H   UNL     1      41.661 -13.038   7.552  1.00  0.00     0.169 HD
BRANCH  11  14
HETATM   14  C   UNL     1      41.743 -10.963   8.882  1.00  0.00     0.075 C 
HETATM   15  C   UNL     1      42.657 -10.408   9.692  1.00  0.00     0.017 C 
BRANCH  15  16
HETATM   16  C   UNL     1      42.513 -10.389  11.151  1.00  0.00    -0.036 A 
HETATM   17  C   UNL     1      43.499  -9.752  11.917  1.00  0.00     0.014 A 
HETATM   18  C   UNL     1      43.397  -9.717  13.309  1.00  0.00     0.043 A 
HETATM   19  C   UNL     1      42.304 -10.306  13.931  1.00  0.00     0.116 A 
HETATM   20  F   UNL     1      42.206 -10.275  15.266  1.00  0.00    -0.206 F 
HETATM   21  C   UNL     1      41.306 -10.926  13.186  1.00  0.00     0.043 A 
HETATM   22  C   UNL     1      41.409 -10.966  11.794  1.00  0.00     0.014 A 
ENDBRANCH  15  16
ENDBRANCH  11  14
ENDBRANCH   5  10
BRANCH   1  23
HETATM   23  C   UNL     1      44.416 -13.950   6.294  1.00  0.00     0.302 C 
HETATM   24  O   UNL     1      45.571 -13.533   6.308  1.00  0.00    -0.259 OA
BRANCH  23  25
HETATM   25  O   UNL     1      43.931 -14.899   7.141  1.00  0.00    -0.322 OA
HETATM   26  C   UNL     1      44.196 -16.244   6.732  1.00  0.00     0.213 C 
ENDBRANCH  23  25
ENDBRANCH   1  23
BRANCH   7  27
HETATM   27  C   UNL     1      40.065 -12.082   0.421  1.00  0.00     0.294 C 
BRANCH  27  28
HETATM   28  N   UNL     1      41.084 -12.263  -0.713  1.00  0.00    -0.061 N 
HETATM   29  H   UNL     1      41.816 -12.870  -0.323  1.00  0.00     0.280 HD
HETATM   30  C   UNL     1      40.561 -12.980  -1.969  1.00  0.00     0.190 C 
HETATM   31  C   UNL     1      41.743 -13.133  -2.948  1.00  0.00     0.033 C 
HETATM   32  C   UNL     1      42.434 -11.814  -3.264  1.00  0.00     0.004 C 
HETATM   33  C   UNL     1      42.898 -11.135  -1.987  1.00  0.00     0.028 C 
HETATM   34  C   UNL     1      41.734 -10.930  -1.037  1.00  0.00     0.235 C 
BRANCH  30  35
HETATM   35  C   UNL     1      40.026 -14.382  -1.629  1.00  0.00     0.059 C 
BRANCH  35  36
HETATM   36  C   UNL     1      41.122 -15.427  -1.442  1.00  0.00     0.166 C 
BRANCH  36  37
HETATM   37  O   UNL     1      41.775 -15.142  -0.213  1.00  0.00    -0.401 OA
HETATM   38  H   UNL     1      41.247 -15.541   0.503  1.00  0.00     0.209 HD
ENDBRANCH  36  37
ENDBRANCH  35  36
ENDBRANCH  30  35
ENDBRANCH  27  28
ENDBRANCH   7  27
TORSDOF 10
ENDMDL
