MODEL 1
REMARK VINA RESULT:      -9.2      0.000      0.000
REMARK  6 active torsions:
REMARK  status: ('A' for Active; 'I' for Inactive)
REMARK    1  A    between atoms: C_4  and  C_5 
REMARK    2  A    between atoms: C_5  and  N_6 
REMARK    3  A    between atoms: C_10  and  C_11 
REMARK    4  A    between atoms: C_11  and  C_12 
REMARK    5  A    between atoms: N_21  and  C_22 
REMARK    6  A    between atoms: C_22  and  C_23 
ROOT
HETATM    1  C   UNL     1      41.051 -13.714   1.295  1.00  0.00     0.164 A 
HETATM    2  N   UNL     1      42.250 -13.678   2.120  1.00  0.00    -0.319 N 
HETATM    3  C   UNL     1      42.034 -13.056   3.327  1.00  0.00     0.326 A 
HETATM    4  O   UNL     1      42.924 -12.875   4.139  1.00  0.00    -0.247 OA
HETATM    5  N   UNL     1      40.718 -12.750   3.434  1.00  0.00    -0.265 N 
HETATM    6  C   UNL     1      40.060 -13.044   2.273  1.00  0.00     0.263 A 
HETATM    7  O   UNL     1      38.864 -12.882   2.070  1.00  0.00    -0.270 OA
HETATM    8  H   UNL     1      43.142 -13.462   1.681  1.00  0.00     0.166 HD
ENDROOT
BRANCH   1   9
HETATM    9  C   UNL     1      40.587 -15.182   0.975  1.00  0.00     0.033 C 
HETATM   10  C   UNL     1      40.094 -16.002   2.184  1.00  0.00     0.036 C 
HETATM   11  C   UNL     1      41.194 -16.414   3.149  1.00  0.00     0.235 C 
HETATM   12  N   UNL     1      42.326 -17.120   2.437  1.00  0.00    -0.067 N 
HETATM   13  H   UNL     1      41.975 -18.060   2.220  1.00  0.00     0.280 HD
HETATM   14  C   UNL     1      42.789 -16.491   1.141  1.00  0.00     0.235 C 
HETATM   15  C   UNL     1      41.625 -16.068   0.259  1.00  0.00     0.036 C 
BRANCH  12  16
HETATM   16  C   UNL     1      43.536 -17.314   3.352  1.00  0.00     0.274 C 
BRANCH  16  17
HETATM   17  C   UNL     1      43.965 -18.743   3.560  1.00  0.00    -0.026 A 
HETATM   18  C   UNL     1      43.804 -19.648   2.487  1.00  0.00     0.016 A 
HETATM   19  C   UNL     1      44.203 -20.982   2.590  1.00  0.00    -0.061 A 
HETATM   20  C   UNL     1      43.999 -21.941   1.451  1.00  0.00     0.048 C 
HETATM   21  C   UNL     1      44.752 -21.429   3.791  1.00  0.00     0.007 A 
HETATM   22  C   UNL     1      44.909 -20.552   4.866  1.00  0.00     0.008 A 
HETATM   23  C   UNL     1      44.531 -19.204   4.766  1.00  0.00    -0.054 A 
HETATM   24  C   UNL     1      44.666 -18.332   5.985  1.00  0.00     0.049 C 
ENDBRANCH  16  17
ENDBRANCH  12  16
ENDBRANCH   1   9
BRANCH   1  25
HETATM   25  C   UNL     1      41.310 -12.902   0.031  1.00  0.00     0.072 A 
HETATM   26  N   UNL     1      42.458 -12.158   0.050  1.00  0.00    -0.262 NA
HETATM   27  C   UNL     1      42.739 -11.407  -1.041  1.00  0.00     0.117 A 
HETATM   28  C   UNL     1      41.937 -11.361  -2.166  1.00  0.00     0.019 A 
HETATM   29  C   UNL     1      40.782 -12.132  -2.180  1.00  0.00     0.003 A 
HETATM   30  C   UNL     1      40.465 -12.921  -1.076  1.00  0.00     0.030 A 
ENDBRANCH   1  25
BRANCH   5  31
HETATM   31  C   UNL     1      40.079 -12.304   4.661  1.00  0.00     0.168 C 
BRANCH  31  32
HETATM   32  C   UNL     1      39.942 -10.775   4.688  1.00  0.00     0.140 C 
HETATM   33  O   UNL     1      38.790 -10.362   5.464  1.00  0.00    -0.384 OA
HETATM   34  C   UNL     1      39.132  -9.142   6.149  1.00  0.00     0.168 C 
HETATM   35  C   UNL     1      40.520  -8.742   5.692  1.00  0.00     0.029 C 
HETATM   36  C   UNL     1      41.130 -10.070   5.317  1.00  0.00     0.036 C 
ENDBRANCH  31  32
ENDBRANCH   5  31
TORSDOF 6
ENDMDL
MODEL 2
REMARK VINA RESULT:      -9.0      2.158      4.976
REMARK  6 active torsions:
REMARK  status: ('A' for Active; 'I' for Inactive)
REMARK    1  A    between atoms: C_4  and  C_5 
REMARK    2  A    between atoms: C_5  and  N_6 
REMARK    3  A    between atoms: C_10  and  C_11 
REMARK    4  A    between atoms: C_11  and  C_12 
REMARK    5  A    between atoms: N_21  and  C_22 
REMARK    6  A    between atoms: C_22  and  C_23 
ROOT
HETATM    1  C   UNL     1      41.235 -12.983   2.966  1.00  0.00     0.164 A 
HETATM    2  N   UNL     1      40.442 -14.198   3.086  1.00  0.00    -0.319 N 
HETATM    3  C   UNL     1      40.412 -14.919   1.916  1.00  0.00     0.326 A 
HETATM    4  O   UNL     1      39.758 -15.939   1.793  1.00  0.00    -0.247 OA
HETATM    5  N   UNL     1      41.231 -14.326   1.013  1.00  0.00    -0.265 N 
HETATM    6  C   UNL     1      41.723 -13.151   1.509  1.00  0.00     0.263 A 
HETATM    7  O   UNL     1      42.491 -12.398   0.926  1.00  0.00    -0.270 OA
HETATM    8  H   UNL     1      39.559 -14.158   3.589  1.00  0.00     0.166 HD
ENDROOT
BRANCH   1   9
HETATM    9  C   UNL     1      42.463 -12.967   3.949  1.00  0.00     0.033 C 
HETATM   10  C   UNL     1      43.624 -13.910   3.577  1.00  0.00     0.036 C 
HETATM   11  C   UNL     1      43.315 -15.387   3.768  1.00  0.00     0.235 C 
HETATM   12  N   UNL     1      42.804 -15.674   5.162  1.00  0.00    -0.067 N 
HETATM   13  H   UNL     1      43.626 -15.626   5.775  1.00  0.00     0.280 HD
HETATM   14  C   UNL     1      41.771 -14.710   5.701  1.00  0.00     0.235 C 
HETATM   15  C   UNL     1      42.137 -13.260   5.426  1.00  0.00     0.036 C 
BRANCH  12  16
HETATM   16  C   UNL     1      42.261 -17.099   5.282  1.00  0.00     0.274 C 
BRANCH  16  17
HETATM   17  C   UNL     1      43.207 -18.189   4.844  1.00  0.00    -0.026 A 
HETATM   18  C   UNL     1      42.968 -18.815   3.601  1.00  0.00     0.016 A 
HETATM   19  C   UNL     1      43.813 -19.814   3.111  1.00  0.00    -0.061 A 
HETATM   20  C   UNL     1      43.530 -20.492   1.801  1.00  0.00     0.048 C 
HETATM   21  C   UNL     1      44.902 -20.210   3.884  1.00  0.00     0.007 A 
HETATM   22  C   UNL     1      45.149 -19.610   5.121  1.00  0.00     0.008 A 
HETATM   23  C   UNL     1      44.318 -18.591   5.612  1.00  0.00    -0.054 A 
HETATM   24  C   UNL     1      44.603 -18.035   6.981  1.00  0.00     0.049 C 
ENDBRANCH  16  17
ENDBRANCH  12  16
ENDBRANCH   1   9
BRANCH   1  25
HETATM   25  C   UNL     1      40.317 -11.783   3.171  1.00  0.00     0.072 A 
HETATM   26  N   UNL     1      40.961 -10.592   3.369  1.00  0.00    -0.262 NA
HETATM   27  C   UNL     1      40.199  -9.491   3.567  1.00  0.00     0.117 A 
HETATM   28  C   UNL     1      38.817  -9.506   3.570  1.00  0.00     0.019 A 
HETATM   29  C   UNL     1      38.175 -10.718   3.352  1.00  0.00     0.003 A 
HETATM   30  C   UNL     1      38.928 -11.871   3.140  1.00  0.00     0.030 A 
ENDBRANCH   1  25
BRANCH   5  31
HETATM   31  C   UNL     1      41.635 -14.931  -0.246  1.00  0.00     0.168 C 
BRANCH  31  32
HETATM   32  C   UNL     1      40.598 -14.660  -1.345  1.00  0.00     0.140 C 
HETATM   33  O   UNL     1      40.749 -13.329  -1.896  1.00  0.00    -0.384 OA
HETATM   34  C   UNL     1      40.454 -13.396  -3.304  1.00  0.00     0.168 C 
HETATM   35  C   UNL     1      40.008 -14.813  -3.604  1.00  0.00     0.029 C 
HETATM   36  C   UNL     1      40.709 -15.605  -2.528  1.00  0.00     0.036 C 
ENDBRANCH  31  32
ENDBRANCH   5  31
TORSDOF 6
ENDMDL
MODEL 3
REMARK VINA RESULT:      -8.9      2.385      3.564
REMARK  6 active torsions:
REMARK  status: ('A' for Active; 'I' for Inactive)
REMARK    1  A    between atoms: C_4  and  C_5 
REMARK    2  A    between atoms: C_5  and  N_6 
REMARK    3  A    between atoms: C_10  and  C_11 
REMARK    4  A    between atoms: C_11  and  C_12 
REMARK    5  A    between atoms: N_21  and  C_22 
REMARK    6  A    between atoms: C_22  and  C_23 
ROOT
HETATM    1  C   UNL     1      41.224 -14.809   1.544  1.00  0.00     0.164 A 
HETATM    2  N   UNL     1      42.643 -14.516   1.684  1.00  0.00    -0.319 N 
HETATM    3  C   UNL     1      42.981 -14.176   2.973  1.00  0.00     0.326 A 
HETATM    4  O   UNL     1      44.109 -13.841   3.287  1.00  0.00    -0.247 OA
HETATM    5  N   UNL     1      41.891 -14.319   3.765  1.00  0.00    -0.265 N 
HETATM    6  C   UNL     1      40.791 -14.635   3.017  1.00  0.00     0.263 A 
HETATM    7  O   UNL     1      39.664 -14.832   3.454  1.00  0.00    -0.270 OA
HETATM    8  H   UNL     1      43.104 -13.968   0.961  1.00  0.00     0.166 HD
ENDROOT
BRANCH   1   9
HETATM    9  C   UNL     1      40.960 -16.287   1.073  1.00  0.00     0.033 C 
HETATM   10  C   UNL     1      40.559 -17.277   2.184  1.00  0.00     0.036 C 
HETATM   11  C   UNL     1      41.690 -17.637   3.137  1.00  0.00     0.235 C 
HETATM   12  N   UNL     1      42.914 -18.119   2.392  1.00  0.00    -0.067 N 
HETATM   13  H   UNL     1      42.692 -19.070   2.077  1.00  0.00     0.280 HD
HETATM   14  C   UNL     1      43.310 -17.312   1.175  1.00  0.00     0.235 C 
HETATM   15  C   UNL     1      42.115 -16.958   0.305  1.00  0.00     0.036 C 
BRANCH  12  16
HETATM   16  C   UNL     1      44.124 -18.244   3.318  1.00  0.00     0.274 C 
BRANCH  16  17
HETATM   17  C   UNL     1      44.235 -19.551   4.062  1.00  0.00    -0.026 A 
HETATM   18  C   UNL     1      43.991 -19.545   5.454  1.00  0.00     0.016 A 
HETATM   19  C   UNL     1      44.046 -20.718   6.210  1.00  0.00    -0.061 A 
HETATM   20  C   UNL     1      43.814 -20.692   7.694  1.00  0.00     0.048 C 
HETATM   21  C   UNL     1      44.372 -21.913   5.573  1.00  0.00     0.007 A 
HETATM   22  C   UNL     1      44.627 -21.937   4.200  1.00  0.00     0.008 A 
HETATM   23  C   UNL     1      44.554 -20.768   3.427  1.00  0.00    -0.054 A 
HETATM   24  C   UNL     1      44.906 -20.854   1.967  1.00  0.00     0.049 C 
ENDBRANCH  16  17
ENDBRANCH  12  16
ENDBRANCH   1   9
BRANCH   1  25
HETATM   25  C   UNL     1      40.609 -13.784   0.598  1.00  0.00     0.072 A 
HETATM   26  N   UNL     1      41.321 -12.622   0.467  1.00  0.00    -0.262 NA
HETATM   27  C   UNL     1      40.822 -11.668  -0.353  1.00  0.00     0.117 A 
HETATM   28  C   UNL     1      39.645 -11.808  -1.063  1.00  0.00     0.019 A 
HETATM   29  C   UNL     1      38.939 -12.997  -0.934  1.00  0.00     0.003 A 
HETATM   30  C   UNL     1      39.426 -14.003  -0.102  1.00  0.00     0.030 A 
ENDBRANCH   1  25
BRANCH   5  31
HETATM   31  C   UNL     1      41.925 -14.280   5.218  1.00  0.00     0.168 C 
BRANCH  31  32
HETATM   32  C   UNL     1      42.519 -15.574   5.791  1.00  0.00     0.140 C 
HETATM   33  O   UNL     1      43.637 -15.297   6.669  1.00  0.00    -0.384 OA
HETATM   34  C   UNL     1      43.604 -16.255   7.744  1.00  0.00     0.168 C 
HETATM   35  C   UNL     1      42.471 -17.220   7.454  1.00  0.00     0.029 C 
HETATM   36  C   UNL     1      41.535 -16.376   6.624  1.00  0.00     0.036 C 
ENDBRANCH  31  32
ENDBRANCH   5  31
TORSDOF 6
ENDMDL
MODEL 4
REMARK VINA RESULT:      -8.8      1.304      1.492
REMARK  6 active torsions:
REMARK  status: ('A' for Active; 'I' for Inactive)
REMARK    1  A    between atoms: C_4  and  C_5 
REMARK    2  A    between atoms: C_5  and  N_6 
REMARK    3  A    between atoms: C_10  and  C_11 
REMARK    4  A    between atoms: C_11  and  C_12 
REMARK    5  A    between atoms: N_21  and  C_22 
REMARK    6  A    between atoms: C_22  and  C_23 
ROOT
HETATM    1  C   UNL     1      41.000 -14.080   0.518  1.00  0.00     0.164 A 
HETATM    2  N   UNL     1      42.236 -13.925   1.273  1.00  0.00    -0.319 N 
HETATM    3  C   UNL     1      42.145 -12.938   2.225  1.00  0.00     0.326 A 
HETATM    4  O   UNL     1      43.089 -12.615   2.925  1.00  0.00    -0.247 OA
HETATM    5  N   UNL     1      40.876 -12.465   2.248  1.00  0.00    -0.265 N 
HETATM    6  C   UNL     1      40.134 -13.029   1.248  1.00  0.00     0.263 A 
HETATM    7  O   UNL     1      38.953 -12.802   1.022  1.00  0.00    -0.270 OA
HETATM    8  H   UNL     1      43.122 -13.961   0.775  1.00  0.00     0.166 HD
ENDROOT
BRANCH   1   9
HETATM    9  C   UNL     1      40.370 -15.511   0.684  1.00  0.00     0.033 C 
HETATM   10  C   UNL     1      40.008 -15.915   2.127  1.00  0.00     0.036 C 
HETATM   11  C   UNL     1      41.209 -16.190   3.019  1.00  0.00     0.235 C 
HETATM   12  N   UNL     1      42.151 -17.194   2.392  1.00  0.00    -0.067 N 
HETATM   13  H   UNL     1      41.693 -18.106   2.493  1.00  0.00     0.280 HD
HETATM   14  C   UNL     1      42.454 -16.991   0.923  1.00  0.00     0.235 C 
HETATM   15  C   UNL     1      41.204 -16.676   0.116  1.00  0.00     0.036 C 
BRANCH  12  16
HETATM   16  C   UNL     1      43.470 -17.286   3.160  1.00  0.00     0.274 C 
BRANCH  16  17
HETATM   17  C   UNL     1      43.930 -18.684   3.486  1.00  0.00    -0.026 A 
HETATM   18  C   UNL     1      43.863 -19.660   2.466  1.00  0.00     0.016 A 
HETATM   19  C   UNL     1      44.297 -20.970   2.679  1.00  0.00    -0.061 A 
HETATM   20  C   UNL     1      44.192 -22.005   1.595  1.00  0.00     0.048 C 
HETATM   21  C   UNL     1      44.784 -21.321   3.937  1.00  0.00     0.007 A 
HETATM   22  C   UNL     1      44.848 -20.373   4.960  1.00  0.00     0.008 A 
HETATM   23  C   UNL     1      44.435 -19.047   4.751  1.00  0.00    -0.054 A 
HETATM   24  C   UNL     1      44.468 -18.096   5.916  1.00  0.00     0.049 C 
ENDBRANCH  16  17
ENDBRANCH  12  16
ENDBRANCH   1   9
BRANCH   1  25
HETATM   25  C   UNL     1      41.280 -13.738  -0.941  1.00  0.00     0.072 A 
HETATM   26  N   UNL     1      42.349 -12.908  -1.144  1.00  0.00    -0.262 NA
HETATM   27  C   UNL     1      42.642 -12.560  -2.419  1.00  0.00     0.117 A 
HETATM   28  C   UNL     1      41.929 -13.002  -3.516  1.00  0.00     0.019 A 
HETATM   29  C   UNL     1      40.855 -13.857  -3.300  1.00  0.00     0.003 A 
HETATM   30  C   UNL     1      40.528 -14.239  -2.001  1.00  0.00     0.030 A 
ENDBRANCH   1  25
BRANCH   5  31
HETATM   31  C   UNL     1      40.348 -11.588   3.281  1.00  0.00     0.168 C 
BRANCH  31  32
HETATM   32  C   UNL     1      40.376 -12.274   4.654  1.00  0.00     0.140 C 
HETATM   33  O   UNL     1      41.238 -11.566   5.579  1.00  0.00    -0.384 OA
HETATM   34  C   UNL     1      40.643 -11.647   6.888  1.00  0.00     0.168 C 
HETATM   35  C   UNL     1      39.415 -12.526   6.772  1.00  0.00     0.029 C 
HETATM   36  C   UNL     1      39.019 -12.336   5.329  1.00  0.00     0.036 C 
ENDBRANCH  31  32
ENDBRANCH   5  31
TORSDOF 6
ENDMDL
MODEL 5
REMARK VINA RESULT:      -8.8      1.773      5.047
REMARK  6 active torsions:
REMARK  status: ('A' for Active; 'I' for Inactive)
REMARK    1  A    between atoms: C_4  and  C_5 
REMARK    2  A    between atoms: C_5  and  N_6 
REMARK    3  A    between atoms: C_10  and  C_11 
REMARK    4  A    between atoms: C_11  and  C_12 
REMARK    5  A    between atoms: N_21  and  C_22 
REMARK    6  A    between atoms: C_22  and  C_23 
ROOT
HETATM    1  C   UNL     1      41.274 -13.161   3.792  1.00  0.00     0.164 A 
HETATM    2  N   UNL     1      40.486 -14.365   3.571  1.00  0.00    -0.319 N 
HETATM    3  C   UNL     1      39.816 -14.336   2.371  1.00  0.00     0.326 A 
HETATM    4  O   UNL     1      39.058 -15.225   2.023  1.00  0.00    -0.247 OA
HETATM    5  N   UNL     1      40.177 -13.220   1.692  1.00  0.00    -0.265 N 
HETATM    6  C   UNL     1      40.988 -12.432   2.459  1.00  0.00     0.263 A 
HETATM    7  O   UNL     1      41.477 -11.364   2.116  1.00  0.00    -0.270 OA
HETATM    8  H   UNL     1      39.959 -14.755   4.348  1.00  0.00     0.166 HD
ENDROOT
BRANCH   1   9
HETATM    9  C   UNL     1      42.812 -13.465   3.924  1.00  0.00     0.033 C 
HETATM   10  C   UNL     1      43.409 -14.362   2.822  1.00  0.00     0.036 C 
HETATM   11  C   UNL     1      42.975 -15.817   2.898  1.00  0.00     0.235 C 
HETATM   12  N   UNL     1      43.222 -16.402   4.270  1.00  0.00    -0.067 N 
HETATM   13  H   UNL     1      44.235 -16.558   4.328  1.00  0.00     0.280 HD
HETATM   14  C   UNL     1      42.823 -15.533   5.443  1.00  0.00     0.235 C 
HETATM   15  C   UNL     1      43.255 -14.087   5.262  1.00  0.00     0.036 C 
BRANCH  12  16
HETATM   16  C   UNL     1      42.566 -17.775   4.425  1.00  0.00     0.274 C 
BRANCH  16  17
HETATM   17  C   UNL     1      43.476 -18.954   4.198  1.00  0.00    -0.026 A 
HETATM   18  C   UNL     1      43.315 -19.698   3.007  1.00  0.00     0.016 A 
HETATM   19  C   UNL     1      44.136 -20.787   2.709  1.00  0.00    -0.061 A 
HETATM   20  C   UNL     1      43.934 -21.587   1.453  1.00  0.00     0.048 C 
HETATM   21  C   UNL     1      45.121 -21.156   3.623  1.00  0.00     0.007 A 
HETATM   22  C   UNL     1      45.289 -20.440   4.810  1.00  0.00     0.008 A 
HETATM   23  C   UNL     1      44.483 -19.330   5.110  1.00  0.00    -0.054 A 
HETATM   24  C   UNL     1      44.674 -18.646   6.436  1.00  0.00     0.049 C 
ENDBRANCH  16  17
ENDBRANCH  12  16
ENDBRANCH   1   9
BRANCH   1  25
HETATM   25  C   UNL     1      40.721 -12.440   5.016  1.00  0.00     0.072 A 
HETATM   26  N   UNL     1      41.226 -11.184   5.222  1.00  0.00    -0.262 NA
HETATM   27  C   UNL     1      40.780 -10.496   6.299  1.00  0.00     0.117 A 
HETATM   28  C   UNL     1      39.845 -10.989   7.189  1.00  0.00     0.019 A 
HETATM   29  C   UNL     1      39.329 -12.258   6.962  1.00  0.00     0.003 A 
HETATM   30  C   UNL     1      39.761 -12.992   5.860  1.00  0.00     0.030 A 
ENDBRANCH   1  25
BRANCH   5  31
HETATM   31  C   UNL     1      39.857 -12.972   0.296  1.00  0.00     0.168 C 
BRANCH  31  32
HETATM   32  C   UNL     1      40.978 -13.474  -0.625  1.00  0.00     0.140 C 
HETATM   33  O   UNL     1      40.451 -14.277  -1.709  1.00  0.00    -0.384 OA
HETATM   34  C   UNL     1      41.244 -14.013  -2.882  1.00  0.00     0.168 C 
HETATM   35  C   UNL     1      42.366 -13.082  -2.467  1.00  0.00     0.029 C 
HETATM   36  C   UNL     1      41.763 -12.358  -1.288  1.00  0.00     0.036 C 
ENDBRANCH  31  32
ENDBRANCH   5  31
TORSDOF 6
ENDMDL
MODEL 6
REMARK VINA RESULT:      -8.6      1.267      1.988
REMARK  6 active torsions:
REMARK  status: ('A' for Active; 'I' for Inactive)
REMARK    1  A    between atoms: C_4  and  C_5 
REMARK    2  A    between atoms: C_5  and  N_6 
REMARK    3  A    between atoms: C_10  and  C_11 
REMARK    4  A    between atoms: C_11  and  C_12 
REMARK    5  A    between atoms: N_21  and  C_22 
REMARK    6  A    between atoms: C_22  and  C_23 
ROOT
HETATM    1  C   UNL     1      41.488 -14.515   1.615  1.00  0.00     0.164 A 
HETATM    2  N   UNL     1      42.833 -14.440   2.167  1.00  0.00    -0.319 N 
HETATM    3  C   UNL     1      42.852 -13.872   3.419  1.00  0.00     0.326 A 
HETATM    4  O   UNL     1      43.886 -13.668   4.030  1.00  0.00    -0.247 OA
HETATM    5  N   UNL     1      41.577 -13.642   3.817  1.00  0.00    -0.265 N 
HETATM    6  C   UNL     1      40.699 -13.933   2.810  1.00  0.00     0.263 A 
HETATM    7  O   UNL     1      39.482 -13.831   2.874  1.00  0.00    -0.270 OA
HETATM    8  H   UNL     1      43.599 -14.160   1.558  1.00  0.00     0.166 HD
ENDROOT
BRANCH   1   9
HETATM    9  C   UNL     1      41.036 -15.995   1.336  1.00  0.00     0.033 C 
HETATM   10  C   UNL     1      40.568 -16.791   2.570  1.00  0.00     0.036 C 
HETATM   11  C   UNL     1      41.686 -17.169   3.530  1.00  0.00     0.235 C 
HETATM   12  N   UNL     1      42.815 -17.879   2.819  1.00  0.00    -0.067 N 
HETATM   13  H   UNL     1      42.472 -18.827   2.629  1.00  0.00     0.280 HD
HETATM   14  C   UNL     1      43.254 -17.276   1.503  1.00  0.00     0.235 C 
HETATM   15  C   UNL     1      42.074 -16.887   0.627  1.00  0.00     0.036 C 
BRANCH  12  16
HETATM   16  C   UNL     1      44.039 -18.038   3.722  1.00  0.00     0.274 C 
BRANCH  16  17
HETATM   17  C   UNL     1      44.180 -19.384   4.387  1.00  0.00    -0.026 A 
HETATM   18  C   UNL     1      43.883 -19.477   5.766  1.00  0.00     0.016 A 
HETATM   19  C   UNL     1      43.962 -20.693   6.449  1.00  0.00    -0.061 A 
HETATM   20  C   UNL     1      43.672 -20.772   7.921  1.00  0.00     0.048 C 
HETATM   21  C   UNL     1      44.365 -21.830   5.753  1.00  0.00     0.007 A 
HETATM   22  C   UNL     1      44.673 -21.755   4.393  1.00  0.00     0.008 A 
HETATM   23  C   UNL     1      44.577 -20.543   3.691  1.00  0.00    -0.054 A 
HETATM   24  C   UNL     1      44.988 -20.520   2.244  1.00  0.00     0.049 C 
ENDBRANCH  16  17
ENDBRANCH  12  16
ENDBRANCH   1   9
BRANCH   1  25
HETATM   25  C   UNL     1      41.431 -13.648   0.362  1.00  0.00     0.072 A 
HETATM   26  N   UNL     1      42.332 -12.618   0.333  1.00  0.00    -0.262 NA
HETATM   27  C   UNL     1      42.324 -11.806  -0.750  1.00  0.00     0.117 A 
HETATM   28  C   UNL     1      41.467 -11.968  -1.822  1.00  0.00     0.019 A 
HETATM   29  C   UNL     1      40.568 -13.026  -1.789  1.00  0.00     0.003 A 
HETATM   30  C   UNL     1      40.552 -13.884  -0.691  1.00  0.00     0.030 A 
ENDBRANCH   1  25
BRANCH   5  31
HETATM   31  C   UNL     1      41.196 -13.273   5.170  1.00  0.00     0.168 C 
BRANCH  31  32
HETATM   32  C   UNL     1      41.228 -11.750   5.357  1.00  0.00     0.140 C 
HETATM   33  O   UNL     1      39.952 -11.151   5.022  1.00  0.00    -0.384 OA
HETATM   34  C   UNL     1      39.729 -10.051   5.925  1.00  0.00     0.168 C 
HETATM   35  C   UNL     1      40.970  -9.914   6.784  1.00  0.00     0.029 C 
HETATM   36  C   UNL     1      41.518 -11.320   6.783  1.00  0.00     0.036 C 
ENDBRANCH  31  32
ENDBRANCH   5  31
TORSDOF 6
ENDMDL
MODEL 7
REMARK VINA RESULT:      -8.5      2.444      5.133
REMARK  6 active torsions:
REMARK  status: ('A' for Active; 'I' for Inactive)
REMARK    1  A    between atoms: C_4  and  C_5 
REMARK    2  A    between atoms: C_5  and  N_6 
REMARK    3  A    between atoms: C_10  and  C_11 
REMARK    4  A    between atoms: C_11  and  C_12 
REMARK    5  A    between atoms: N_21  and  C_22 
REMARK    6  A    between atoms: C_22  and  C_23 
ROOT
HETATM    1  C   UNL     1      41.456 -14.461   2.125  1.00  0.00     0.164 A 
HETATM    2  N   UNL     1      42.392 -13.381   1.845  1.00  0.00    -0.319 N 
HETATM    3  C   UNL     1      41.993 -12.610   0.779  1.00  0.00     0.326 A 
HETATM    4  O   UNL     1      42.666 -11.689   0.350  1.00  0.00    -0.247 OA
HETATM    5  N   UNL     1      40.773 -13.029   0.364  1.00  0.00    -0.265 N 
HETATM    6  C   UNL     1      40.389 -14.146   1.052  1.00  0.00     0.263 A 
HETATM    7  O   UNL     1      39.334 -14.749   0.902  1.00  0.00    -0.270 OA
HETATM    8  H   UNL     1      43.389 -13.574   1.885  1.00  0.00     0.166 HD
ENDROOT
BRANCH   1   9
HETATM    9  C   UNL     1      40.827 -14.353   3.562  1.00  0.00     0.033 C 
HETATM   10  C   UNL     1      41.580 -13.440   4.551  1.00  0.00     0.036 C 
HETATM   11  C   UNL     1      42.912 -13.999   5.026  1.00  0.00     0.235 C 
HETATM   12  N   UNL     1      42.764 -15.398   5.581  1.00  0.00    -0.067 N 
HETATM   13  H   UNL     1      42.325 -15.288   6.502  1.00  0.00     0.280 HD
HETATM   14  C   UNL     1      41.904 -16.344   4.772  1.00  0.00     0.235 C 
HETATM   15  C   UNL     1      40.615 -15.690   4.299  1.00  0.00     0.036 C 
BRANCH  12  16
HETATM   16  C   UNL     1      44.123 -16.054   5.827  1.00  0.00     0.274 C 
BRANCH  16  17
HETATM   17  C   UNL     1      44.088 -17.542   6.065  1.00  0.00    -0.026 A 
HETATM   18  C   UNL     1      44.397 -18.395   4.982  1.00  0.00     0.016 A 
HETATM   19  C   UNL     1      44.415 -19.784   5.128  1.00  0.00    -0.061 A 
HETATM   20  C   UNL     1      44.717 -20.680   3.960  1.00  0.00     0.048 C 
HETATM   21  C   UNL     1      44.095 -20.334   6.368  1.00  0.00     0.007 A 
HETATM   22  C   UNL     1      43.777 -19.508   7.447  1.00  0.00     0.008 A 
HETATM   23  C   UNL     1      43.777 -18.109   7.317  1.00  0.00    -0.054 A 
HETATM   24  C   UNL     1      43.358 -17.282   8.502  1.00  0.00     0.049 C 
ENDBRANCH  16  17
ENDBRANCH  12  16
ENDBRANCH   1   9
BRANCH   1  25
HETATM   25  C   UNL     1      42.172 -15.790   1.907  1.00  0.00     0.072 A 
HETATM   26  N   UNL     1      41.353 -16.839   1.588  1.00  0.00    -0.262 NA
HETATM   27  C   UNL     1      41.929 -18.048   1.392  1.00  0.00     0.117 A 
HETATM   28  C   UNL     1      43.289 -18.273   1.487  1.00  0.00     0.019 A 
HETATM   29  C   UNL     1      44.111 -17.197   1.795  1.00  0.00     0.003 A 
HETATM   30  C   UNL     1      43.553 -15.938   1.999  1.00  0.00     0.030 A 
ENDBRANCH   1  25
BRANCH   5  31
HETATM   31  C   UNL     1      39.936 -12.306  -0.579  1.00  0.00     0.168 C 
BRANCH  31  32
HETATM   32  C   UNL     1      40.081 -12.877  -1.996  1.00  0.00     0.140 C 
HETATM   33  O   UNL     1      41.256 -13.718  -2.108  1.00  0.00    -0.384 OA
HETATM   34  C   UNL     1      40.938 -14.805  -2.998  1.00  0.00     0.168 C 
HETATM   35  C   UNL     1      39.540 -14.560  -3.528  1.00  0.00     0.029 C 
HETATM   36  C   UNL     1      38.914 -13.749  -2.421  1.00  0.00     0.036 C 
ENDBRANCH  31  32
ENDBRANCH   5  31
TORSDOF 6
ENDMDL
MODEL 8
REMARK VINA RESULT:      -8.4      2.083      4.562
REMARK  6 active torsions:
REMARK  status: ('A' for Active; 'I' for Inactive)
REMARK    1  A    between atoms: C_4  and  C_5 
REMARK    2  A    between atoms: C_5  and  N_6 
REMARK    3  A    between atoms: C_10  and  C_11 
REMARK    4  A    between atoms: C_11  and  C_12 
REMARK    5  A    between atoms: N_21  and  C_22 
REMARK    6  A    between atoms: C_22  and  C_23 
ROOT
HETATM    1  C   UNL     1      41.053 -13.133   3.653  1.00  0.00     0.164 A 
HETATM    2  N   UNL     1      40.277 -14.350   3.460  1.00  0.00    -0.319 N 
HETATM    3  C   UNL     1      39.483 -14.289   2.339  1.00  0.00     0.326 A 
HETATM    4  O   UNL     1      38.716 -15.185   2.032  1.00  0.00    -0.247 OA
HETATM    5  N   UNL     1      39.742 -13.135   1.678  1.00  0.00    -0.265 N 
HETATM    6  C   UNL     1      40.610 -12.357   2.392  1.00  0.00     0.263 A 
HETATM    7  O   UNL     1      41.033 -11.261   2.048  1.00  0.00    -0.270 OA
HETATM    8  H   UNL     1      39.844 -14.789   4.269  1.00  0.00     0.166 HD
ENDROOT
BRANCH   1   9
HETATM    9  C   UNL     1      42.603 -13.396   3.610  1.00  0.00     0.033 C 
HETATM   10  C   UNL     1      43.087 -14.336   2.488  1.00  0.00     0.036 C 
HETATM   11  C   UNL     1      42.706 -15.795   2.688  1.00  0.00     0.235 C 
HETATM   12  N   UNL     1      43.135 -16.302   4.046  1.00  0.00    -0.067 N 
HETATM   13  H   UNL     1      44.151 -16.433   3.987  1.00  0.00     0.280 HD
HETATM   14  C   UNL     1      42.856 -15.383   5.215  1.00  0.00     0.235 C 
HETATM   15  C   UNL     1      43.223 -13.939   4.912  1.00  0.00     0.036 C 
BRANCH  12  16
HETATM   16  C   UNL     1      42.541 -17.679   4.347  1.00  0.00     0.274 C 
BRANCH  16  17
HETATM   17  C   UNL     1      43.468 -18.845   4.120  1.00  0.00    -0.026 A 
HETATM   18  C   UNL     1      43.273 -19.633   2.964  1.00  0.00     0.016 A 
HETATM   19  C   UNL     1      44.106 -20.714   2.667  1.00  0.00    -0.061 A 
HETATM   20  C   UNL     1      43.869 -21.561   1.449  1.00  0.00     0.048 C 
HETATM   21  C   UNL     1      45.138 -21.029   3.549  1.00  0.00     0.007 A 
HETATM   22  C   UNL     1      45.341 -20.268   4.702  1.00  0.00     0.008 A 
HETATM   23  C   UNL     1      44.522 -19.167   4.999  1.00  0.00    -0.054 A 
HETATM   24  C   UNL     1      44.753 -18.433   6.292  1.00  0.00     0.049 C 
ENDBRANCH  16  17
ENDBRANCH  12  16
ENDBRANCH   1   9
BRANCH   1  25
HETATM   25  C   UNL     1      40.615 -12.482   4.960  1.00  0.00     0.072 A 
HETATM   26  N   UNL     1      41.175 -11.259   5.210  1.00  0.00    -0.262 NA
HETATM   27  C   UNL     1      40.832 -10.634   6.361  1.00  0.00     0.117 A 
HETATM   28  C   UNL     1      39.946 -11.159   7.283  1.00  0.00     0.019 A 
HETATM   29  C   UNL     1      39.372 -12.394   7.011  1.00  0.00     0.003 A 
HETATM   30  C   UNL     1      39.699 -13.063   5.833  1.00  0.00     0.030 A 
ENDBRANCH   1  25
BRANCH   5  31
HETATM   31  C   UNL     1      39.271 -12.838   0.336  1.00  0.00     0.168 C 
BRANCH  31  32
HETATM   32  C   UNL     1      37.763 -12.550   0.332  1.00  0.00     0.140 C 
HETATM   33  O   UNL     1      37.374 -11.761   1.483  1.00  0.00    -0.384 OA
HETATM   34  C   UNL     1      36.329 -10.860   1.070  1.00  0.00     0.168 C 
HETATM   35  C   UNL     1      36.001 -11.182  -0.374  1.00  0.00     0.029 C 
HETATM   36  C   UNL     1      37.301 -11.759  -0.879  1.00  0.00     0.036 C 
ENDBRANCH  31  32
ENDBRANCH   5  31
TORSDOF 6
ENDMDL
MODEL 9
REMARK VINA RESULT:      -8.3      2.555      4.472
REMARK  6 active torsions:
REMARK  status: ('A' for Active; 'I' for Inactive)
REMARK    1  A    between atoms: C_4  and  C_5 
REMARK    2  A    between atoms: C_5  and  N_6 
REMARK    3  A    between atoms: C_10  and  C_11 
REMARK    4  A    between atoms: C_11  and  C_12 
REMARK    5  A    between atoms: N_21  and  C_22 
REMARK    6  A    between atoms: C_22  and  C_23 
ROOT
HETATM    1  C   UNL     1      41.334 -15.351   3.282  1.00  0.00     0.164 A 
HETATM    2  N   UNL     1      42.012 -14.063   3.297  1.00  0.00    -0.319 N 
HETATM    3  C   UNL     1      41.297 -13.090   2.640  1.00  0.00     0.326 A 
HETATM    4  O   UNL     1      41.717 -11.956   2.492  1.00  0.00    -0.247 OA
HETATM    5  N   UNL     1      40.103 -13.604   2.257  1.00  0.00    -0.265 N 
HETATM    6  C   UNL     1      40.044 -14.941   2.537  1.00  0.00     0.263 A 
HETATM    7  O   UNL     1      39.091 -15.675   2.312  1.00  0.00    -0.270 OA
HETATM    8  H   UNL     1      43.017 -14.036   3.140  1.00  0.00     0.166 HD
ENDROOT
BRANCH   1   9
HETATM    9  C   UNL     1      40.986 -15.863   4.728  1.00  0.00     0.033 C 
HETATM   10  C   UNL     1      41.956 -15.422   5.841  1.00  0.00     0.036 C 
HETATM   11  C   UNL     1      43.320 -16.093   5.783  1.00  0.00     0.235 C 
HETATM   12  N   UNL     1      43.198 -17.599   5.732  1.00  0.00    -0.067 N 
HETATM   13  H   UNL     1      42.942 -17.891   6.682  1.00  0.00     0.280 HD
HETATM   14  C   UNL     1      42.154 -18.148   4.785  1.00  0.00     0.235 C 
HETATM   15  C   UNL     1      40.839 -17.390   4.876  1.00  0.00     0.036 C 
BRANCH  12  16
HETATM   16  C   UNL     1      44.541 -18.264   5.425  1.00  0.00     0.274 C 
BRANCH  16  17
HETATM   17  C   UNL     1      44.478 -19.741   5.130  1.00  0.00    -0.026 A 
HETATM   18  C   UNL     1      44.653 -20.159   3.792  1.00  0.00     0.016 A 
HETATM   19  C   UNL     1      44.636 -21.511   3.441  1.00  0.00    -0.061 A 
HETATM   20  C   UNL     1      44.793 -21.939   2.010  1.00  0.00     0.048 C 
HETATM   21  C   UNL     1      44.420 -22.461   4.437  1.00  0.00     0.007 A 
HETATM   22  C   UNL     1      44.235 -22.066   5.763  1.00  0.00     0.008 A 
HETATM   23  C   UNL     1      44.271 -20.711   6.131  1.00  0.00    -0.054 A 
HETATM   24  C   UNL     1      43.997 -20.353   7.566  1.00  0.00     0.049 C 
ENDBRANCH  16  17
ENDBRANCH  12  16
ENDBRANCH   1   9
BRANCH   1  25
HETATM   25  C   UNL     1      42.198 -16.343   2.511  1.00  0.00     0.072 A 
HETATM   26  N   UNL     1      41.510 -17.364   1.914  1.00  0.00    -0.262 NA
HETATM   27  C   UNL     1      42.223 -18.283   1.222  1.00  0.00     0.117 A 
HETATM   28  C   UNL     1      43.597 -18.239   1.082  1.00  0.00     0.019 A 
HETATM   29  C   UNL     1      44.284 -17.190   1.679  1.00  0.00     0.003 A 
HETATM   30  C   UNL     1      43.581 -16.223   2.395  1.00  0.00     0.030 A 
ENDBRANCH   1  25
BRANCH   5  31
HETATM   31  C   UNL     1      38.994 -12.811   1.752  1.00  0.00     0.168 C 
BRANCH  31  32
HETATM   32  C   UNL     1      39.096 -12.627   0.231  1.00  0.00     0.140 C 
HETATM   33  O   UNL     1      38.704 -13.831  -0.474  1.00  0.00    -0.384 OA
HETATM   34  C   UNL     1      38.022 -13.436  -1.679  1.00  0.00     0.168 C 
HETATM   35  C   UNL     1      38.089 -11.925  -1.760  1.00  0.00     0.029 C 
HETATM   36  C   UNL     1      38.198 -11.529  -0.308  1.00  0.00     0.036 C 
ENDBRANCH  31  32
ENDBRANCH   5  31
TORSDOF 6
ENDMDL
MODEL 10
REMARK VINA RESULT:      -8.3      2.352      7.698
REMARK  6 active torsions:
REMARK  status: ('A' for Active; 'I' for Inactive)
REMARK    1  A    between atoms: C_4  and  C_5 
REMARK    2  A    between atoms: C_5  and  N_6 
REMARK    3  A    between atoms: C_10  and  C_11 
REMARK    4  A    between atoms: C_11  and  C_12 
REMARK    5  A    between atoms: N_21  and  C_22 
REMARK    6  A    between atoms: C_22  and  C_23 
ROOT
HETATM    1  C   UNL     1      40.996 -13.236   4.973  1.00  0.00     0.164 A 
HETATM    2  N   UNL     1      42.282 -12.816   4.436  1.00  0.00    -0.319 N 
HETATM    3  C   UNL     1      43.221 -13.820   4.486  1.00  0.00     0.326 A 
HETATM    4  O   UNL     1      44.376 -13.653   4.136  1.00  0.00    -0.247 OA
HETATM    5  N   UNL     1      42.628 -14.954   4.931  1.00  0.00    -0.265 N 
HETATM    6  C   UNL     1      41.334 -14.708   5.298  1.00  0.00     0.263 A 
HETATM    7  O   UNL     1      40.547 -15.538   5.733  1.00  0.00    -0.270 OA
HETATM    8  H   UNL     1      42.632 -11.890   4.670  1.00  0.00     0.166 HD
ENDROOT
BRANCH   1   9
HETATM    9  C   UNL     1      39.847 -13.169   3.901  1.00  0.00     0.033 C 
HETATM   10  C   UNL     1      39.960 -14.178   2.741  1.00  0.00     0.036 C 
HETATM   11  C   UNL     1      41.082 -13.878   1.759  1.00  0.00     0.235 C 
HETATM   12  N   UNL     1      41.005 -12.460   1.241  1.00  0.00    -0.067 N 
HETATM   13  H   UNL     1      40.229 -12.450   0.570  1.00  0.00     0.280 HD
HETATM   14  C   UNL     1      40.732 -11.390   2.275  1.00  0.00     0.235 C 
HETATM   15  C   UNL     1      39.630 -11.792   3.242  1.00  0.00     0.036 C 
BRANCH  12  16
HETATM   16  C   UNL     1      42.259 -12.078   0.454  1.00  0.00     0.274 C 
BRANCH  16  17
HETATM   17  C   UNL     1      42.107 -12.084  -1.046  1.00  0.00    -0.026 A 
HETATM   18  C   UNL     1      41.318 -13.101  -1.629  1.00  0.00     0.016 A 
HETATM   19  C   UNL     1      41.105 -13.160  -3.008  1.00  0.00    -0.061 A 
HETATM   20  C   UNL     1      40.289 -14.265  -3.617  1.00  0.00     0.048 C 
HETATM   21  C   UNL     1      41.705 -12.202  -3.822  1.00  0.00     0.007 A 
HETATM   22  C   UNL     1      42.496 -11.195  -3.266  1.00  0.00     0.008 A 
HETATM   23  C   UNL     1      42.700 -11.114  -1.879  1.00  0.00    -0.054 A 
HETATM   24  C   UNL     1      43.618 -10.044  -1.353  1.00  0.00     0.049 C 
ENDBRANCH  16  17
ENDBRANCH  12  16
ENDBRANCH   1   9
BRANCH   1  25
HETATM   25  C   UNL     1      40.686 -12.391   6.204  1.00  0.00     0.072 A 
HETATM   26  N   UNL     1      41.685 -11.535   6.580  1.00  0.00    -0.262 NA
HETATM   27  C   UNL     1      41.474 -10.764   7.672  1.00  0.00     0.117 A 
HETATM   28  C   UNL     1      40.309 -10.791   8.415  1.00  0.00     0.019 A 
HETATM   29  C   UNL     1      39.296 -11.653   8.015  1.00  0.00     0.003 A 
HETATM   30  C   UNL     1      39.478 -12.458   6.892  1.00  0.00     0.030 A 
ENDBRANCH   1  25
BRANCH   5  31
HETATM   31  C   UNL     1      43.244 -16.270   4.889  1.00  0.00     0.168 C 
BRANCH  31  32
HETATM   32  C   UNL     1      42.955 -16.971   3.554  1.00  0.00     0.140 C 
HETATM   33  O   UNL     1      43.787 -16.446   2.491  1.00  0.00    -0.384 OA
HETATM   34  C   UNL     1      44.128 -17.536   1.615  1.00  0.00     0.168 C 
HETATM   35  C   UNL     1      43.390 -18.763   2.113  1.00  0.00     0.029 C 
HETATM   36  C   UNL     1      43.227 -18.464   3.583  1.00  0.00     0.036 C 
ENDBRANCH  31  32
ENDBRANCH   5  31
TORSDOF 6
ENDMDL
