MODEL 1
REMARK VINA RESULT:      -8.8      0.000      0.000
REMARK  3 active torsions:
REMARK  status: ('A' for Active; 'I' for Inactive)
REMARK    1  A    between atoms: C_6  and  O_7 
REMARK    2  A    between atoms: O_7  and  C_8 
REMARK       I    between atoms: N_10  and  C_11 
REMARK       I    between atoms: C_11  and  N_12 
REMARK    3  A    between atoms: N_12  and  C_13 
ROOT
HETATM    1  C   UNL     1      42.989 -17.321   4.932  1.00  0.00     0.148 C 
HETATM    2  C   UNL     1      41.716 -17.493   4.089  1.00  0.00     0.160 C 
HETATM    3  N   UNL     1      41.659 -16.293   3.258  1.00  0.00    -0.331 N 
HETATM    4  C   UNL     1      40.908 -16.286   2.097  1.00  0.00     0.323 C 
HETATM    5  N   UNL     1      41.103 -15.172   1.311  1.00  0.00    -0.309 N 
HETATM    6  O   UNL     1      40.162 -17.224   1.829  1.00  0.00    -0.247 OA
HETATM    7  C   UNL     1      42.599 -15.294   3.736  1.00  0.00     0.130 C 
HETATM    8  C   UNL     1      43.044 -15.802   5.101  1.00  0.00     0.054 C 
HETATM    9  H   UNL     1      41.738 -14.483   1.673  1.00  0.00     0.170 HD
ENDROOT
BRANCH   5  10
HETATM   10  C   UNL     1      40.575 -14.900   0.032  1.00  0.00     0.037 A 
HETATM   11  C   UNL     1      39.472 -14.069  -0.196  1.00  0.00     0.043 A 
HETATM   12  C   UNL     1      38.996 -13.880  -1.512  1.00  0.00    -0.006 A 
HETATM   13  C   UNL     1      39.642 -14.527  -2.564  1.00  0.00     0.042 A 
HETATM   14  C   UNL     1      37.927 -13.130  -2.077  1.00  0.00     0.030 A 
HETATM   15  N   UNL     1      38.981 -14.181  -3.721  1.00  0.00    -0.365 N 
HETATM   16  C   UNL     1      40.749 -15.356  -2.369  1.00  0.00     0.033 A 
HETATM   17  H   UNL     1      39.230 -14.509  -4.644  1.00  0.00     0.165 HD
HETATM   18  C   UNL     1      37.941 -13.336  -3.437  1.00  0.00     0.089 A 
HETATM   19  C   UNL     1      41.200 -15.527  -1.054  1.00  0.00     0.032 A 
ENDBRANCH   5  10
BRANCH   1  20
HETATM   20  O   UNL     1      44.092 -17.797   4.150  1.00  0.00    -0.344 OA
BRANCH  20  21
HETATM   21  C   UNL     1      44.268 -19.140   3.986  1.00  0.00     0.070 A 
HETATM   22  C   UNL     1      44.161 -19.848   2.791  1.00  0.00     0.060 A 
HETATM   23  C   UNL     1      44.346 -21.234   2.790  1.00  0.00     0.036 A 
HETATM   24  C   UNL     1      44.643 -21.916   3.968  1.00  0.00     0.024 A 
HETATM   25 CL   UNL     1      44.197 -22.109   1.315  1.00  0.00    -0.084 Cl
HETATM   26  C   UNL     1      44.761 -21.209   5.161  1.00  0.00     0.004 A 
HETATM   27  C   UNL     1      44.574 -19.827   5.166  1.00  0.00     0.037 A 
ENDBRANCH  20  21
ENDBRANCH   1  20
TORSDOF 3
ENDMDL
MODEL 2
REMARK VINA RESULT:      -8.8      1.005      1.583
REMARK  3 active torsions:
REMARK  status: ('A' for Active; 'I' for Inactive)
REMARK    1  A    between atoms: C_6  and  O_7 
REMARK    2  A    between atoms: O_7  and  C_8 
REMARK       I    between atoms: N_10  and  C_11 
REMARK       I    between atoms: C_11  and  N_12 
REMARK    3  A    between atoms: N_12  and  C_13 
ROOT
HETATM    1  C   UNL     1      43.363 -17.920   5.549  1.00  0.00     0.148 C 
HETATM    2  C   UNL     1      42.064 -17.979   4.729  1.00  0.00     0.160 C 
HETATM    3  N   UNL     1      42.029 -16.714   4.001  1.00  0.00    -0.331 N 
HETATM    4  C   UNL     1      41.251 -16.586   2.865  1.00  0.00     0.323 C 
HETATM    5  N   UNL     1      41.466 -15.419   2.167  1.00  0.00    -0.309 N 
HETATM    6  O   UNL     1      40.466 -17.474   2.542  1.00  0.00    -0.247 OA
HETATM    7  C   UNL     1      43.015 -15.790   4.533  1.00  0.00     0.130 C 
HETATM    8  C   UNL     1      43.476 -16.422   5.839  1.00  0.00     0.054 C 
HETATM    9  H   UNL     1      42.134 -14.783   2.567  1.00  0.00     0.170 HD
ENDROOT
BRANCH   5  10
HETATM   10  C   UNL     1      40.916 -15.024   0.929  1.00  0.00     0.037 A 
HETATM   11  C   UNL     1      41.392 -15.464  -0.311  1.00  0.00     0.043 A 
HETATM   12  C   UNL     1      40.796 -14.989  -1.499  1.00  0.00    -0.006 A 
HETATM   13  C   UNL     1      39.736 -14.089  -1.411  1.00  0.00     0.042 A 
HETATM   14  C   UNL     1      41.032 -15.220  -2.883  1.00  0.00     0.030 A 
HETATM   15  N   UNL     1      39.351 -13.786  -2.698  1.00  0.00    -0.365 N 
HETATM   16  C   UNL     1      39.235 -13.637  -0.188  1.00  0.00     0.033 A 
HETATM   17  H   UNL     1      38.603 -13.151  -2.938  1.00  0.00     0.165 HD
HETATM   18  C   UNL     1      40.129 -14.466  -3.596  1.00  0.00     0.089 A 
HETATM   19  C   UNL     1      39.845 -14.123   0.975  1.00  0.00     0.032 A 
ENDBRANCH   5  10
BRANCH   1  20
HETATM   20  O   UNL     1      44.429 -18.367   4.700  1.00  0.00    -0.344 OA
BRANCH  20  21
HETATM   21  C   UNL     1      44.486 -19.678   4.328  1.00  0.00     0.070 A 
HETATM   22  C   UNL     1      44.353 -20.177   3.035  1.00  0.00     0.060 A 
HETATM   23  C   UNL     1      44.410 -21.557   2.817  1.00  0.00     0.036 A 
HETATM   24  C   UNL     1      44.605 -22.440   3.877  1.00  0.00     0.024 A 
HETATM   25 CL   UNL     1      44.229 -22.173   1.220  1.00  0.00    -0.084 Cl
HETATM   26  C   UNL     1      44.748 -21.943   5.169  1.00  0.00     0.004 A 
HETATM   27  C   UNL     1      44.689 -20.567   5.390  1.00  0.00     0.037 A 
ENDBRANCH  20  21
ENDBRANCH   1  20
TORSDOF 3
ENDMDL
MODEL 3
REMARK VINA RESULT:      -7.8      2.807      3.134
REMARK  3 active torsions:
REMARK  status: ('A' for Active; 'I' for Inactive)
REMARK    1  A    between atoms: C_6  and  O_7 
REMARK    2  A    between atoms: O_7  and  C_8 
REMARK       I    between atoms: N_10  and  C_11 
REMARK       I    between atoms: C_11  and  N_12 
REMARK    3  A    between atoms: N_12  and  C_13 
ROOT
HETATM    1  C   UNL     1      41.371 -17.100   2.726  1.00  0.00     0.148 C 
HETATM    2  C   UNL     1      40.970 -16.797   1.274  1.00  0.00     0.160 C 
HETATM    3  N   UNL     1      41.035 -15.342   1.169  1.00  0.00    -0.331 N 
HETATM    4  C   UNL     1      41.153 -14.738  -0.070  1.00  0.00     0.323 C 
HETATM    5  N   UNL     1      41.407 -13.386  -0.011  1.00  0.00    -0.309 N 
HETATM    6  O   UNL     1      41.050 -15.399  -1.100  1.00  0.00    -0.247 OA
HETATM    7  C   UNL     1      41.140 -14.738   2.486  1.00  0.00     0.130 C 
HETATM    8  C   UNL     1      40.833 -15.869   3.457  1.00  0.00     0.054 C 
HETATM    9  H   UNL     1      41.450 -12.985   0.909  1.00  0.00     0.170 HD
ENDROOT
BRANCH   5  10
HETATM   10  C   UNL     1      41.676 -12.499  -1.075  1.00  0.00     0.037 A 
HETATM   11  C   UNL     1      40.905 -12.420  -2.240  1.00  0.00     0.043 A 
HETATM   12  C   UNL     1      41.272 -11.520  -3.264  1.00  0.00    -0.006 A 
HETATM   13  C   UNL     1      42.400 -10.720  -3.090  1.00  0.00     0.042 A 
HETATM   14  C   UNL     1      40.729 -11.202  -4.540  1.00  0.00     0.030 A 
HETATM   15  N   UNL     1      42.534  -9.952  -4.224  1.00  0.00    -0.365 N 
HETATM   16  C   UNL     1      43.185 -10.772  -1.935  1.00  0.00     0.033 A 
HETATM   17  H   UNL     1      43.271  -9.279  -4.377  1.00  0.00     0.165 HD
HETATM   18  C   UNL     1      41.527 -10.236  -5.108  1.00  0.00     0.089 A 
HETATM   19  C   UNL     1      42.800 -11.673  -0.936  1.00  0.00     0.032 A 
ENDBRANCH   5  10
BRANCH   1  20
HETATM   20  O   UNL     1      42.803 -17.150   2.776  1.00  0.00    -0.344 OA
BRANCH  20  21
HETATM   21  C   UNL     1      43.426 -18.342   3.005  1.00  0.00     0.070 A 
HETATM   22  C   UNL     1      43.478 -19.427   2.134  1.00  0.00     0.060 A 
HETATM   23  C   UNL     1      44.138 -20.596   2.527  1.00  0.00     0.036 A 
HETATM   24  C   UNL     1      44.750 -20.687   3.775  1.00  0.00     0.024 A 
HETATM   25 CL   UNL     1      44.188 -21.943   1.455  1.00  0.00    -0.084 Cl
HETATM   26  C   UNL     1      44.707 -19.599   4.643  1.00  0.00     0.004 A 
HETATM   27  C   UNL     1      44.047 -18.433   4.256  1.00  0.00     0.037 A 
ENDBRANCH  20  21
ENDBRANCH   1  20
TORSDOF 3
ENDMDL
MODEL 4
REMARK VINA RESULT:      -7.8      3.697      6.052
REMARK  3 active torsions:
REMARK  status: ('A' for Active; 'I' for Inactive)
REMARK    1  A    between atoms: C_6  and  O_7 
REMARK    2  A    between atoms: O_7  and  C_8 
REMARK       I    between atoms: N_10  and  C_11 
REMARK       I    between atoms: C_11  and  N_12 
REMARK    3  A    between atoms: N_12  and  C_13 
ROOT
HETATM    1  C   UNL     1      43.153 -17.644   1.686  1.00  0.00     0.148 C 
HETATM    2  C   UNL     1      43.380 -16.125   1.735  1.00  0.00     0.160 C 
HETATM    3  N   UNL     1      42.233 -15.603   2.473  1.00  0.00    -0.331 N 
HETATM    4  C   UNL     1      42.300 -14.359   3.073  1.00  0.00     0.323 C 
HETATM    5  N   UNL     1      41.235 -14.078   3.900  1.00  0.00    -0.309 N 
HETATM    6  O   UNL     1      43.255 -13.615   2.865  1.00  0.00    -0.247 OA
HETATM    7  C   UNL     1      41.203 -16.619   2.605  1.00  0.00     0.130 C 
HETATM    8  C   UNL     1      41.625 -17.725   1.647  1.00  0.00     0.054 C 
HETATM    9  H   UNL     1      40.523 -14.785   3.956  1.00  0.00     0.170 HD
ENDROOT
BRANCH   5  10
HETATM   10  C   UNL     1      41.043 -12.953   4.729  1.00  0.00     0.037 A 
HETATM   11  C   UNL     1      41.862 -12.639   5.820  1.00  0.00     0.043 A 
HETATM   12  C   UNL     1      41.571 -11.506   6.611  1.00  0.00    -0.006 A 
HETATM   13  C   UNL     1      40.469 -10.718   6.285  1.00  0.00     0.042 A 
HETATM   14  C   UNL     1      42.176 -10.923   7.759  1.00  0.00     0.030 A 
HETATM   15  N   UNL     1      40.411  -9.699   7.208  1.00  0.00    -0.365 N 
HETATM   16  C   UNL     1      39.638 -11.003   5.199  1.00  0.00     0.033 A 
HETATM   17  H   UNL     1      39.707  -8.974   7.219  1.00  0.00     0.165 HD
HETATM   18  C   UNL     1      41.439  -9.814   8.105  1.00  0.00     0.089 A 
HETATM   19  C   UNL     1      39.948 -12.132   4.431  1.00  0.00     0.032 A 
ENDBRANCH   5  10
BRANCH   1  20
HETATM   20  O   UNL     1      43.671 -18.196   2.903  1.00  0.00    -0.344 OA
BRANCH  20  21
HETATM   21  C   UNL     1      43.942 -19.532   2.972  1.00  0.00     0.070 A 
HETATM   22  C   UNL     1      44.440 -20.218   4.077  1.00  0.00     0.060 A 
HETATM   23  C   UNL     1      44.690 -21.590   3.982  1.00  0.00     0.036 A 
HETATM   24  C   UNL     1      44.441 -22.283   2.799  1.00  0.00     0.024 A 
HETATM   25 CL   UNL     1      45.322 -22.435   5.344  1.00  0.00    -0.084 Cl
HETATM   26  C   UNL     1      43.933 -21.600   1.697  1.00  0.00     0.004 A 
HETATM   27  C   UNL     1      43.685 -20.230   1.788  1.00  0.00     0.037 A 
ENDBRANCH  20  21
ENDBRANCH   1  20
TORSDOF 3
ENDMDL
MODEL 5
REMARK VINA RESULT:      -7.7      1.559      2.300
REMARK  3 active torsions:
REMARK  status: ('A' for Active; 'I' for Inactive)
REMARK    1  A    between atoms: C_6  and  O_7 
REMARK    2  A    between atoms: O_7  and  C_8 
REMARK       I    between atoms: N_10  and  C_11 
REMARK       I    between atoms: C_11  and  N_12 
REMARK    3  A    between atoms: N_12  and  C_13 
ROOT
HETATM    1  C   UNL     1      42.525 -16.068   3.487  1.00  0.00     0.148 C 
HETATM    2  C   UNL     1      41.035 -15.774   3.253  1.00  0.00     0.160 C 
HETATM    3  N   UNL     1      41.015 -14.795   2.171  1.00  0.00    -0.331 N 
HETATM    4  C   UNL     1      39.871 -14.615   1.415  1.00  0.00     0.323 C 
HETATM    5  N   UNL     1      40.051 -13.816   0.309  1.00  0.00    -0.309 N 
HETATM    6  O   UNL     1      38.817 -15.157   1.738  1.00  0.00    -0.247 OA
HETATM    7  C   UNL     1      42.345 -14.255   1.945  1.00  0.00     0.130 C 
HETATM    8  C   UNL     1      43.161 -14.718   3.145  1.00  0.00     0.054 C 
HETATM    9  H   UNL     1      40.973 -13.434   0.186  1.00  0.00     0.170 HD
ENDROOT
BRANCH   5  10
HETATM   10  C   UNL     1      39.127 -13.513  -0.713  1.00  0.00     0.037 A 
HETATM   11  C   UNL     1      38.778 -14.401  -1.738  1.00  0.00     0.043 A 
HETATM   12  C   UNL     1      37.864 -13.996  -2.735  1.00  0.00    -0.006 A 
HETATM   13  C   UNL     1      37.322 -12.713  -2.676  1.00  0.00     0.042 A 
HETATM   14  C   UNL     1      37.315 -14.627  -3.886  1.00  0.00     0.030 A 
HETATM   15  N   UNL     1      36.480 -12.577  -3.756  1.00  0.00    -0.365 N 
HETATM   16  C   UNL     1      37.646 -11.808  -1.662  1.00  0.00     0.033 A 
HETATM   17  H   UNL     1      35.952 -11.743  -3.969  1.00  0.00     0.165 HD
HETATM   18  C   UNL     1      36.469 -13.730  -4.495  1.00  0.00     0.089 A 
HETATM   19  C   UNL     1      38.556 -12.234  -0.686  1.00  0.00     0.032 A 
ENDBRANCH   5  10
BRANCH   1  20
HETATM   20  O   UNL     1      42.917 -17.079   2.550  1.00  0.00    -0.344 OA
BRANCH  20  21
HETATM   21  C   UNL     1      43.513 -18.219   3.004  1.00  0.00     0.070 A 
HETATM   22  C   UNL     1      43.743 -19.380   2.270  1.00  0.00     0.060 A 
HETATM   23  C   UNL     1      44.346 -20.480   2.888  1.00  0.00     0.036 A 
HETATM   24  C   UNL     1      44.727 -20.427   4.228  1.00  0.00     0.024 A 
HETATM   25 CL   UNL     1      44.615 -21.921   1.984  1.00  0.00    -0.084 Cl
HETATM   26  C   UNL     1      44.508 -19.264   4.960  1.00  0.00     0.004 A 
HETATM   27  C   UNL     1      43.903 -18.166   4.347  1.00  0.00     0.037 A 
ENDBRANCH  20  21
ENDBRANCH   1  20
TORSDOF 3
ENDMDL
MODEL 6
REMARK VINA RESULT:      -7.7      3.952      8.869
REMARK  3 active torsions:
REMARK  status: ('A' for Active; 'I' for Inactive)
REMARK    1  A    between atoms: C_6  and  O_7 
REMARK    2  A    between atoms: O_7  and  C_8 
REMARK       I    between atoms: N_10  and  C_11 
REMARK       I    between atoms: C_11  and  N_12 
REMARK    3  A    between atoms: N_12  and  C_13 
ROOT
HETATM    1  C   UNL     1      40.869 -12.812   0.692  1.00  0.00     0.148 C 
HETATM    2  C   UNL     1      41.977 -13.331   1.622  1.00  0.00     0.160 C 
HETATM    3  N   UNL     1      41.578 -14.698   1.947  1.00  0.00    -0.331 N 
HETATM    4  C   UNL     1      42.515 -15.606   2.403  1.00  0.00     0.323 C 
HETATM    5  N   UNL     1      42.051 -16.900   2.476  1.00  0.00    -0.309 N 
HETATM    6  O   UNL     1      43.652 -15.241   2.689  1.00  0.00    -0.247 OA
HETATM    7  C   UNL     1      40.201 -14.937   1.549  1.00  0.00     0.130 C 
HETATM    8  C   UNL     1      39.644 -13.557   1.229  1.00  0.00     0.054 C 
HETATM    9  H   UNL     1      41.089 -17.039   2.220  1.00  0.00     0.170 HD
ENDROOT
BRANCH   5  10
HETATM   10  C   UNL     1      42.767 -18.071   2.803  1.00  0.00     0.037 A 
HETATM   11  C   UNL     1      42.911 -19.164   1.941  1.00  0.00     0.043 A 
HETATM   12  C   UNL     1      43.622 -20.306   2.370  1.00  0.00    -0.006 A 
HETATM   13  C   UNL     1      44.172 -20.319   3.651  1.00  0.00     0.042 A 
HETATM   14  C   UNL     1      43.940 -21.555   1.767  1.00  0.00     0.030 A 
HETATM   15  N   UNL     1      44.795 -21.536   3.813  1.00  0.00    -0.365 N 
HETATM   16  C   UNL     1      44.050 -19.241   4.531  1.00  0.00     0.033 A 
HETATM   17  H   UNL     1      45.278 -21.825   4.652  1.00  0.00     0.165 HD
HETATM   18  C   UNL     1      44.660 -22.291   2.679  1.00  0.00     0.089 A 
HETATM   19  C   UNL     1      43.339 -18.121   4.081  1.00  0.00     0.032 A 
ENDBRANCH   5  10
BRANCH   1  20
HETATM   20  O   UNL     1      41.191 -13.234  -0.639  1.00  0.00    -0.344 OA
BRANCH  20  21
HETATM   21  C   UNL     1      41.717 -12.333  -1.519  1.00  0.00     0.070 A 
HETATM   22  C   UNL     1      42.358 -11.140  -1.196  1.00  0.00     0.060 A 
HETATM   23  C   UNL     1      42.822 -10.307  -2.219  1.00  0.00     0.036 A 
HETATM   24  C   UNL     1      42.658 -10.659  -3.558  1.00  0.00     0.024 A 
HETATM   25 CL   UNL     1      43.599  -8.824  -1.819  1.00  0.00    -0.084 Cl
HETATM   26  C   UNL     1      42.027 -11.856  -3.882  1.00  0.00     0.004 A 
HETATM   27  C   UNL     1      41.560 -12.688  -2.864  1.00  0.00     0.037 A 
ENDBRANCH  20  21
ENDBRANCH   1  20
TORSDOF 3
ENDMDL
MODEL 7
REMARK VINA RESULT:      -7.7      4.239      6.319
REMARK  3 active torsions:
REMARK  status: ('A' for Active; 'I' for Inactive)
REMARK    1  A    between atoms: C_6  and  O_7 
REMARK    2  A    between atoms: O_7  and  C_8 
REMARK       I    between atoms: N_10  and  C_11 
REMARK       I    between atoms: C_11  and  N_12 
REMARK    3  A    between atoms: N_12  and  C_13 
ROOT
HETATM    1  C   UNL     1      42.138 -16.780   1.988  1.00  0.00     0.148 C 
HETATM    2  C   UNL     1      42.582 -15.367   2.397  1.00  0.00     0.160 C 
HETATM    3  N   UNL     1      41.364 -14.722   2.882  1.00  0.00    -0.331 N 
HETATM    4  C   UNL     1      41.444 -13.618   3.711  1.00  0.00     0.323 C 
HETATM    5  N   UNL     1      40.237 -13.238   4.253  1.00  0.00    -0.309 N 
HETATM    6  O   UNL     1      42.524 -13.074   3.924  1.00  0.00    -0.247 OA
HETATM    7  C   UNL     1      40.194 -15.504   2.522  1.00  0.00     0.130 C 
HETATM    8  C   UNL     1      40.704 -16.528   1.518  1.00  0.00     0.054 C 
HETATM    9  H   UNL     1      39.437 -13.777   3.971  1.00  0.00     0.170 HD
ENDROOT
BRANCH   5  10
HETATM   10  C   UNL     1      39.984 -12.226   5.204  1.00  0.00     0.037 A 
HETATM   11  C   UNL     1      39.795 -12.469   6.569  1.00  0.00     0.043 A 
HETATM   12  C   UNL     1      39.516 -11.393   7.440  1.00  0.00    -0.006 A 
HETATM   13  C   UNL     1      39.439 -10.103   6.919  1.00  0.00     0.042 A 
HETATM   14  C   UNL     1      39.272 -11.293   8.839  1.00  0.00     0.030 A 
HETATM   15  N   UNL     1      39.152  -9.258   7.967  1.00  0.00    -0.365 N 
HETATM   16  C   UNL     1      39.629  -9.829   5.563  1.00  0.00     0.033 A 
HETATM   17  H   UNL     1      39.034  -8.258   7.881  1.00  0.00     0.165 HD
HETATM   18  C   UNL     1      39.050  -9.968   9.133  1.00  0.00     0.089 A 
HETATM   19  C   UNL     1      39.903 -10.914   4.720  1.00  0.00     0.032 A 
ENDBRANCH   5  10
BRANCH   1  20
HETATM   20  O   UNL     1      42.162 -17.597   3.166  1.00  0.00    -0.344 OA
BRANCH  20  21
HETATM   21  C   UNL     1      43.019 -18.656   3.231  1.00  0.00     0.070 A 
HETATM   22  C   UNL     1      43.151 -19.671   2.287  1.00  0.00     0.060 A 
HETATM   23  C   UNL     1      44.063 -20.707   2.511  1.00  0.00     0.036 A 
HETATM   24  C   UNL     1      44.847 -20.734   3.663  1.00  0.00     0.024 A 
HETATM   25 CL   UNL     1      44.213 -21.971   1.351  1.00  0.00    -0.084 Cl
HETATM   26  C   UNL     1      44.724 -19.714   4.602  1.00  0.00     0.004 A 
HETATM   27  C   UNL     1      43.813 -18.680   4.383  1.00  0.00     0.037 A 
ENDBRANCH  20  21
ENDBRANCH   1  20
TORSDOF 3
ENDMDL
MODEL 8
REMARK VINA RESULT:      -7.7      1.809      2.175
REMARK  3 active torsions:
REMARK  status: ('A' for Active; 'I' for Inactive)
REMARK    1  A    between atoms: C_6  and  O_7 
REMARK    2  A    between atoms: O_7  and  C_8 
REMARK       I    between atoms: N_10  and  C_11 
REMARK       I    between atoms: C_11  and  N_12 
REMARK    3  A    between atoms: N_12  and  C_13 
ROOT
HETATM    1  C   UNL     1      42.291 -16.382   4.174  1.00  0.00     0.148 C 
HETATM    2  C   UNL     1      40.914 -15.909   3.681  1.00  0.00     0.160 C 
HETATM    3  N   UNL     1      41.197 -15.142   2.472  1.00  0.00    -0.331 N 
HETATM    4  C   UNL     1      40.202 -14.924   1.537  1.00  0.00     0.323 C 
HETATM    5  N   UNL     1      40.651 -14.367   0.361  1.00  0.00    -0.309 N 
HETATM    6  O   UNL     1      39.039 -15.234   1.779  1.00  0.00    -0.247 OA
HETATM    7  C   UNL     1      42.619 -14.860   2.366  1.00  0.00     0.130 C 
HETATM    8  C   UNL     1      43.190 -15.226   3.729  1.00  0.00     0.054 C 
HETATM    9  H   UNL     1      41.633 -14.158   0.319  1.00  0.00     0.170 HD
ENDROOT
BRANCH   5  10
HETATM   10  C   UNL     1      39.924 -14.110  -0.821  1.00  0.00     0.037 A 
HETATM   11  C   UNL     1      38.900 -13.160  -0.915  1.00  0.00     0.043 A 
HETATM   12  C   UNL     1      38.208 -12.995  -2.134  1.00  0.00    -0.006 A 
HETATM   13  C   UNL     1      38.564 -13.784  -3.227  1.00  0.00     0.042 A 
HETATM   14  C   UNL     1      37.143 -12.152  -2.558  1.00  0.00     0.030 A 
HETATM   15  N   UNL     1      37.738 -13.430  -4.270  1.00  0.00    -0.365 N 
HETATM   16  C   UNL     1      39.585 -14.735  -3.165  1.00  0.00     0.033 A 
HETATM   17  H   UNL     1      37.769 -13.844  -5.191  1.00  0.00     0.165 HD
HETATM   18  C   UNL     1      36.875 -12.443  -3.876  1.00  0.00     0.089 A 
HETATM   19  C   UNL     1      40.255 -14.879  -1.944  1.00  0.00     0.032 A 
ENDBRANCH   5  10
BRANCH   1  20
HETATM   20  O   UNL     1      42.610 -17.589   3.470  1.00  0.00    -0.344 OA
BRANCH  20  21
HETATM   21  C   UNL     1      43.240 -18.603   4.130  1.00  0.00     0.070 A 
HETATM   22  C   UNL     1      43.123 -18.907   5.484  1.00  0.00     0.060 A 
HETATM   23  C   UNL     1      43.857 -19.970   6.019  1.00  0.00     0.036 A 
HETATM   24  C   UNL     1      44.701 -20.734   5.214  1.00  0.00     0.024 A 
HETATM   25 CL   UNL     1      43.724 -20.334   7.697  1.00  0.00    -0.084 Cl
HETATM   26  C   UNL     1      44.811 -20.438   3.859  1.00  0.00     0.004 A 
HETATM   27  C   UNL     1      44.082 -19.376   3.322  1.00  0.00     0.037 A 
ENDBRANCH  20  21
ENDBRANCH   1  20
TORSDOF 3
ENDMDL
MODEL 9
REMARK VINA RESULT:      -7.6      4.109      6.083
REMARK  3 active torsions:
REMARK  status: ('A' for Active; 'I' for Inactive)
REMARK    1  A    between atoms: C_6  and  O_7 
REMARK    2  A    between atoms: O_7  and  C_8 
REMARK       I    between atoms: N_10  and  C_11 
REMARK       I    between atoms: C_11  and  N_12 
REMARK    3  A    between atoms: N_12  and  C_13 
ROOT
HETATM    1  C   UNL     1      42.197 -17.046   2.040  1.00  0.00     0.148 C 
HETATM    2  C   UNL     1      42.905 -15.688   2.170  1.00  0.00     0.160 C 
HETATM    3  N   UNL     1      41.894 -14.796   2.731  1.00  0.00    -0.331 N 
HETATM    4  C   UNL     1      42.273 -13.630   3.371  1.00  0.00     0.323 C 
HETATM    5  N   UNL     1      41.244 -12.991   4.024  1.00  0.00    -0.309 N 
HETATM    6  O   UNL     1      43.442 -13.253   3.341  1.00  0.00    -0.247 OA
HETATM    7  C   UNL     1      40.578 -15.408   2.665  1.00  0.00     0.130 C 
HETATM    8  C   UNL     1      40.756 -16.615   1.755  1.00  0.00     0.054 C 
HETATM    9  H   UNL     1      40.338 -13.418   3.945  1.00  0.00     0.170 HD
ENDROOT
BRANCH   5  10
HETATM   10  C   UNL     1      41.306 -11.845   4.846  1.00  0.00     0.037 A 
HETATM   11  C   UNL     1      41.282 -10.534   4.359  1.00  0.00     0.043 A 
HETATM   12  C   UNL     1      41.380  -9.450   5.259  1.00  0.00    -0.006 A 
HETATM   13  C   UNL     1      41.495  -9.711   6.623  1.00  0.00     0.042 A 
HETATM   14  C   UNL     1      41.393  -8.036   5.103  1.00  0.00     0.030 A 
HETATM   15  N   UNL     1      41.579  -8.496   7.264  1.00  0.00    -0.365 N 
HETATM   16  C   UNL     1      41.515 -11.009   7.139  1.00  0.00     0.033 A 
HETATM   17  H   UNL     1      41.675  -8.381   8.263  1.00  0.00     0.165 HD
HETATM   18  C   UNL     1      41.519  -7.475   6.353  1.00  0.00     0.089 A 
HETATM   19  C   UNL     1      41.418 -12.066   6.225  1.00  0.00     0.032 A 
ENDBRANCH   5  10
BRANCH   1  20
HETATM   20  O   UNL     1      42.299 -17.709   3.307  1.00  0.00    -0.344 OA
BRANCH  20  21
HETATM   21  C   UNL     1      43.183 -18.737   3.457  1.00  0.00     0.070 A 
HETATM   22  C   UNL     1      43.439 -19.747   2.532  1.00  0.00     0.060 A 
HETATM   23  C   UNL     1      44.361 -20.751   2.845  1.00  0.00     0.036 A 
HETATM   24  C   UNL     1      45.032 -20.751   4.066  1.00  0.00     0.024 A 
HETATM   25 CL   UNL     1      44.665 -22.008   1.709  1.00  0.00    -0.084 Cl
HETATM   26  C   UNL     1      44.785 -19.736   4.987  1.00  0.00     0.004 A 
HETATM   27  C   UNL     1      43.864 -18.735   4.679  1.00  0.00     0.037 A 
ENDBRANCH  20  21
ENDBRANCH   1  20
TORSDOF 3
ENDMDL
MODEL 10
REMARK VINA RESULT:      -7.6      2.645      3.577
REMARK  3 active torsions:
REMARK  status: ('A' for Active; 'I' for Inactive)
REMARK    1  A    between atoms: C_6  and  O_7 
REMARK    2  A    between atoms: O_7  and  C_8 
REMARK       I    between atoms: N_10  and  C_11 
REMARK       I    between atoms: C_11  and  N_12 
REMARK    3  A    between atoms: N_12  and  C_13 
ROOT
HETATM    1  C   UNL     1      43.792 -18.288   1.813  1.00  0.00     0.148 C 
HETATM    2  C   UNL     1      43.417 -17.018   1.033  1.00  0.00     0.160 C 
HETATM    3  N   UNL     1      42.018 -16.775   1.374  1.00  0.00    -0.331 N 
HETATM    4  C   UNL     1      41.469 -15.517   1.207  1.00  0.00     0.323 C 
HETATM    5  N   UNL     1      40.213 -15.378   1.752  1.00  0.00    -0.309 N 
HETATM    6  O   UNL     1      42.097 -14.633   0.630  1.00  0.00    -0.247 OA
HETATM    7  C   UNL     1      41.443 -17.935   2.034  1.00  0.00     0.130 C 
HETATM    8  C   UNL     1      42.463 -19.046   1.825  1.00  0.00     0.054 C 
HETATM    9  H   UNL     1      39.824 -16.199   2.181  1.00  0.00     0.170 HD
ENDROOT
BRANCH   5  10
HETATM   10  C   UNL     1      39.421 -14.213   1.843  1.00  0.00     0.037 A 
HETATM   11  C   UNL     1      38.384 -13.903   0.956  1.00  0.00     0.043 A 
HETATM   12  C   UNL     1      37.667 -12.697   1.110  1.00  0.00    -0.006 A 
HETATM   13  C   UNL     1      38.007 -11.836   2.152  1.00  0.00     0.042 A 
HETATM   14  C   UNL     1      36.592 -12.090   0.402  1.00  0.00     0.030 A 
HETATM   15  N   UNL     1      37.169 -10.747   2.070  1.00  0.00    -0.365 N 
HETATM   16  C   UNL     1      39.032 -12.121   3.056  1.00  0.00     0.033 A 
HETATM   17  H   UNL     1      37.191  -9.957   2.699  1.00  0.00     0.165 HD
HETATM   18  C   UNL     1      36.308 -10.891   1.014  1.00  0.00     0.089 A 
HETATM   19  C   UNL     1      39.729 -13.323   2.881  1.00  0.00     0.032 A 
ENDBRANCH   5  10
BRANCH   1  20
HETATM   20  O   UNL     1      44.173 -17.885   3.135  1.00  0.00    -0.344 OA
BRANCH  20  21
HETATM   21  C   UNL     1      44.180 -18.806   4.141  1.00  0.00     0.070 A 
HETATM   22  C   UNL     1      44.720 -20.089   4.084  1.00  0.00     0.060 A 
HETATM   23  C   UNL     1      44.625 -20.928   5.198  1.00  0.00     0.036 A 
HETATM   24  C   UNL     1      44.003 -20.497   6.368  1.00  0.00     0.024 A 
HETATM   25 CL   UNL     1      45.279 -22.520   5.120  1.00  0.00    -0.084 Cl
HETATM   26  C   UNL     1      43.472 -19.212   6.430  1.00  0.00     0.004 A 
HETATM   27  C   UNL     1      43.562 -18.373   5.319  1.00  0.00     0.037 A 
ENDBRANCH  20  21
ENDBRANCH   1  20
TORSDOF 3
ENDMDL
