MODEL 1
REMARK VINA RESULT:      -8.1      0.000      0.000
REMARK  9 active torsions:
REMARK  status: ('A' for Active; 'I' for Inactive)
REMARK    1  A    between atoms: C_2  and  C_3 
REMARK    2  A    between atoms: C_7  and  C_8 
REMARK    3  A    between atoms: C_8  and  C_9 
REMARK       I    between atoms: C_9  and  N_10 
REMARK    4  A    between atoms: N_10  and  C_11 
REMARK    5  A    between atoms: C_11  and  C_12 
REMARK    6  A    between atoms: C_12  and  N_13 
REMARK    7  A    between atoms: C_21  and  C_22 
REMARK    8  A    between atoms: C_32  and  C_33 
REMARK    9  A    between atoms: C_33  and  O_34 
ROOT
HETATM    1  C   UNL     1      41.693 -12.852   3.875  1.00  0.00     0.037 C 
HETATM    2  N   UNL     1      41.467 -12.096   2.743  1.00  0.00    -0.232 NA
HETATM    3  C   UNL     1      41.693 -12.641   1.599  1.00  0.00     0.169 C 
HETATM    4  N   UNL     1      41.857 -14.184   1.353  1.00  0.00    -0.321 N 
HETATM    5  C   UNL     1      41.680 -14.410   0.091  1.00  0.00     0.011 C 
HETATM    6  C   UNL     1      41.758 -14.979   2.593  1.00  0.00     0.151 C 
HETATM    7  S   UNL     1      41.646 -11.740   0.111  1.00  0.00    -0.086 SA
HETATM    8  C   UNL     1      42.036 -13.250  -0.815  1.00  0.00     0.135 C 
HETATM    9  C   UNL     1      42.102 -14.139   3.798  1.00  0.00     0.138 C 
ENDROOT
BRANCH   5  10
HETATM   10  C   UNL     1      40.897 -15.595  -0.414  1.00  0.00     0.156 C 
BRANCH  10  11
HETATM   11  C   UNL     1      40.636 -15.396  -1.906  1.00  0.00     0.223 C 
HETATM   12  N   UNL     1      39.411 -14.915  -2.265  1.00  0.00    -0.359 N 
HETATM   13  H   UNL     1      38.737 -14.733  -1.522  1.00  0.00     0.162 HD
HETATM   14  O   UNL     1      41.497 -15.691  -2.736  1.00  0.00    -0.273 OA
BRANCH  12  15
HETATM   15  C   UNL     1      38.833 -14.975  -3.618  1.00  0.00     0.150 C 
BRANCH  15  16
HETATM   16  C   UNL     1      37.290 -15.025  -3.779  1.00  0.00     0.254 C 
BRANCH  16  17
HETATM   17  N   UNL     1      36.721 -13.896  -4.624  1.00  0.00    -0.070 N 
HETATM   18  H   UNL     1      37.300 -13.887  -5.486  1.00  0.00     0.279 HD
HETATM   19  C   UNL     1      35.279 -14.082  -5.037  1.00  0.00     0.235 C 
HETATM   20  C   UNL     1      34.889 -12.989  -6.024  1.00  0.00     0.028 C 
HETATM   21  C   UNL     1      35.119 -11.598  -5.449  1.00  0.00     0.003 C 
HETATM   22  C   UNL     1      36.548 -11.441  -4.944  1.00  0.00     0.028 C 
HETATM   23  C   UNL     1      36.929 -12.546  -3.967  1.00  0.00     0.235 C 
ENDBRANCH  16  17
ENDBRANCH  15  16
ENDBRANCH  12  15
ENDBRANCH  10  11
ENDBRANCH   5  10
BRANCH   6  24
HETATM   24  C   UNL     1      42.452 -16.344   2.550  1.00  0.00    -0.027 A 
HETATM   25  C   UNL     1      42.094 -17.369   3.462  1.00  0.00    -0.053 A 
HETATM   26  C   UNL     1      40.988 -17.226   4.478  1.00  0.00     0.049 C 
HETATM   27  C   UNL     1      42.784 -18.597   3.435  1.00  0.00     0.014 A 
HETATM   28  C   UNL     1      43.836 -18.825   2.546  1.00  0.00    -0.061 A 
HETATM   29  C   UNL     1      44.620 -20.106   2.601  1.00  0.00     0.048 C 
HETATM   30  C   UNL     1      44.210 -17.808   1.672  1.00  0.00     0.007 A 
HETATM   31  C   UNL     1      43.531 -16.587   1.673  1.00  0.00     0.010 A 
ENDBRANCH   6  24
BRANCH   9  32
HETATM   32  C   UNL     1      43.516 -14.205   4.237  1.00  0.00     0.277 C 
HETATM   33  O   UNL     1      44.378 -13.612   3.595  1.00  0.00    -0.264 OA
BRANCH  32  34
HETATM   34  O   UNL     1      43.665 -14.872   5.392  1.00  0.00    -0.325 OA
HETATM   35  C   UNL     1      44.399 -14.142   6.384  1.00  0.00     0.213 C 
ENDBRANCH  32  34
ENDBRANCH   9  32
BRANCH   1  36
HETATM   36  C   UNL     1      41.628 -12.069   5.178  1.00  0.00     0.052 C 
HETATM   37  C   UNL     1      40.323 -12.298   5.941  1.00  0.00     0.011 C 
ENDBRANCH   1  36
TORSDOF 9
ENDMDL
MODEL 2
REMARK VINA RESULT:      -8.1      1.964      2.812
REMARK  9 active torsions:
REMARK  status: ('A' for Active; 'I' for Inactive)
REMARK    1  A    between atoms: C_2  and  C_3 
REMARK    2  A    between atoms: C_7  and  C_8 
REMARK    3  A    between atoms: C_8  and  C_9 
REMARK       I    between atoms: C_9  and  N_10 
REMARK    4  A    between atoms: N_10  and  C_11 
REMARK    5  A    between atoms: C_11  and  C_12 
REMARK    6  A    between atoms: C_12  and  N_13 
REMARK    7  A    between atoms: C_21  and  C_22 
REMARK    8  A    between atoms: C_32  and  C_33 
REMARK    9  A    between atoms: C_33  and  O_34 
ROOT
HETATM    1  C   UNL     1      41.738 -12.855   4.832  1.00  0.00     0.037 C 
HETATM    2  N   UNL     1      41.470 -11.980   3.799  1.00  0.00    -0.232 NA
HETATM    3  C   UNL     1      41.636 -12.401   2.594  1.00  0.00     0.169 C 
HETATM    4  N   UNL     1      41.770 -13.910   2.177  1.00  0.00    -0.321 N 
HETATM    5  C   UNL     1      41.532 -13.999   0.908  1.00  0.00     0.011 C 
HETATM    6  C   UNL     1      41.719 -14.832   3.329  1.00  0.00     0.151 C 
HETATM    7  S   UNL     1      41.531 -11.346   1.214  1.00  0.00    -0.086 SA
HETATM    8  C   UNL     1      41.860 -12.751   0.115  1.00  0.00     0.135 C 
HETATM    9  C   UNL     1      42.128 -14.128   4.599  1.00  0.00     0.138 C 
ENDROOT
BRANCH   5  10
HETATM   10  C   UNL     1      40.713 -15.117   0.317  1.00  0.00     0.156 C 
BRANCH  10  11
HETATM   11  C   UNL     1      39.395 -14.531  -0.185  1.00  0.00     0.223 C 
HETATM   12  N   UNL     1      39.176 -14.556  -1.532  1.00  0.00    -0.359 N 
HETATM   13  H   UNL     1      39.908 -14.945  -2.125  1.00  0.00     0.162 HD
HETATM   14  O   UNL     1      38.589 -14.036   0.604  1.00  0.00    -0.273 OA
BRANCH  12  15
HETATM   15  C   UNL     1      38.167 -13.756  -2.247  1.00  0.00     0.150 C 
BRANCH  15  16
HETATM   16  C   UNL     1      38.635 -12.716  -3.300  1.00  0.00     0.254 C 
BRANCH  16  17
HETATM   17  N   UNL     1      39.995 -12.106  -3.002  1.00  0.00    -0.070 N 
HETATM   18  H   UNL     1      40.224 -12.415  -2.037  1.00  0.00     0.279 HD
HETATM   19  C   UNL     1      41.109 -12.570  -3.912  1.00  0.00     0.235 C 
HETATM   20  C   UNL     1      42.441 -12.038  -3.398  1.00  0.00     0.028 C 
HETATM   21  C   UNL     1      42.433 -10.521  -3.272  1.00  0.00     0.003 C 
HETATM   22  C   UNL     1      41.254 -10.044  -2.432  1.00  0.00     0.028 C 
HETATM   23  C   UNL     1      39.930 -10.592  -2.951  1.00  0.00     0.235 C 
ENDBRANCH  16  17
ENDBRANCH  15  16
ENDBRANCH  12  15
ENDBRANCH  10  11
ENDBRANCH   5  10
BRANCH   6  24
HETATM   24  C   UNL     1      42.394 -16.189   3.108  1.00  0.00    -0.027 A 
HETATM   25  C   UNL     1      42.044 -17.312   3.901  1.00  0.00    -0.053 A 
HETATM   26  C   UNL     1      40.963 -17.279   4.953  1.00  0.00     0.049 C 
HETATM   27  C   UNL     1      42.717 -18.535   3.712  1.00  0.00     0.014 A 
HETATM   28  C   UNL     1      43.745 -18.667   2.777  1.00  0.00    -0.061 A 
HETATM   29  C   UNL     1      44.513 -19.953   2.662  1.00  0.00     0.048 C 
HETATM   30  C   UNL     1      44.112 -17.557   2.021  1.00  0.00     0.007 A 
HETATM   31  C   UNL     1      43.449 -16.338   2.182  1.00  0.00     0.010 A 
ENDBRANCH   6  24
BRANCH   9  32
HETATM   32  C   UNL     1      43.560 -14.251   4.961  1.00  0.00     0.277 C 
HETATM   33  O   UNL     1      44.401 -13.626   4.324  1.00  0.00    -0.264 OA
BRANCH  32  34
HETATM   34  O   UNL     1      43.750 -15.006   6.055  1.00  0.00    -0.325 OA
HETATM   35  C   UNL     1      44.660 -14.425   6.999  1.00  0.00     0.213 C 
ENDBRANCH  32  34
ENDBRANCH   9  32
BRANCH   1  36
HETATM   36  C   UNL     1      41.742 -12.215   6.212  1.00  0.00     0.052 C 
HETATM   37  C   UNL     1      40.347 -11.794   6.673  1.00  0.00     0.011 C 
ENDBRANCH   1  36
TORSDOF 9
ENDMDL
MODEL 3
REMARK VINA RESULT:      -8.0      2.787      8.417
REMARK  9 active torsions:
REMARK  status: ('A' for Active; 'I' for Inactive)
REMARK    1  A    between atoms: C_2  and  C_3 
REMARK    2  A    between atoms: C_7  and  C_8 
REMARK    3  A    between atoms: C_8  and  C_9 
REMARK       I    between atoms: C_9  and  N_10 
REMARK    4  A    between atoms: N_10  and  C_11 
REMARK    5  A    between atoms: C_11  and  C_12 
REMARK    6  A    between atoms: C_12  and  N_13 
REMARK    7  A    between atoms: C_21  and  C_22 
REMARK    8  A    between atoms: C_32  and  C_33 
REMARK    9  A    between atoms: C_33  and  O_34 
ROOT
HETATM    1  C   UNL     1      42.361 -11.567  -0.745  1.00  0.00     0.037 C 
HETATM    2  N   UNL     1      42.156 -11.370   0.605  1.00  0.00    -0.232 NA
HETATM    3  C   UNL     1      41.012 -11.699   1.096  1.00  0.00     0.169 C 
HETATM    4  N   UNL     1      39.960 -12.626   0.387  1.00  0.00    -0.321 N 
HETATM    5  C   UNL     1      39.135 -13.057   1.285  1.00  0.00     0.011 C 
HETATM    6  C   UNL     1      40.399 -13.076  -0.950  1.00  0.00     0.151 C 
HETATM    7  S   UNL     1      40.553 -11.315   2.730  1.00  0.00    -0.086 SA
HETATM    8  C   UNL     1      38.955 -12.135   2.473  1.00  0.00     0.135 C 
HETATM    9  C   UNL     1      41.412 -12.123  -1.533  1.00  0.00     0.138 C 
ENDROOT
BRANCH   5  10
HETATM   10  C   UNL     1      38.639 -14.479   1.309  1.00  0.00     0.156 C 
BRANCH  10  11
HETATM   11  C   UNL     1      39.775 -15.375   1.802  1.00  0.00     0.223 C 
HETATM   12  N   UNL     1      40.299 -16.263   0.910  1.00  0.00    -0.359 N 
HETATM   13  H   UNL     1      39.894 -16.292  -0.025  1.00  0.00     0.162 HD
HETATM   14  O   UNL     1      40.166 -15.303   2.968  1.00  0.00    -0.273 OA
BRANCH  12  15
HETATM   15  C   UNL     1      41.132 -17.428   1.254  1.00  0.00     0.150 C 
BRANCH  15  16
HETATM   16  C   UNL     1      42.665 -17.358   1.016  1.00  0.00     0.254 C 
BRANCH  16  17
HETATM   17  N   UNL     1      43.490 -18.001   2.119  1.00  0.00    -0.070 N 
HETATM   18  H   UNL     1      44.456 -17.650   1.973  1.00  0.00     0.279 HD
HETATM   19  C   UNL     1      43.069 -17.629   3.522  1.00  0.00     0.235 C 
HETATM   20  C   UNL     1      44.080 -18.182   4.519  1.00  0.00     0.028 C 
HETATM   21  C   UNL     1      44.245 -19.689   4.380  1.00  0.00     0.003 C 
HETATM   22  C   UNL     1      44.576 -20.075   2.943  1.00  0.00     0.028 C 
HETATM   23  C   UNL     1      43.564 -19.507   1.956  1.00  0.00     0.235 C 
ENDBRANCH  16  17
ENDBRANCH  15  16
ENDBRANCH  12  15
ENDBRANCH  10  11
ENDBRANCH   5  10
BRANCH   6  24
HETATM   24  C   UNL     1      39.270 -13.469  -1.908  1.00  0.00    -0.027 A 
HETATM   25  C   UNL     1      39.412 -14.577  -2.782  1.00  0.00    -0.053 A 
HETATM   26  C   UNL     1      40.626 -15.473  -2.794  1.00  0.00     0.049 C 
HETATM   27  C   UNL     1      38.380 -14.885  -3.690  1.00  0.00     0.014 A 
HETATM   28  C   UNL     1      37.222 -14.108  -3.772  1.00  0.00    -0.061 A 
HETATM   29  C   UNL     1      36.179 -14.398  -4.814  1.00  0.00     0.048 C 
HETATM   30  C   UNL     1      37.096 -13.001  -2.937  1.00  0.00     0.007 A 
HETATM   31  C   UNL     1      38.101 -12.685  -2.019  1.00  0.00     0.010 A 
ENDBRANCH   6  24
BRANCH   9  32
HETATM   32  C   UNL     1      40.859 -11.067  -2.412  1.00  0.00     0.277 C 
HETATM   33  O   UNL     1      40.298 -10.096  -1.914  1.00  0.00    -0.264 OA
BRANCH  32  34
HETATM   34  O   UNL     1      41.135 -11.281  -3.708  1.00  0.00    -0.325 OA
HETATM   35  C   UNL     1      40.056 -10.935  -4.587  1.00  0.00     0.213 C 
ENDBRANCH  32  34
ENDBRANCH   9  32
BRANCH   1  36
HETATM   36  C   UNL     1      43.639 -10.943  -1.285  1.00  0.00     0.052 C 
HETATM   37  C   UNL     1      43.753  -9.454  -0.957  1.00  0.00     0.011 C 
ENDBRANCH   1  36
TORSDOF 9
ENDMDL
MODEL 4
REMARK VINA RESULT:      -7.8      3.444      7.621
REMARK  9 active torsions:
REMARK  status: ('A' for Active; 'I' for Inactive)
REMARK    1  A    between atoms: C_2  and  C_3 
REMARK    2  A    between atoms: C_7  and  C_8 
REMARK    3  A    between atoms: C_8  and  C_9 
REMARK       I    between atoms: C_9  and  N_10 
REMARK    4  A    between atoms: N_10  and  C_11 
REMARK    5  A    between atoms: C_11  and  C_12 
REMARK    6  A    between atoms: C_12  and  N_13 
REMARK    7  A    between atoms: C_21  and  C_22 
REMARK    8  A    between atoms: C_32  and  C_33 
REMARK    9  A    between atoms: C_33  and  O_34 
ROOT
HETATM    1  C   UNL     1      39.280 -12.496   0.851  1.00  0.00     0.037 C 
HETATM    2  N   UNL     1      39.379 -13.338  -0.237  1.00  0.00    -0.232 NA
HETATM    3  C   UNL     1      40.263 -14.273  -0.197  1.00  0.00     0.169 C 
HETATM    4  N   UNL     1      40.994 -14.768   1.102  1.00  0.00    -0.321 N 
HETATM    5  C   UNL     1      41.498 -15.935   0.860  1.00  0.00     0.011 C 
HETATM    6  C   UNL     1      40.588 -14.022   2.310  1.00  0.00     0.151 C 
HETATM    7  S   UNL     1      40.628 -15.269  -1.576  1.00  0.00    -0.086 SA
HETATM    8  C   UNL     1      41.850 -16.182  -0.593  1.00  0.00     0.135 C 
HETATM    9  C   UNL     1      40.057 -12.658   1.946  1.00  0.00     0.138 C 
ENDROOT
BRANCH   5  10
HETATM   10  C   UNL     1      41.449 -17.059   1.861  1.00  0.00     0.156 C 
BRANCH  10  11
HETATM   11  C   UNL     1      42.845 -17.672   1.962  1.00  0.00     0.223 C 
HETATM   12  N   UNL     1      42.930 -19.033   1.925  1.00  0.00    -0.359 N 
HETATM   13  H   UNL     1      42.062 -19.562   1.851  1.00  0.00     0.162 HD
HETATM   14  O   UNL     1      43.835 -16.954   2.099  1.00  0.00    -0.273 OA
BRANCH  12  15
HETATM   15  C   UNL     1      44.098 -19.827   2.345  1.00  0.00     0.150 C 
BRANCH  15  16
HETATM   16  C   UNL     1      44.333 -20.081   3.859  1.00  0.00     0.254 C 
BRANCH  16  17
HETATM   17  N   UNL     1      44.019 -18.884   4.741  1.00  0.00    -0.070 N 
HETATM   18  H   UNL     1      44.114 -18.058   4.119  1.00  0.00     0.279 HD
HETATM   19  C   UNL     1      42.622 -18.872   5.316  1.00  0.00     0.235 C 
HETATM   20  C   UNL     1      42.373 -17.543   6.020  1.00  0.00     0.028 C 
HETATM   21  C   UNL     1      43.411 -17.271   7.100  1.00  0.00     0.003 C 
HETATM   22  C   UNL     1      44.825 -17.377   6.542  1.00  0.00     0.028 C 
HETATM   23  C   UNL     1      45.057 -18.705   5.832  1.00  0.00     0.235 C 
ENDBRANCH  16  17
ENDBRANCH  15  16
ENDBRANCH  12  15
ENDBRANCH  10  11
ENDBRANCH   5  10
BRANCH   6  24
HETATM   24  C   UNL     1      41.610 -14.024   3.451  1.00  0.00    -0.027 A 
HETATM   25  C   UNL     1      41.187 -14.052   4.805  1.00  0.00    -0.053 A 
HETATM   26  C   UNL     1      39.739 -14.146   5.219  1.00  0.00     0.049 C 
HETATM   27  C   UNL     1      42.145 -14.001   5.836  1.00  0.00     0.014 A 
HETATM   28  C   UNL     1      43.510 -13.895   5.560  1.00  0.00    -0.061 A 
HETATM   29  C   UNL     1      44.506 -13.743   6.675  1.00  0.00     0.048 C 
HETATM   30  C   UNL     1      43.925 -13.833   4.232  1.00  0.00     0.007 A 
HETATM   31  C   UNL     1      42.992 -13.897   3.193  1.00  0.00     0.010 A 
ENDBRANCH   6  24
BRANCH   9  32
HETATM   32  C   UNL     1      41.051 -11.559   1.980  1.00  0.00     0.277 C 
HETATM   33  O   UNL     1      41.833 -11.421   1.046  1.00  0.00    -0.264 OA
BRANCH  32  34
HETATM   34  O   UNL     1      40.900 -10.763   3.050  1.00  0.00    -0.325 OA
HETATM   35  C   UNL     1      40.743  -9.378   2.714  1.00  0.00     0.213 C 
ENDBRANCH  32  34
ENDBRANCH   9  32
BRANCH   1  36
HETATM   36  C   UNL     1      38.382 -11.287   0.631  1.00  0.00     0.052 C 
HETATM   37  C   UNL     1      37.369 -11.091   1.759  1.00  0.00     0.011 C 
ENDBRANCH   1  36
TORSDOF 9
ENDMDL
MODEL 5
REMARK VINA RESULT:      -7.7      3.870      9.413
REMARK  9 active torsions:
REMARK  status: ('A' for Active; 'I' for Inactive)
REMARK    1  A    between atoms: C_2  and  C_3 
REMARK    2  A    between atoms: C_7  and  C_8 
REMARK    3  A    between atoms: C_8  and  C_9 
REMARK       I    between atoms: C_9  and  N_10 
REMARK    4  A    between atoms: N_10  and  C_11 
REMARK    5  A    between atoms: C_11  and  C_12 
REMARK    6  A    between atoms: C_12  and  N_13 
REMARK    7  A    between atoms: C_21  and  C_22 
REMARK    8  A    between atoms: C_32  and  C_33 
REMARK    9  A    between atoms: C_33  and  O_34 
ROOT
HETATM    1  C   UNL     1      40.990 -13.510   0.841  1.00  0.00     0.037 C 
HETATM    2  N   UNL     1      40.073 -12.484   0.939  1.00  0.00    -0.232 NA
HETATM    3  C   UNL     1      39.601 -12.207   2.104  1.00  0.00     0.169 C 
HETATM    4  N   UNL     1      40.227 -12.679   3.466  1.00  0.00    -0.321 N 
HETATM    5  C   UNL     1      39.758 -11.925   4.406  1.00  0.00     0.011 C 
HETATM    6  C   UNL     1      41.425 -13.524   3.286  1.00  0.00     0.151 C 
HETATM    7  S   UNL     1      38.295 -11.081   2.337  1.00  0.00    -0.086 SA
HETATM    8  C   UNL     1      38.385 -11.349   4.129  1.00  0.00     0.135 C 
HETATM    9  C   UNL     1      41.417 -14.187   1.931  1.00  0.00     0.138 C 
ENDROOT
BRANCH   5  10
HETATM   10  C   UNL     1      40.618 -11.407   5.530  1.00  0.00     0.156 C 
BRANCH  10  11
HETATM   11  C   UNL     1      39.935 -11.750   6.853  1.00  0.00     0.223 C 
HETATM   12  N   UNL     1      40.074 -10.857   7.874  1.00  0.00    -0.359 N 
HETATM   13  H   UNL     1      40.636 -10.024   7.704  1.00  0.00     0.162 HD
HETATM   14  O   UNL     1      39.316 -12.807   6.982  1.00  0.00    -0.273 OA
BRANCH  12  15
HETATM   15  C   UNL     1      39.808 -11.137   9.295  1.00  0.00     0.150 C 
BRANCH  15  16
HETATM   16  C   UNL     1      40.808 -10.625  10.367  1.00  0.00     0.254 C 
BRANCH  16  17
HETATM   17  N   UNL     1      42.158 -11.323  10.334  1.00  0.00    -0.070 N 
HETATM   18  H   UNL     1      41.947 -12.305  10.069  1.00  0.00     0.279 HD
HETATM   19  C   UNL     1      43.131 -10.768   9.320  1.00  0.00     0.235 C 
HETATM   20  C   UNL     1      44.363 -11.663   9.255  1.00  0.00     0.028 C 
HETATM   21  C   UNL     1      45.022 -11.818  10.619  1.00  0.00     0.003 C 
HETATM   22  C   UNL     1      44.018 -12.286  11.665  1.00  0.00     0.028 C 
HETATM   23  C   UNL     1      42.787 -11.390  11.712  1.00  0.00     0.235 C 
ENDBRANCH  16  17
ENDBRANCH  15  16
ENDBRANCH  12  15
ENDBRANCH  10  11
ENDBRANCH   5  10
BRANCH   6  24
HETATM   24  C   UNL     1      41.740 -14.464   4.453  1.00  0.00    -0.027 A 
HETATM   25  C   UNL     1      43.080 -14.720   4.839  1.00  0.00    -0.053 A 
HETATM   26  C   UNL     1      44.270 -14.054   4.192  1.00  0.00     0.049 C 
HETATM   27  C   UNL     1      43.345 -15.629   5.882  1.00  0.00     0.014 A 
HETATM   28  C   UNL     1      42.316 -16.312   6.534  1.00  0.00    -0.061 A 
HETATM   29  C   UNL     1      42.627 -17.349   7.576  1.00  0.00     0.048 C 
HETATM   30  C   UNL     1      41.001 -16.087   6.134  1.00  0.00     0.007 A 
HETATM   31  C   UNL     1      40.715 -15.179   5.112  1.00  0.00     0.010 A 
ENDBRANCH   6  24
BRANCH   9  32
HETATM   32  C   UNL     1      40.833 -15.548   1.893  1.00  0.00     0.277 C 
HETATM   33  O   UNL     1      39.619 -15.690   2.000  1.00  0.00    -0.264 OA
BRANCH  32  34
HETATM   34  O   UNL     1      41.753 -16.495   1.648  1.00  0.00    -0.325 OA
HETATM   35  C   UNL     1      41.762 -17.548   2.621  1.00  0.00     0.213 C 
ENDBRANCH  32  34
ENDBRANCH   9  32
BRANCH   1  36
HETATM   36  C   UNL     1      41.319 -13.926  -0.586  1.00  0.00     0.052 C 
HETATM   37  C   UNL     1      42.066 -12.840  -1.360  1.00  0.00     0.011 C 
ENDBRANCH   1  36
TORSDOF 9
ENDMDL
MODEL 6
REMARK VINA RESULT:      -7.6      3.944     10.117
REMARK  9 active torsions:
REMARK  status: ('A' for Active; 'I' for Inactive)
REMARK    1  A    between atoms: C_2  and  C_3 
REMARK    2  A    between atoms: C_7  and  C_8 
REMARK    3  A    between atoms: C_8  and  C_9 
REMARK       I    between atoms: C_9  and  N_10 
REMARK    4  A    between atoms: N_10  and  C_11 
REMARK    5  A    between atoms: C_11  and  C_12 
REMARK    6  A    between atoms: C_12  and  N_13 
REMARK    7  A    between atoms: C_21  and  C_22 
REMARK    8  A    between atoms: C_32  and  C_33 
REMARK    9  A    between atoms: C_33  and  O_34 
ROOT
HETATM    1  C   UNL     1      41.737 -15.901   1.821  1.00  0.00     0.037 C 
HETATM    2  N   UNL     1      42.407 -16.012   3.022  1.00  0.00    -0.232 NA
HETATM    3  C   UNL     1      42.240 -15.078   3.893  1.00  0.00     0.169 C 
HETATM    4  N   UNL     1      41.083 -14.016   3.866  1.00  0.00    -0.321 N 
HETATM    5  C   UNL     1      40.982 -13.503   5.049  1.00  0.00     0.011 C 
HETATM    6  C   UNL     1      40.191 -14.166   2.698  1.00  0.00     0.151 C 
HETATM    7  S   UNL     1      43.178 -14.991   5.356  1.00  0.00    -0.086 SA
HETATM    8  C   UNL     1      42.267 -13.502   5.850  1.00  0.00     0.135 C 
HETATM    9  C   UNL     1      40.900 -14.869   1.567  1.00  0.00     0.138 C 
ENDROOT
BRANCH   5  10
HETATM   10  C   UNL     1      39.650 -13.221   5.695  1.00  0.00     0.156 C 
BRANCH  10  11
HETATM   11  C   UNL     1      39.785 -11.955   6.539  1.00  0.00     0.223 C 
HETATM   12  N   UNL     1      39.746 -12.104   7.895  1.00  0.00    -0.359 N 
HETATM   13  H   UNL     1      39.612 -13.044   8.265  1.00  0.00     0.162 HD
HETATM   14  O   UNL     1      39.894 -10.853   6.001  1.00  0.00    -0.273 OA
BRANCH  12  15
HETATM   15  C   UNL     1      39.511 -11.022   8.866  1.00  0.00     0.150 C 
BRANCH  15  16
HETATM   16  C   UNL     1      39.897 -11.245  10.353  1.00  0.00     0.254 C 
BRANCH  16  17
HETATM   17  N   UNL     1      41.396 -11.307  10.598  1.00  0.00    -0.070 N 
HETATM   18  H   UNL     1      41.672 -12.275  10.344  1.00  0.00     0.279 HD
HETATM   19  C   UNL     1      42.214 -10.357   9.753  1.00  0.00     0.235 C 
HETATM   20  C   UNL     1      43.696 -10.645   9.955  1.00  0.00     0.028 C 
HETATM   21  C   UNL     1      44.096 -10.555  11.421  1.00  0.00     0.003 C 
HETATM   22  C   UNL     1      43.209 -11.441  12.288  1.00  0.00     0.028 C 
HETATM   23  C   UNL     1      41.730 -11.150  12.069  1.00  0.00     0.235 C 
ENDBRANCH  16  17
ENDBRANCH  15  16
ENDBRANCH  12  15
ENDBRANCH  10  11
ENDBRANCH   5  10
BRANCH   6  24
HETATM   24  C   UNL     1      39.438 -12.898   2.287  1.00  0.00    -0.027 A 
HETATM   25  C   UNL     1      38.257 -12.976   1.506  1.00  0.00    -0.053 A 
HETATM   26  C   UNL     1      37.627 -14.281   1.083  1.00  0.00     0.049 C 
HETATM   27  C   UNL     1      37.612 -11.793   1.096  1.00  0.00     0.014 A 
HETATM   28  C   UNL     1      38.122 -10.533   1.419  1.00  0.00    -0.061 A 
HETATM   29  C   UNL     1      37.472  -9.286   0.890  1.00  0.00     0.048 C 
HETATM   30  C   UNL     1      39.300 -10.455   2.158  1.00  0.00     0.007 A 
HETATM   31  C   UNL     1      39.948 -11.616   2.586  1.00  0.00     0.010 A 
ENDBRANCH   6  24
BRANCH   9  32
HETATM   32  C   UNL     1      41.543 -13.981   0.571  1.00  0.00     0.277 C 
HETATM   33  O   UNL     1      42.526 -13.321   0.892  1.00  0.00    -0.264 OA
BRANCH  32  34
HETATM   34  O   UNL     1      40.986 -14.086  -0.646  1.00  0.00    -0.325 OA
HETATM   35  C   UNL     1      41.789 -13.524  -1.693  1.00  0.00     0.213 C 
ENDBRANCH  32  34
ENDBRANCH   9  32
BRANCH   1  36
HETATM   36  C   UNL     1      42.165 -16.912   0.767  1.00  0.00     0.052 C 
HETATM   37  C   UNL     1      43.571 -17.460   1.011  1.00  0.00     0.011 C 
ENDBRANCH   1  36
TORSDOF 9
ENDMDL
MODEL 7
REMARK VINA RESULT:      -7.5      3.646      9.336
REMARK  9 active torsions:
REMARK  status: ('A' for Active; 'I' for Inactive)
REMARK    1  A    between atoms: C_2  and  C_3 
REMARK    2  A    between atoms: C_7  and  C_8 
REMARK    3  A    between atoms: C_8  and  C_9 
REMARK       I    between atoms: C_9  and  N_10 
REMARK    4  A    between atoms: N_10  and  C_11 
REMARK    5  A    between atoms: C_11  and  C_12 
REMARK    6  A    between atoms: C_12  and  N_13 
REMARK    7  A    between atoms: C_21  and  C_22 
REMARK    8  A    between atoms: C_32  and  C_33 
REMARK    9  A    between atoms: C_33  and  O_34 
ROOT
HETATM    1  C   UNL     1      41.633 -13.007   1.544  1.00  0.00     0.037 C 
HETATM    2  N   UNL     1      41.276 -12.510   2.781  1.00  0.00    -0.232 NA
HETATM    3  C   UNL     1      41.309 -13.314   3.786  1.00  0.00     0.169 C 
HETATM    4  N   UNL     1      42.052 -14.698   3.808  1.00  0.00    -0.321 N 
HETATM    5  C   UNL     1      42.216 -15.046   5.044  1.00  0.00     0.011 C 
HETATM    6  C   UNL     1      42.703 -15.023   2.523  1.00  0.00     0.151 C 
HETATM    7  S   UNL     1      40.692 -12.874   5.352  1.00  0.00    -0.086 SA
HETATM    8  C   UNL     1      41.173 -14.500   5.997  1.00  0.00     0.135 C 
HETATM    9  C   UNL     1      42.042 -14.285   1.385  1.00  0.00     0.138 C 
ENDROOT
BRANCH   5  10
HETATM   10  C   UNL     1      43.492 -15.670   5.543  1.00  0.00     0.156 C 
BRANCH  10  11
HETATM   11  C   UNL     1      43.790 -15.106   6.932  1.00  0.00     0.223 C 
HETATM   12  N   UNL     1      44.086 -13.777   7.012  1.00  0.00    -0.359 N 
HETATM   13  H   UNL     1      44.108 -13.241   6.145  1.00  0.00     0.162 HD
HETATM   14  O   UNL     1      43.788 -15.841   7.919  1.00  0.00    -0.273 OA
BRANCH  12  15
HETATM   15  C   UNL     1      44.729 -13.113   8.160  1.00  0.00     0.150 C 
BRANCH  15  16
HETATM   16  C   UNL     1      44.185 -11.741   8.641  1.00  0.00     0.254 C 
BRANCH  16  17
HETATM   17  N   UNL     1      43.434 -11.804   9.961  1.00  0.00    -0.070 N 
HETATM   18  H   UNL     1      42.814 -12.633   9.880  1.00  0.00     0.279 HD
HETATM   19  C   UNL     1      44.311 -12.000  11.177  1.00  0.00     0.235 C 
HETATM   20  C   UNL     1      43.435 -12.233  12.402  1.00  0.00     0.028 C 
HETATM   21  C   UNL     1      42.448 -11.094  12.617  1.00  0.00     0.003 C 
HETATM   22  C   UNL     1      41.628 -10.832  11.359  1.00  0.00     0.028 C 
HETATM   23  C   UNL     1      42.516 -10.612  10.140  1.00  0.00     0.235 C 
ENDBRANCH  16  17
ENDBRANCH  15  16
ENDBRANCH  12  15
ENDBRANCH  10  11
ENDBRANCH   5  10
BRANCH   6  24
HETATM   24  C   UNL     1      42.932 -16.515   2.267  1.00  0.00    -0.027 A 
HETATM   25  C   UNL     1      41.985 -17.480   2.696  1.00  0.00    -0.053 A 
HETATM   26  C   UNL     1      40.680 -17.120   3.363  1.00  0.00     0.049 C 
HETATM   27  C   UNL     1      42.244 -18.849   2.494  1.00  0.00     0.014 A 
HETATM   28  C   UNL     1      43.430 -19.289   1.902  1.00  0.00    -0.061 A 
HETATM   29  C   UNL     1      43.727 -20.757   1.786  1.00  0.00     0.048 C 
HETATM   30  C   UNL     1      44.376 -18.345   1.511  1.00  0.00     0.007 A 
HETATM   31  C   UNL     1      44.133 -16.981   1.689  1.00  0.00     0.010 A 
ENDBRANCH   6  24
BRANCH   9  32
HETATM   32  C   UNL     1      40.976 -15.032   0.677  1.00  0.00     0.277 C 
HETATM   33  O   UNL     1      39.829 -15.006   1.110  1.00  0.00    -0.264 OA
BRANCH  32  34
HETATM   34  O   UNL     1      41.414 -15.601  -0.457  1.00  0.00    -0.325 OA
HETATM   35  C   UNL     1      40.762 -15.105  -1.634  1.00  0.00     0.213 C 
ENDBRANCH  32  34
ENDBRANCH   9  32
BRANCH   1  36
HETATM   36  C   UNL     1      41.344 -12.067   0.382  1.00  0.00     0.052 C 
HETATM   37  C   UNL     1      42.526 -11.936  -0.578  1.00  0.00     0.011 C 
ENDBRANCH   1  36
TORSDOF 9
ENDMDL
MODEL 8
REMARK VINA RESULT:      -7.4      3.524      5.676
REMARK  9 active torsions:
REMARK  status: ('A' for Active; 'I' for Inactive)
REMARK    1  A    between atoms: C_2  and  C_3 
REMARK    2  A    between atoms: C_7  and  C_8 
REMARK    3  A    between atoms: C_8  and  C_9 
REMARK       I    between atoms: C_9  and  N_10 
REMARK    4  A    between atoms: N_10  and  C_11 
REMARK    5  A    between atoms: C_11  and  C_12 
REMARK    6  A    between atoms: C_12  and  N_13 
REMARK    7  A    between atoms: C_21  and  C_22 
REMARK    8  A    between atoms: C_32  and  C_33 
REMARK    9  A    between atoms: C_33  and  O_34 
ROOT
HETATM    1  C   UNL     1      44.581 -18.124   5.891  1.00  0.00     0.037 C 
HETATM    2  N   UNL     1      44.784 -19.247   5.115  1.00  0.00    -0.232 NA
HETATM    3  C   UNL     1      44.151 -19.329   3.997  1.00  0.00     0.169 C 
HETATM    4  N   UNL     1      43.452 -18.126   3.267  1.00  0.00    -0.321 N 
HETATM    5  C   UNL     1      43.267 -18.460   2.030  1.00  0.00     0.011 C 
HETATM    6  C   UNL     1      43.559 -16.858   4.015  1.00  0.00     0.151 C 
HETATM    7  S   UNL     1      44.158 -20.772   3.026  1.00  0.00    -0.086 SA
HETATM    8  C   UNL     1      43.112 -19.948   1.794  1.00  0.00     0.135 C 
HETATM    9  C   UNL     1      43.774 -17.117   5.486  1.00  0.00     0.138 C 
ENDROOT
BRANCH   5  10
HETATM   10  C   UNL     1      43.498 -17.500   0.893  1.00  0.00     0.156 C 
BRANCH  10  11
HETATM   11  C   UNL     1      42.150 -16.914   0.478  1.00  0.00     0.223 C 
HETATM   12  N   UNL     1      42.156 -15.667  -0.074  1.00  0.00    -0.359 N 
HETATM   13  H   UNL     1      43.054 -15.191  -0.163  1.00  0.00     0.162 HD
HETATM   14  O   UNL     1      41.109 -17.544   0.670  1.00  0.00    -0.273 OA
BRANCH  12  15
HETATM   15  C   UNL     1      40.981 -14.791  -0.220  1.00  0.00     0.150 C 
BRANCH  15  16
HETATM   16  C   UNL     1      40.586 -14.286  -1.634  1.00  0.00     0.254 C 
BRANCH  16  17
HETATM   17  N   UNL     1      41.530 -13.239  -2.201  1.00  0.00    -0.070 N 
HETATM   18  H   UNL     1      42.419 -13.745  -2.378  1.00  0.00     0.279 HD
HETATM   19  C   UNL     1      41.080 -12.623  -3.506  1.00  0.00     0.235 C 
HETATM   20  C   UNL     1      42.191 -11.737  -4.059  1.00  0.00     0.028 C 
HETATM   21  C   UNL     1      42.608 -10.664  -3.062  1.00  0.00     0.003 C 
HETATM   22  C   UNL     1      42.971 -11.277  -1.715  1.00  0.00     0.028 C 
HETATM   23  C   UNL     1      41.857 -12.168  -1.178  1.00  0.00     0.235 C 
ENDBRANCH  16  17
ENDBRANCH  15  16
ENDBRANCH  12  15
ENDBRANCH  10  11
ENDBRANCH   5  10
BRANCH   6  24
HETATM   24  C   UNL     1      42.473 -15.823   3.704  1.00  0.00    -0.027 A 
HETATM   25  C   UNL     1      42.797 -14.450   3.559  1.00  0.00    -0.053 A 
HETATM   26  C   UNL     1      44.208 -13.920   3.633  1.00  0.00     0.049 C 
HETATM   27  C   UNL     1      41.773 -13.513   3.325  1.00  0.00     0.014 A 
HETATM   28  C   UNL     1      40.432 -13.897   3.257  1.00  0.00    -0.061 A 
HETATM   29  C   UNL     1      39.348 -12.868   3.104  1.00  0.00     0.048 C 
HETATM   30  C   UNL     1      40.108 -15.240   3.432  1.00  0.00     0.007 A 
HETATM   31  C   UNL     1      41.110 -16.189   3.652  1.00  0.00     0.010 A 
ENDBRANCH   6  24
BRANCH   9  32
HETATM   32  C   UNL     1      42.546 -17.141   6.314  1.00  0.00     0.277 C 
HETATM   33  O   UNL     1      41.757 -18.074   6.200  1.00  0.00    -0.264 OA
BRANCH  32  34
HETATM   34  O   UNL     1      42.498 -16.125   7.190  1.00  0.00    -0.325 OA
HETATM   35  C   UNL     1      43.579 -15.194   7.046  1.00  0.00     0.213 C 
ENDBRANCH  32  34
ENDBRANCH   9  32
BRANCH   1  36
HETATM   36  C   UNL     1      45.177 -18.210   7.289  1.00  0.00     0.052 C 
HETATM   37  C   UNL     1      44.338 -19.067   8.237  1.00  0.00     0.011 C 
ENDBRANCH   1  36
TORSDOF 9
ENDMDL
MODEL 9
REMARK VINA RESULT:      -7.4      3.050      9.232
REMARK  9 active torsions:
REMARK  status: ('A' for Active; 'I' for Inactive)
REMARK    1  A    between atoms: C_2  and  C_3 
REMARK    2  A    between atoms: C_7  and  C_8 
REMARK    3  A    between atoms: C_8  and  C_9 
REMARK       I    between atoms: C_9  and  N_10 
REMARK    4  A    between atoms: N_10  and  C_11 
REMARK    5  A    between atoms: C_11  and  C_12 
REMARK    6  A    between atoms: C_12  and  N_13 
REMARK    7  A    between atoms: C_21  and  C_22 
REMARK    8  A    between atoms: C_32  and  C_33 
REMARK    9  A    between atoms: C_33  and  O_34 
ROOT
HETATM    1  C   UNL     1      40.363 -14.789  -1.749  1.00  0.00     0.037 C 
HETATM    2  N   UNL     1      41.105 -15.795  -1.165  1.00  0.00    -0.232 NA
HETATM    3  C   UNL     1      41.444 -15.655   0.069  1.00  0.00     0.169 C 
HETATM    4  N   UNL     1      40.801 -14.628   1.070  1.00  0.00    -0.321 N 
HETATM    5  C   UNL     1      41.082 -15.011   2.273  1.00  0.00     0.011 C 
HETATM    6  C   UNL     1      39.761 -13.788   0.443  1.00  0.00     0.151 C 
HETATM    7  S   UNL     1      42.545 -16.744   0.862  1.00  0.00    -0.086 SA
HETATM    8  C   UNL     1      42.369 -15.800   2.401  1.00  0.00     0.135 C 
HETATM    9  C   UNL     1      39.966 -13.702  -1.049  1.00  0.00     0.138 C 
ENDROOT
BRANCH   5  10
HETATM   10  C   UNL     1      40.075 -14.957   3.392  1.00  0.00     0.156 C 
BRANCH  10  11
HETATM   11  C   UNL     1      40.805 -15.229   4.707  1.00  0.00     0.223 C 
HETATM   12  N   UNL     1      40.654 -16.467   5.258  1.00  0.00    -0.359 N 
HETATM   13  H   UNL     1      40.051 -17.132   4.774  1.00  0.00     0.162 HD
HETATM   14  O   UNL     1      41.473 -14.345   5.246  1.00  0.00    -0.273 OA
BRANCH  12  15
HETATM   15  C   UNL     1      40.967 -16.826   6.652  1.00  0.00     0.150 C 
BRANCH  15  16
HETATM   16  C   UNL     1      42.421 -17.229   7.019  1.00  0.00     0.254 C 
BRANCH  16  17
HETATM   17  N   UNL     1      42.991 -18.340   6.152  1.00  0.00    -0.070 N 
HETATM   18  H   UNL     1      42.163 -18.824   5.755  1.00  0.00     0.279 HD
HETATM   19  C   UNL     1      43.846 -17.865   4.999  1.00  0.00     0.235 C 
HETATM   20  C   UNL     1      44.198 -19.049   4.107  1.00  0.00     0.028 C 
HETATM   21  C   UNL     1      44.894 -20.157   4.884  1.00  0.00     0.003 C 
HETATM   22  C   UNL     1      44.077 -20.571   6.103  1.00  0.00     0.028 C 
HETATM   23  C   UNL     1      43.723 -19.377   6.980  1.00  0.00     0.235 C 
ENDBRANCH  16  17
ENDBRANCH  15  16
ENDBRANCH  12  15
ENDBRANCH  10  11
ENDBRANCH   5  10
BRANCH   6  24
HETATM   24  C   UNL     1      39.509 -12.443   1.130  1.00  0.00    -0.027 A 
HETATM   25  C   UNL     1      38.211 -11.871   1.153  1.00  0.00    -0.053 A 
HETATM   26  C   UNL     1      36.995 -12.553   0.576  1.00  0.00     0.049 C 
HETATM   27  C   UNL     1      38.016 -10.608   1.745  1.00  0.00     0.014 A 
HETATM   28  C   UNL     1      39.079  -9.885   2.292  1.00  0.00    -0.061 A 
HETATM   29  C   UNL     1      38.864  -8.499   2.830  1.00  0.00     0.048 C 
HETATM   30  C   UNL     1      40.359 -10.431   2.240  1.00  0.00     0.007 A 
HETATM   31  C   UNL     1      40.573 -11.688   1.670  1.00  0.00     0.010 A 
ENDBRANCH   6  24
BRANCH   9  32
HETATM   32  C   UNL     1      40.750 -12.535  -1.516  1.00  0.00     0.277 C 
HETATM   33  O   UNL     1      41.972 -12.544  -1.409  1.00  0.00    -0.264 OA
BRANCH  32  34
HETATM   34  O   UNL     1      39.984 -11.604  -2.107  1.00  0.00    -0.325 OA
HETATM   35  C   UNL     1      40.373 -10.260  -1.792  1.00  0.00     0.213 C 
ENDBRANCH  32  34
ENDBRANCH   9  32
BRANCH   1  36
HETATM   36  C   UNL     1      40.204 -14.919  -3.257  1.00  0.00     0.052 C 
HETATM   37  C   UNL     1      38.744 -15.058  -3.687  1.00  0.00     0.011 C 
ENDBRANCH   1  36
TORSDOF 9
ENDMDL
MODEL 10
REMARK VINA RESULT:      -7.3      2.541      5.128
REMARK  9 active torsions:
REMARK  status: ('A' for Active; 'I' for Inactive)
REMARK    1  A    between atoms: C_2  and  C_3 
REMARK    2  A    between atoms: C_7  and  C_8 
REMARK    3  A    between atoms: C_8  and  C_9 
REMARK       I    between atoms: C_9  and  N_10 
REMARK    4  A    between atoms: N_10  and  C_11 
REMARK    5  A    between atoms: C_11  and  C_12 
REMARK    6  A    between atoms: C_12  and  N_13 
REMARK    7  A    between atoms: C_21  and  C_22 
REMARK    8  A    between atoms: C_32  and  C_33 
REMARK    9  A    between atoms: C_33  and  O_34 
ROOT
HETATM    1  C   UNL     1      43.943 -18.089   4.656  1.00  0.00     0.037 C 
HETATM    2  N   UNL     1      43.932 -18.426   3.318  1.00  0.00    -0.232 NA
HETATM    3  C   UNL     1      43.203 -17.721   2.524  1.00  0.00     0.169 C 
HETATM    4  N   UNL     1      42.609 -16.307   2.864  1.00  0.00    -0.321 N 
HETATM    5  C   UNL     1      42.280 -15.731   1.753  1.00  0.00     0.011 C 
HETATM    6  C   UNL     1      42.943 -15.855   4.230  1.00  0.00     0.151 C 
HETATM    7  S   UNL     1      42.941 -18.161   0.861  1.00  0.00    -0.086 SA
HETATM    8  C   UNL     1      41.913 -16.683   0.633  1.00  0.00     0.135 C 
HETATM    9  C   UNL     1      43.244 -17.031   5.126  1.00  0.00     0.138 C 
ENDROOT
BRANCH   5  10
HETATM   10  C   UNL     1      42.540 -14.270   1.493  1.00  0.00     0.156 C 
BRANCH  10  11
HETATM   11  C   UNL     1      41.635 -13.819   0.348  1.00  0.00     0.223 C 
HETATM   12  N   UNL     1      42.215 -13.652  -0.875  1.00  0.00    -0.359 N 
HETATM   13  H   UNL     1      43.218 -13.821  -0.952  1.00  0.00     0.162 HD
HETATM   14  O   UNL     1      40.441 -13.591   0.547  1.00  0.00    -0.273 OA
BRANCH  12  15
HETATM   15  C   UNL     1      41.629 -12.910  -2.004  1.00  0.00     0.150 C 
BRANCH  15  16
HETATM   16  C   UNL     1      41.528 -13.600  -3.391  1.00  0.00     0.254 C 
BRANCH  16  17
HETATM   17  N   UNL     1      40.127 -14.070  -3.745  1.00  0.00    -0.070 N 
HETATM   18  H   UNL     1      40.004 -13.824  -4.746  1.00  0.00     0.279 HD
HETATM   19  C   UNL     1      39.906 -15.559  -3.605  1.00  0.00     0.235 C 
HETATM   20  C   UNL     1      38.536 -15.924  -4.163  1.00  0.00     0.028 C 
HETATM   21  C   UNL     1      37.421 -15.139  -3.484  1.00  0.00     0.003 C 
HETATM   22  C   UNL     1      37.691 -13.640  -3.541  1.00  0.00     0.028 C 
HETATM   23  C   UNL     1      39.068 -13.291  -2.990  1.00  0.00     0.235 C 
ENDBRANCH  16  17
ENDBRANCH  15  16
ENDBRANCH  12  15
ENDBRANCH  10  11
ENDBRANCH   5  10
BRANCH   6  24
HETATM   24  C   UNL     1      41.979 -14.828   4.831  1.00  0.00    -0.027 A 
HETATM   25  C   UNL     1      42.454 -13.798   5.683  1.00  0.00    -0.053 A 
HETATM   26  C   UNL     1      43.914 -13.597   6.006  1.00  0.00     0.049 C 
HETATM   27  C   UNL     1      41.540 -12.897   6.264  1.00  0.00     0.014 A 
HETATM   28  C   UNL     1      40.166 -13.007   6.044  1.00  0.00    -0.061 A 
HETATM   29  C   UNL     1      39.203 -12.096   6.751  1.00  0.00     0.048 C 
HETATM   30  C   UNL     1      39.695 -14.038   5.234  1.00  0.00     0.007 A 
HETATM   31  C   UNL     1      40.585 -14.934   4.637  1.00  0.00     0.010 A 
ENDBRANCH   6  24
BRANCH   9  32
HETATM   32  C   UNL     1      42.096 -17.543   5.911  1.00  0.00     0.277 C 
HETATM   33  O   UNL     1      41.299 -18.314   5.386  1.00  0.00    -0.264 OA
BRANCH  32  34
HETATM   34  O   UNL     1      42.128 -17.139   7.191  1.00  0.00    -0.325 OA
HETATM   35  C   UNL     1      43.446 -16.817   7.655  1.00  0.00     0.213 C 
ENDBRANCH  32  34
ENDBRANCH   9  32
BRANCH   1  36
HETATM   36  C   UNL     1      44.636 -19.103   5.554  1.00  0.00     0.052 C 
HETATM   37  C   UNL     1      44.908 -20.430   4.846  1.00  0.00     0.011 C 
ENDBRANCH   1  36
TORSDOF 9
ENDMDL
