MODEL 1
REMARK VINA RESULT:      -7.9      0.000      0.000
REMARK  4 active torsions:
REMARK  status: ('A' for Active; 'I' for Inactive)
REMARK    1  A    between atoms: C_8  and  N_9 
REMARK       I    between atoms: N_9  and  C_10 
REMARK       I    between atoms: C_10  and  N_11 
REMARK    2  A    between atoms: N_11  and  C_12 
REMARK    3  A    between atoms: C_14  and  C_15 
REMARK       I    between atoms: C_15  and  N_16 
REMARK    4  A    between atoms: N_16  and  C_17 
ROOT
HETATM    1  C   UNL     1      41.864 -16.187   4.019  1.00  0.00     0.037 A 
HETATM    2  C   UNL     1      42.756 -17.219   3.721  1.00  0.00     0.048 A 
HETATM    3  C   UNL     1      43.232 -18.077   4.729  1.00  0.00     0.055 A 
HETATM    4  C   UNL     1      42.781 -17.929   6.042  1.00  0.00     0.049 A 
HETATM    5 CL   UNL     1      43.355 -18.888   7.356  1.00  0.00    -0.083 Cl
HETATM    6  C   UNL     1      41.859 -16.921   6.338  1.00  0.00     0.027 A 
HETATM    7  C   UNL     1      41.405 -16.056   5.334  1.00  0.00     0.031 A 
ENDROOT
BRANCH   1   8
HETATM    8  N   UNL     1      41.400 -15.250   3.071  1.00  0.00    -0.309 N 
HETATM    9  C   UNL     1      40.475 -15.476   2.056  1.00  0.00     0.325 C 
HETATM   10  N   UNL     1      40.286 -14.333   1.302  1.00  0.00    -0.305 N 
HETATM   11  O   UNL     1      39.932 -16.552   1.853  1.00  0.00    -0.247 OA
HETATM   12  H   UNL     1      40.732 -13.488   1.618  1.00  0.00     0.171 HD
HETATM   13  H   UNL     1      41.879 -14.363   3.053  1.00  0.00     0.170 HD
BRANCH  10  14
HETATM   14  C   UNL     1      39.506 -14.197   0.162  1.00  0.00     0.086 A 
HETATM   15  C   UNL     1      39.935 -14.674  -1.065  1.00  0.00     0.052 A 
HETATM   16  C   UNL     1      41.162 -15.382  -1.497  1.00  0.00     0.072 C 
HETATM   17  N   UNL     1      38.936 -14.386  -1.950  1.00  0.00    -0.280 N 
HETATM   18  H   UNL     1      38.898 -14.590  -2.942  1.00  0.00     0.189 HD
HETATM   19  N   UNL     1      37.892 -13.763  -1.401  1.00  0.00    -0.177 NA
HETATM   20  C   UNL     1      38.219 -13.637  -0.106  1.00  0.00     0.079 A 
HETATM   21  C   UNL     1      37.237 -12.972   0.789  1.00  0.00     0.075 C 
ENDBRANCH  10  14
ENDBRANCH   1   8
BRANCH   3  22
HETATM   22  C   UNL     1      44.200 -19.132   4.341  1.00  0.00     0.253 C 
HETATM   23  N   UNL     1      43.917 -19.762   3.142  1.00  0.00    -0.352 N 
HETATM   24  H   UNL     1      43.119 -19.460   2.594  1.00  0.00     0.163 HD
HETATM   25  O   UNL     1      45.147 -19.407   5.065  1.00  0.00    -0.268 OA
BRANCH  23  26
HETATM   26  C   UNL     1      44.691 -20.856   2.654  1.00  0.00     0.084 A 
HETATM   27  C   UNL     1      44.390 -22.260   3.103  1.00  0.00     0.027 A 
HETATM   28  C   UNL     1      44.090 -21.845   1.692  1.00  0.00     0.027 A 
ENDBRANCH  23  26
ENDBRANCH   3  22
TORSDOF 4
ENDMDL
MODEL 2
REMARK VINA RESULT:      -7.8      1.996      2.808
REMARK  4 active torsions:
REMARK  status: ('A' for Active; 'I' for Inactive)
REMARK    1  A    between atoms: C_8  and  N_9 
REMARK       I    between atoms: N_9  and  C_10 
REMARK       I    between atoms: C_10  and  N_11 
REMARK    2  A    between atoms: N_11  and  C_12 
REMARK    3  A    between atoms: C_14  and  C_15 
REMARK       I    between atoms: C_15  and  N_16 
REMARK    4  A    between atoms: N_16  and  C_17 
ROOT
HETATM    1  C   UNL     1      41.203 -16.787   1.564  1.00  0.00     0.037 A 
HETATM    2  C   UNL     1      42.224 -17.685   1.874  1.00  0.00     0.048 A 
HETATM    3  C   UNL     1      42.588 -17.933   3.210  1.00  0.00     0.055 A 
HETATM    4  C   UNL     1      41.896 -17.307   4.249  1.00  0.00     0.049 A 
HETATM    5 CL   UNL     1      42.310 -17.496   5.914  1.00  0.00    -0.083 Cl
HETATM    6  C   UNL     1      40.847 -16.435   3.944  1.00  0.00     0.027 A 
HETATM    7  C   UNL     1      40.504 -16.177   2.611  1.00  0.00     0.031 A 
ENDROOT
BRANCH   1   8
HETATM    8  N   UNL     1      40.833 -16.441   0.246  1.00  0.00    -0.309 N 
HETATM    9  C   UNL     1      40.967 -15.196  -0.361  1.00  0.00     0.325 C 
HETATM   10  N   UNL     1      40.469 -15.223  -1.650  1.00  0.00    -0.305 N 
HETATM   11  O   UNL     1      41.438 -14.213   0.192  1.00  0.00    -0.247 OA
HETATM   12  H   UNL     1      40.180 -16.113  -2.019  1.00  0.00     0.171 HD
HETATM   13  H   UNL     1      40.307 -17.135  -0.264  1.00  0.00     0.170 HD
BRANCH  10  14
HETATM   14  C   UNL     1      40.356 -14.156  -2.531  1.00  0.00     0.086 A 
HETATM   15  C   UNL     1      39.145 -13.832  -3.118  1.00  0.00     0.052 A 
HETATM   16  C   UNL     1      37.787 -14.413  -3.010  1.00  0.00     0.072 C 
HETATM   17  N   UNL     1      39.388 -12.745  -3.906  1.00  0.00    -0.280 N 
HETATM   18  H   UNL     1      38.734 -12.230  -4.485  1.00  0.00     0.189 HD
HETATM   19  N   UNL     1      40.656 -12.332  -3.880  1.00  0.00    -0.177 NA
HETATM   20  C   UNL     1      41.269 -13.183  -3.042  1.00  0.00     0.079 A 
HETATM   21  C   UNL     1      42.720 -12.980  -2.797  1.00  0.00     0.075 C 
ENDBRANCH  10  14
ENDBRANCH   1   8
BRANCH   3  22
HETATM   22  C   UNL     1      43.703 -18.879   3.461  1.00  0.00     0.253 C 
HETATM   23  N   UNL     1      43.814 -19.899   2.533  1.00  0.00    -0.352 N 
HETATM   24  H   UNL     1      43.181 -19.927   1.742  1.00  0.00     0.163 HD
HETATM   25  O   UNL     1      44.428 -18.743   4.438  1.00  0.00    -0.268 OA
BRANCH  23  26
HETATM   26  C   UNL     1      44.775 -20.946   2.661  1.00  0.00     0.084 A 
HETATM   27  C   UNL     1      44.424 -22.213   3.393  1.00  0.00     0.027 A 
HETATM   28  C   UNL     1      44.603 -22.234   1.902  1.00  0.00     0.027 A 
ENDBRANCH  23  26
ENDBRANCH   3  22
TORSDOF 4
ENDMDL
MODEL 3
REMARK VINA RESULT:      -7.8      3.308      8.309
REMARK  4 active torsions:
REMARK  status: ('A' for Active; 'I' for Inactive)
REMARK    1  A    between atoms: C_8  and  N_9 
REMARK       I    between atoms: N_9  and  C_10 
REMARK       I    between atoms: C_10  and  N_11 
REMARK    2  A    between atoms: N_11  and  C_12 
REMARK    3  A    between atoms: C_14  and  C_15 
REMARK       I    between atoms: C_15  and  N_16 
REMARK    4  A    between atoms: N_16  and  C_17 
ROOT
HETATM    1  C   UNL     1      41.891 -15.581   1.331  1.00  0.00     0.037 A 
HETATM    2  C   UNL     1      41.483 -15.565  -0.003  1.00  0.00     0.048 A 
HETATM    3  C   UNL     1      41.317 -14.351  -0.695  1.00  0.00     0.055 A 
HETATM    4  C   UNL     1      41.602 -13.141  -0.058  1.00  0.00     0.049 A 
HETATM    5 CL   UNL     1      41.368 -11.601  -0.799  1.00  0.00    -0.083 Cl
HETATM    6  C   UNL     1      42.048 -13.155   1.267  1.00  0.00     0.027 A 
HETATM    7  C   UNL     1      42.191 -14.365   1.956  1.00  0.00     0.031 A 
ENDROOT
BRANCH   1   8
HETATM    8  N   UNL     1      42.012 -16.756   2.103  1.00  0.00    -0.309 N 
HETATM    9  C   UNL     1      43.169 -17.498   2.321  1.00  0.00     0.325 C 
HETATM   10  N   UNL     1      42.902 -18.605   3.104  1.00  0.00    -0.305 N 
HETATM   11  O   UNL     1      44.262 -17.213   1.855  1.00  0.00    -0.247 OA
HETATM   12  H   UNL     1      41.977 -18.688   3.493  1.00  0.00     0.171 HD
HETATM   13  H   UNL     1      41.149 -17.166   2.427  1.00  0.00     0.170 HD
BRANCH  10  14
HETATM   14  C   UNL     1      43.784 -19.616   3.462  1.00  0.00     0.086 A 
HETATM   15  C   UNL     1      44.566 -19.518   4.600  1.00  0.00     0.052 A 
HETATM   16  C   UNL     1      44.693 -18.479   5.648  1.00  0.00     0.072 C 
HETATM   17  N   UNL     1      45.296 -20.670   4.654  1.00  0.00    -0.280 N 
HETATM   18  H   UNL     1      45.975 -20.952   5.352  1.00  0.00     0.189 HD
HETATM   19  N   UNL     1      45.053 -21.511   3.647  1.00  0.00    -0.177 NA
HETATM   20  C   UNL     1      44.128 -20.885   2.903  1.00  0.00     0.079 A 
HETATM   21  C   UNL     1      43.639 -21.582   1.686  1.00  0.00     0.075 C 
ENDBRANCH  10  14
ENDBRANCH   1   8
BRANCH   3  22
HETATM   22  C   UNL     1      40.852 -14.412  -2.102  1.00  0.00     0.253 C 
HETATM   23  N   UNL     1      39.485 -14.563  -2.251  1.00  0.00    -0.352 N 
HETATM   24  H   UNL     1      38.891 -14.585  -1.430  1.00  0.00     0.163 HD
HETATM   25  O   UNL     1      41.652 -14.355  -3.026  1.00  0.00    -0.268 OA
BRANCH  23  26
HETATM   26  C   UNL     1      38.870 -14.725  -3.529  1.00  0.00     0.084 A 
HETATM   27  C   UNL     1      38.717 -16.095  -4.130  1.00  0.00     0.027 A 
HETATM   28  C   UNL     1      37.507 -15.352  -3.644  1.00  0.00     0.027 A 
ENDBRANCH  23  26
ENDBRANCH   3  22
TORSDOF 4
ENDMDL
MODEL 4
REMARK VINA RESULT:      -7.8      0.431      1.656
REMARK  4 active torsions:
REMARK  status: ('A' for Active; 'I' for Inactive)
REMARK    1  A    between atoms: C_8  and  N_9 
REMARK       I    between atoms: N_9  and  C_10 
REMARK       I    between atoms: C_10  and  N_11 
REMARK    2  A    between atoms: N_11  and  C_12 
REMARK    3  A    between atoms: C_14  and  C_15 
REMARK       I    between atoms: C_15  and  N_16 
REMARK    4  A    between atoms: N_16  and  C_17 
ROOT
HETATM    1  C   UNL     1      41.988 -16.133   3.807  1.00  0.00     0.037 A 
HETATM    2  C   UNL     1      42.855 -17.203   3.577  1.00  0.00     0.048 A 
HETATM    3  C   UNL     1      43.299 -18.015   4.638  1.00  0.00     0.055 A 
HETATM    4  C   UNL     1      42.839 -17.779   5.936  1.00  0.00     0.049 A 
HETATM    5 CL   UNL     1      43.374 -18.677   7.308  1.00  0.00    -0.083 Cl
HETATM    6  C   UNL     1      41.941 -16.733   6.163  1.00  0.00     0.027 A 
HETATM    7  C   UNL     1      41.519 -15.916   5.107  1.00  0.00     0.031 A 
ENDROOT
BRANCH   1   8
HETATM    8  N   UNL     1      41.558 -15.240   2.802  1.00  0.00    -0.309 N 
HETATM    9  C   UNL     1      40.678 -15.516   1.760  1.00  0.00     0.325 C 
HETATM   10  N   UNL     1      40.513 -14.407   0.951  1.00  0.00    -0.305 N 
HETATM   11  O   UNL     1      40.150 -16.603   1.580  1.00  0.00    -0.247 OA
HETATM   12  H   UNL     1      40.940 -13.546   1.250  1.00  0.00     0.171 HD
HETATM   13  H   UNL     1      42.032 -14.351   2.766  1.00  0.00     0.170 HD
BRANCH  10  14
HETATM   14  C   UNL     1      39.780 -14.324  -0.225  1.00  0.00     0.086 A 
HETATM   15  C   UNL     1      38.411 -14.115  -0.206  1.00  0.00     0.052 A 
HETATM   16  C   UNL     1      37.436 -13.928   0.894  1.00  0.00     0.072 C 
HETATM   17  N   UNL     1      38.019 -14.077  -1.512  1.00  0.00    -0.280 N 
HETATM   18  H   UNL     1      37.086 -13.937  -1.885  1.00  0.00     0.189 HD
HETATM   19  N   UNL     1      39.018 -14.243  -2.381  1.00  0.00    -0.177 NA
HETATM   20  C   UNL     1      40.108 -14.396  -1.613  1.00  0.00     0.079 A 
HETATM   21  C   UNL     1      41.409 -14.602  -2.300  1.00  0.00     0.075 C 
ENDBRANCH  10  14
ENDBRANCH   1   8
BRANCH   3  22
HETATM   22  C   UNL     1      44.242 -19.114   4.321  1.00  0.00     0.253 C 
HETATM   23  N   UNL     1      43.996 -19.758   3.122  1.00  0.00    -0.352 N 
HETATM   24  H   UNL     1      43.240 -19.436   2.527  1.00  0.00     0.163 HD
HETATM   25  O   UNL     1      45.139 -19.410   5.099  1.00  0.00    -0.268 OA
BRANCH  23  26
HETATM   26  C   UNL     1      44.749 -20.892   2.695  1.00  0.00     0.084 A 
HETATM   27  C   UNL     1      44.364 -22.274   3.147  1.00  0.00     0.027 A 
HETATM   28  C   UNL     1      44.163 -21.871   1.715  1.00  0.00     0.027 A 
ENDBRANCH  23  26
ENDBRANCH   3  22
TORSDOF 4
ENDMDL
MODEL 5
REMARK VINA RESULT:      -7.8      1.824      2.285
REMARK  4 active torsions:
REMARK  status: ('A' for Active; 'I' for Inactive)
REMARK    1  A    between atoms: C_8  and  N_9 
REMARK       I    between atoms: N_9  and  C_10 
REMARK       I    between atoms: C_10  and  N_11 
REMARK    2  A    between atoms: N_11  and  C_12 
REMARK    3  A    between atoms: C_14  and  C_15 
REMARK       I    between atoms: C_15  and  N_16 
REMARK    4  A    between atoms: N_16  and  C_17 
ROOT
HETATM    1  C   UNL     1      41.294 -16.536   2.958  1.00  0.00     0.037 A 
HETATM    2  C   UNL     1      42.274 -17.529   2.938  1.00  0.00     0.048 A 
HETATM    3  C   UNL     1      42.814 -18.038   4.134  1.00  0.00     0.055 A 
HETATM    4  C   UNL     1      42.339 -17.577   5.364  1.00  0.00     0.049 A 
HETATM    5 CL   UNL     1      42.982 -18.091   6.881  1.00  0.00    -0.083 Cl
HETATM    6  C   UNL     1      41.331 -16.610   5.389  1.00  0.00     0.027 A 
HETATM    7  C   UNL     1      40.813 -16.093   4.195  1.00  0.00     0.031 A 
ENDROOT
BRANCH   1   8
HETATM    8  N   UNL     1      40.759 -15.935   1.798  1.00  0.00    -0.309 N 
HETATM    9  C   UNL     1      41.366 -15.842   0.550  1.00  0.00     0.325 C 
HETATM   10  N   UNL     1      40.557 -15.159  -0.339  1.00  0.00    -0.305 N 
HETATM   11  O   UNL     1      42.476 -16.285   0.294  1.00  0.00    -0.247 OA
HETATM   12  H   UNL     1      39.632 -14.913  -0.031  1.00  0.00     0.171 HD
HETATM   13  H   UNL     1      39.905 -15.414   1.922  1.00  0.00     0.170 HD
BRANCH  10  14
HETATM   14  C   UNL     1      40.858 -14.801  -1.647  1.00  0.00     0.086 A 
HETATM   15  C   UNL     1      41.625 -13.684  -1.928  1.00  0.00     0.052 A 
HETATM   16  C   UNL     1      42.283 -12.671  -1.070  1.00  0.00     0.072 C 
HETATM   17  N   UNL     1      41.731 -13.634  -3.288  1.00  0.00    -0.280 N 
HETATM   18  H   UNL     1      42.224 -12.954  -3.855  1.00  0.00     0.189 HD
HETATM   19  N   UNL     1      41.099 -14.627  -3.915  1.00  0.00    -0.177 NA
HETATM   20  C   UNL     1      40.556 -15.356  -2.928  1.00  0.00     0.079 A 
HETATM   21  C   UNL     1      39.772 -16.558  -3.312  1.00  0.00     0.075 C 
ENDBRANCH  10  14
ENDBRANCH   1   8
BRANCH   3  22
HETATM   22  C   UNL     1      43.873 -19.071   4.032  1.00  0.00     0.253 C 
HETATM   23  N   UNL     1      43.829 -19.830   2.877  1.00  0.00    -0.352 N 
HETATM   24  H   UNL     1      43.131 -19.627   2.171  1.00  0.00     0.163 HD
HETATM   25  O   UNL     1      44.687 -19.221   4.934  1.00  0.00    -0.268 OA
BRANCH  23  26
HETATM   26  C   UNL     1      44.717 -20.923   2.648  1.00  0.00     0.084 A 
HETATM   27  C   UNL     1      44.393 -22.290   3.184  1.00  0.00     0.027 A 
HETATM   28  C   UNL     1      44.332 -22.033   1.706  1.00  0.00     0.027 A 
ENDBRANCH  23  26
ENDBRANCH   3  22
TORSDOF 4
ENDMDL
MODEL 6
REMARK VINA RESULT:      -7.6      2.132      3.804
REMARK  4 active torsions:
REMARK  status: ('A' for Active; 'I' for Inactive)
REMARK    1  A    between atoms: C_8  and  N_9 
REMARK       I    between atoms: N_9  and  C_10 
REMARK       I    between atoms: C_10  and  N_11 
REMARK    2  A    between atoms: N_11  and  C_12 
REMARK    3  A    between atoms: C_14  and  C_15 
REMARK       I    between atoms: C_15  and  N_16 
REMARK    4  A    between atoms: N_16  and  C_17 
ROOT
HETATM    1  C   UNL     1      43.648 -18.371   1.769  1.00  0.00     0.037 A 
HETATM    2  C   UNL     1      43.804 -18.187   3.143  1.00  0.00     0.048 A 
HETATM    3  C   UNL     1      44.156 -19.260   3.982  1.00  0.00     0.055 A 
HETATM    4  C   UNL     1      44.395 -20.523   3.435  1.00  0.00     0.049 A 
HETATM    5 CL   UNL     1      44.769 -21.913   4.386  1.00  0.00    -0.083 Cl
HETATM    6  C   UNL     1      44.277 -20.703   2.054  1.00  0.00     0.027 A 
HETATM    7  C   UNL     1      43.906 -19.635   1.228  1.00  0.00     0.031 A 
ENDROOT
BRANCH   1   8
HETATM    8  N   UNL     1      43.231 -17.356   0.882  1.00  0.00    -0.309 N 
HETATM    9  C   UNL     1      41.974 -16.761   0.824  1.00  0.00     0.325 C 
HETATM   10  N   UNL     1      41.921 -15.825  -0.192  1.00  0.00    -0.305 N 
HETATM   11  O   UNL     1      41.043 -17.055   1.559  1.00  0.00    -0.247 OA
HETATM   12  H   UNL     1      42.777 -15.616  -0.677  1.00  0.00     0.171 HD
HETATM   13  H   UNL     1      43.871 -17.126   0.137  1.00  0.00     0.170 HD
BRANCH  10  14
HETATM   14  C   UNL     1      40.816 -15.093  -0.605  1.00  0.00     0.086 A 
HETATM   15  C   UNL     1      40.395 -15.108  -1.924  1.00  0.00     0.052 A 
HETATM   16  C   UNL     1      40.893 -15.806  -3.132  1.00  0.00     0.072 C 
HETATM   17  N   UNL     1      39.296 -14.301  -1.976  1.00  0.00    -0.280 N 
HETATM   18  H   UNL     1      38.719 -14.076  -2.780  1.00  0.00     0.189 HD
HETATM   19  N   UNL     1      38.965 -13.762  -0.802  1.00  0.00    -0.177 NA
HETATM   20  C   UNL     1      39.884 -14.235   0.054  1.00  0.00     0.079 A 
HETATM   21  C   UNL     1      39.783 -13.809   1.474  1.00  0.00     0.075 C 
ENDBRANCH  10  14
ENDBRANCH   1   8
BRANCH   3  22
HETATM   22  C   UNL     1      44.275 -18.994   5.436  1.00  0.00     0.253 C 
HETATM   23  N   UNL     1      44.211 -17.657   5.785  1.00  0.00    -0.352 N 
HETATM   24  H   UNL     1      44.055 -16.959   5.066  1.00  0.00     0.163 HD
HETATM   25  O   UNL     1      44.440 -19.913   6.228  1.00  0.00    -0.268 OA
BRANCH  23  26
HETATM   26  C   UNL     1      44.391 -17.209   7.127  1.00  0.00     0.084 A 
HETATM   27  C   UNL     1      43.790 -15.906   7.580  1.00  0.00     0.027 A 
HETATM   28  C   UNL     1      43.233 -17.204   8.090  1.00  0.00     0.027 A 
ENDBRANCH  23  26
ENDBRANCH   3  22
TORSDOF 4
ENDMDL
MODEL 7
REMARK VINA RESULT:      -7.6      3.010      7.980
REMARK  4 active torsions:
REMARK  status: ('A' for Active; 'I' for Inactive)
REMARK    1  A    between atoms: C_8  and  N_9 
REMARK       I    between atoms: N_9  and  C_10 
REMARK       I    between atoms: C_10  and  N_11 
REMARK    2  A    between atoms: N_11  and  C_12 
REMARK    3  A    between atoms: C_14  and  C_15 
REMARK       I    between atoms: C_15  and  N_16 
REMARK    4  A    between atoms: N_16  and  C_17 
ROOT
HETATM    1  C   UNL     1      40.515 -15.572   2.328  1.00  0.00     0.037 A 
HETATM    2  C   UNL     1      40.576 -15.396   0.945  1.00  0.00     0.048 A 
HETATM    3  C   UNL     1      40.020 -14.256   0.335  1.00  0.00     0.055 A 
HETATM    4  C   UNL     1      39.433 -13.262   1.121  1.00  0.00     0.049 A 
HETATM    5 CL   UNL     1      38.669 -11.861   0.464  1.00  0.00    -0.083 Cl
HETATM    6  C   UNL     1      39.404 -13.416   2.510  1.00  0.00     0.027 A 
HETATM    7  C   UNL     1      39.940 -14.563   3.108  1.00  0.00     0.031 A 
ENDROOT
BRANCH   1   8
HETATM    8  N   UNL     1      40.991 -16.721   2.996  1.00  0.00    -0.309 N 
HETATM    9  C   UNL     1      42.316 -17.126   3.120  1.00  0.00     0.325 C 
HETATM   10  N   UNL     1      42.401 -18.318   3.816  1.00  0.00    -0.305 N 
HETATM   11  O   UNL     1      43.265 -16.517   2.650  1.00  0.00    -0.247 OA
HETATM   12  H   UNL     1      41.555 -18.681   4.222  1.00  0.00     0.171 HD
HETATM   13  H   UNL     1      40.290 -17.375   3.308  1.00  0.00     0.170 HD
BRANCH  10  14
HETATM   14  C   UNL     1      43.543 -19.067   4.065  1.00  0.00     0.086 A 
HETATM   15  C   UNL     1      43.980 -20.031   3.172  1.00  0.00     0.052 A 
HETATM   16  C   UNL     1      43.466 -20.497   1.863  1.00  0.00     0.072 C 
HETATM   17  N   UNL     1      45.114 -20.559   3.715  1.00  0.00    -0.280 N 
HETATM   18  H   UNL     1      45.711 -21.288   3.338  1.00  0.00     0.189 HD
HETATM   19  N   UNL     1      45.454 -20.020   4.886  1.00  0.00    -0.177 NA
HETATM   20  C   UNL     1      44.504 -19.101   5.121  1.00  0.00     0.079 A 
HETATM   21  C   UNL     1      44.607 -18.312   6.375  1.00  0.00     0.075 C 
ENDBRANCH  10  14
ENDBRANCH   1   8
BRANCH   3  22
HETATM   22  C   UNL     1      40.097 -14.153  -1.142  1.00  0.00     0.253 C 
HETATM   23  N   UNL     1      38.953 -14.552  -1.809  1.00  0.00    -0.352 N 
HETATM   24  H   UNL     1      38.141 -14.846  -1.278  1.00  0.00     0.163 HD
HETATM   25  O   UNL     1      41.121 -13.762  -1.688  1.00  0.00    -0.268 OA
BRANCH  23  26
HETATM   26  C   UNL     1      38.877 -14.599  -3.233  1.00  0.00     0.084 A 
HETATM   27  C   UNL     1      39.158 -15.882  -3.966  1.00  0.00     0.027 A 
HETATM   28  C   UNL     1      37.758 -15.344  -3.911  1.00  0.00     0.027 A 
ENDBRANCH  23  26
ENDBRANCH   3  22
TORSDOF 4
ENDMDL
MODEL 8
REMARK VINA RESULT:      -7.5      2.289      4.244
REMARK  4 active torsions:
REMARK  status: ('A' for Active; 'I' for Inactive)
REMARK    1  A    between atoms: C_8  and  N_9 
REMARK       I    between atoms: N_9  and  C_10 
REMARK       I    between atoms: C_10  and  N_11 
REMARK    2  A    between atoms: N_11  and  C_12 
REMARK    3  A    between atoms: C_14  and  C_15 
REMARK       I    between atoms: C_15  and  N_16 
REMARK    4  A    between atoms: N_16  and  C_17 
ROOT
HETATM    1  C   UNL     1      43.312 -17.399   1.734  1.00  0.00     0.037 A 
HETATM    2  C   UNL     1      43.338 -16.894   3.035  1.00  0.00     0.048 A 
HETATM    3  C   UNL     1      43.633 -17.728   4.129  1.00  0.00     0.055 A 
HETATM    4  C   UNL     1      43.946 -19.073   3.916  1.00  0.00     0.049 A 
HETATM    5 CL   UNL     1      44.257 -20.188   5.195  1.00  0.00    -0.083 Cl
HETATM    6  C   UNL     1      43.958 -19.573   2.611  1.00  0.00     0.027 A 
HETATM    7  C   UNL     1      43.643 -18.742   1.528  1.00  0.00     0.031 A 
ENDROOT
BRANCH   1   8
HETATM    8  N   UNL     1      42.958 -16.635   0.601  1.00  0.00    -0.309 N 
HETATM    9  C   UNL     1      41.724 -16.044   0.343  1.00  0.00     0.325 C 
HETATM   10  N   UNL     1      41.736 -15.399  -0.879  1.00  0.00    -0.305 N 
HETATM   11  O   UNL     1      40.761 -16.117   1.091  1.00  0.00    -0.247 OA
HETATM   12  H   UNL     1      42.614 -15.342  -1.367  1.00  0.00     0.171 HD
HETATM   13  H   UNL     1      43.629 -16.619  -0.151  1.00  0.00     0.170 HD
BRANCH  10  14
HETATM   14  C   UNL     1      40.670 -14.770  -1.509  1.00  0.00     0.086 A 
HETATM   15  C   UNL     1      40.204 -13.540  -1.078  1.00  0.00     0.052 A 
HETATM   16  C   UNL     1      40.625 -12.630   0.013  1.00  0.00     0.072 C 
HETATM   17  N   UNL     1      39.174 -13.214  -1.912  1.00  0.00    -0.280 N 
HETATM   18  H   UNL     1      38.596 -12.382  -1.901  1.00  0.00     0.189 HD
HETATM   19  N   UNL     1      38.932 -14.129  -2.852  1.00  0.00    -0.177 NA
HETATM   20  C   UNL     1      39.838 -15.092  -2.624  1.00  0.00     0.079 A 
HETATM   21  C   UNL     1      39.827 -16.273  -3.526  1.00  0.00     0.075 C 
ENDBRANCH  10  14
ENDBRANCH   1   8
BRANCH   3  22
HETATM   22  C   UNL     1      43.613 -17.127   5.484  1.00  0.00     0.253 C 
HETATM   23  N   UNL     1      43.859 -15.766   5.515  1.00  0.00    -0.352 N 
HETATM   24  H   UNL     1      43.996 -15.262   4.646  1.00  0.00     0.163 HD
HETATM   25  O   UNL     1      43.415 -17.822   6.472  1.00  0.00    -0.268 OA
BRANCH  23  26
HETATM   26  C   UNL     1      43.961 -15.036   6.737  1.00  0.00     0.084 A 
HETATM   27  C   UNL     1      45.099 -14.077   6.957  1.00  0.00     0.027 A 
HETATM   28  C   UNL     1      43.706 -13.553   6.762  1.00  0.00     0.027 A 
ENDBRANCH  23  26
ENDBRANCH   3  22
TORSDOF 4
ENDMDL
MODEL 9
REMARK VINA RESULT:      -7.4      2.392      3.713
REMARK  4 active torsions:
REMARK  status: ('A' for Active; 'I' for Inactive)
REMARK    1  A    between atoms: C_8  and  N_9 
REMARK       I    between atoms: N_9  and  C_10 
REMARK       I    between atoms: C_10  and  N_11 
REMARK    2  A    between atoms: N_11  and  C_12 
REMARK    3  A    between atoms: C_14  and  C_15 
REMARK       I    between atoms: C_15  and  N_16 
REMARK    4  A    between atoms: N_16  and  C_17 
ROOT
HETATM    1  C   UNL     1      41.979 -17.220   1.283  1.00  0.00     0.037 A 
HETATM    2  C   UNL     1      41.642 -17.257   2.637  1.00  0.00     0.048 A 
HETATM    3  C   UNL     1      42.458 -17.927   3.567  1.00  0.00     0.055 A 
HETATM    4  C   UNL     1      43.644 -18.531   3.146  1.00  0.00     0.049 A 
HETATM    5 CL   UNL     1      44.676 -19.430   4.197  1.00  0.00    -0.083 Cl
HETATM    6  C   UNL     1      44.004 -18.463   1.797  1.00  0.00     0.027 A 
HETATM    7  C   UNL     1      43.178 -17.813   0.873  1.00  0.00     0.031 A 
ENDROOT
BRANCH   1   8
HETATM    8  N   UNL     1      41.173 -16.625   0.289  1.00  0.00    -0.309 N 
HETATM    9  C   UNL     1      41.052 -15.266   0.013  1.00  0.00     0.325 C 
HETATM   10  N   UNL     1      40.148 -15.052  -1.010  1.00  0.00    -0.305 N 
HETATM   11  O   UNL     1      41.649 -14.389   0.620  1.00  0.00    -0.247 OA
HETATM   12  H   UNL     1      39.781 -15.861  -1.484  1.00  0.00     0.171 HD
HETATM   13  H   UNL     1      40.529 -17.238  -0.187  1.00  0.00     0.170 HD
BRANCH  10  14
HETATM   14  C   UNL     1      39.707 -13.831  -1.503  1.00  0.00     0.086 A 
HETATM   15  C   UNL     1      40.332 -13.222  -2.578  1.00  0.00     0.052 A 
HETATM   16  C   UNL     1      41.481 -13.612  -3.428  1.00  0.00     0.072 C 
HETATM   17  N   UNL     1      39.649 -12.062  -2.801  1.00  0.00    -0.280 N 
HETATM   18  H   UNL     1      39.819 -11.359  -3.512  1.00  0.00     0.189 HD
HETATM   19  N   UNL     1      38.630 -11.865  -1.963  1.00  0.00    -0.177 NA
HETATM   20  C   UNL     1      38.647 -12.939  -1.157  1.00  0.00     0.079 A 
HETATM   21  C   UNL     1      37.611 -13.017  -0.096  1.00  0.00     0.075 C 
ENDBRANCH  10  14
ENDBRANCH   1   8
BRANCH   3  22
HETATM   22  C   UNL     1      42.020 -17.949   4.984  1.00  0.00     0.253 C 
HETATM   23  N   UNL     1      43.027 -17.715   5.903  1.00  0.00    -0.352 N 
HETATM   24  H   UNL     1      43.964 -17.509   5.577  1.00  0.00     0.163 HD
HETATM   25  O   UNL     1      40.854 -18.185   5.273  1.00  0.00    -0.268 OA
BRANCH  23  26
HETATM   26  C   UNL     1      42.805 -17.781   7.311  1.00  0.00     0.084 A 
HETATM   27  C   UNL     1      43.901 -18.245   8.231  1.00  0.00     0.027 A 
HETATM   28  C   UNL     1      43.482 -16.804   8.235  1.00  0.00     0.027 A 
ENDBRANCH  23  26
ENDBRANCH   3  22
TORSDOF 4
ENDMDL
MODEL 10
REMARK VINA RESULT:      -7.4      2.706      4.373
REMARK  4 active torsions:
REMARK  status: ('A' for Active; 'I' for Inactive)
REMARK    1  A    between atoms: C_8  and  N_9 
REMARK       I    between atoms: N_9  and  C_10 
REMARK       I    between atoms: C_10  and  N_11 
REMARK    2  A    between atoms: N_11  and  C_12 
REMARK    3  A    between atoms: C_14  and  C_15 
REMARK       I    between atoms: C_15  and  N_16 
REMARK    4  A    between atoms: N_16  and  C_17 
ROOT
HETATM    1  C   UNL     1      42.626 -16.509   0.945  1.00  0.00     0.037 A 
HETATM    2  C   UNL     1      42.479 -15.851   2.167  1.00  0.00     0.048 A 
HETATM    3  C   UNL     1      42.924 -16.441   3.365  1.00  0.00     0.055 A 
HETATM    4  C   UNL     1      43.560 -17.684   3.335  1.00  0.00     0.049 A 
HETATM    5 CL   UNL     1      44.083 -18.516   4.753  1.00  0.00    -0.083 Cl
HETATM    6  C   UNL     1      43.743 -18.329   2.109  1.00  0.00     0.027 A 
HETATM    7  C   UNL     1      43.279 -17.746   0.923  1.00  0.00     0.031 A 
ENDROOT
BRANCH   1   8
HETATM    8  N   UNL     1      42.142 -16.006  -0.282  1.00  0.00    -0.309 N 
HETATM    9  C   UNL     1      40.980 -15.267  -0.482  1.00  0.00     0.325 C 
HETATM   10  N   UNL     1      40.811 -14.973  -1.822  1.00  0.00    -0.305 N 
HETATM   11  O   UNL     1      40.207 -14.951   0.411  1.00  0.00    -0.247 OA
HETATM   12  H   UNL     1      41.557 -15.220  -2.450  1.00  0.00     0.171 HD
HETATM   13  H   UNL     1      42.623 -16.319  -1.111  1.00  0.00     0.170 HD
BRANCH  10  14
HETATM   14  C   UNL     1      39.734 -14.326  -2.413  1.00  0.00     0.086 A 
HETATM   15  C   UNL     1      39.004 -14.923  -3.426  1.00  0.00     0.052 A 
HETATM   16  C   UNL     1      39.105 -16.239  -4.099  1.00  0.00     0.072 C 
HETATM   17  N   UNL     1      38.029 -14.029  -3.763  1.00  0.00    -0.280 N 
HETATM   18  H   UNL     1      37.304 -14.126  -4.466  1.00  0.00     0.189 HD
HETATM   19  N   UNL     1      38.062 -12.901  -3.053  1.00  0.00    -0.177 NA
HETATM   20  C   UNL     1      39.100 -13.061  -2.218  1.00  0.00     0.079 A 
HETATM   21  C   UNL     1      39.401 -11.952  -1.276  1.00  0.00     0.075 C 
ENDBRANCH  10  14
ENDBRANCH   1   8
BRANCH   3  22
HETATM   22  C   UNL     1      42.707 -15.695   4.628  1.00  0.00     0.253 C 
HETATM   23  N   UNL     1      43.768 -14.895   5.015  1.00  0.00    -0.352 N 
HETATM   24  H   UNL     1      44.589 -14.832   4.423  1.00  0.00     0.163 HD
HETATM   25  O   UNL     1      41.666 -15.824   5.258  1.00  0.00    -0.268 OA
BRANCH  23  26
HETATM   26  C   UNL     1      43.769 -14.171   6.244  1.00  0.00     0.084 A 
HETATM   27  C   UNL     1      44.228 -14.832   7.515  1.00  0.00     0.027 A 
HETATM   28  C   UNL     1      45.068 -13.759   6.884  1.00  0.00     0.027 A 
ENDBRANCH  23  26
ENDBRANCH   3  22
TORSDOF 4
ENDMDL
