MODEL 1
REMARK VINA RESULT:      -6.9      0.000      0.000
REMARK  5 active torsions:
REMARK  status: ('A' for Active; 'I' for Inactive)
REMARK    1  A    between atoms: C_2  and  C_3 
REMARK    2  A    between atoms: C_3  and  N_4 
REMARK    3  A    between atoms: C_3  and  C_14 
REMARK       I    between atoms: N_4  and  C_5 
REMARK    4  A    between atoms: C_5  and  C_6 
REMARK    5  A    between atoms: C_17  and  O_18 
ROOT
HETATM    1  C   UNL     1      43.687 -17.223   5.863  1.00  0.00     0.117 C 
ENDROOT
BRANCH   1   2
HETATM    2  C   UNL     1      42.784 -17.567   7.063  1.00  0.00     0.025 C 
HETATM    3  C   UNL     1      43.430 -17.264   8.409  1.00  0.00     0.007 C 
ENDBRANCH   1   2
BRANCH   1   4
HETATM    4  N   UNL     1      43.076 -16.225   4.994  1.00  0.00    -0.348 N 
HETATM    5  C   UNL     1      43.250 -14.872   5.186  1.00  0.00     0.253 C 
HETATM    6  O   UNL     1      43.917 -14.394   6.095  1.00  0.00    -0.268 OA
HETATM    7  H   UNL     1      42.414 -16.559   4.312  1.00  0.00     0.163 HD
BRANCH   5   8
HETATM    8  C   UNL     1      42.545 -13.972   4.241  1.00  0.00     0.050 A 
HETATM    9  C   UNL     1      43.122 -13.735   2.997  1.00  0.00     0.133 A 
HETATM   10  N   UNL     1      42.582 -12.921   2.054  1.00  0.00    -0.271 NA
HETATM   11  C   UNL     1      41.405 -12.331   2.364  1.00  0.00     0.135 A 
HETATM   12  C   UNL     1      40.747 -12.524   3.570  1.00  0.00     0.029 A 
HETATM   13 BR   UNL     1      39.101 -11.669   3.915  1.00  0.00    -0.050 Br
HETATM   14  C   UNL     1      41.320 -13.361   4.524  1.00  0.00     0.039 A 
ENDBRANCH   5   8
ENDBRANCH   1   4
BRANCH   1  15
HETATM   15  C   UNL     1      44.008 -18.469   5.050  1.00  0.00    -0.035 A 
HETATM   16  C   UNL     1      43.764 -18.480   3.670  1.00  0.00     0.012 A 
HETATM   17  C   UNL     1      44.046 -19.616   2.907  1.00  0.00     0.037 A 
HETATM   18  C   UNL     1      44.564 -20.767   3.503  1.00  0.00     0.068 A 
HETATM   19  C   UNL     1      44.818 -20.765   4.873  1.00  0.00     0.037 A 
HETATM   20  C   UNL     1      44.546 -19.625   5.639  1.00  0.00     0.012 A 
BRANCH  18  21
HETATM   21  O   UNL     1      44.785 -21.807   2.644  1.00  0.00    -0.356 OA
HETATM   22  C   UNL     1      43.949 -21.881   1.498  1.00  0.00     0.210 C 
ENDBRANCH  18  21
ENDBRANCH   1  15
TORSDOF 5
ENDMDL
MODEL 2
REMARK VINA RESULT:      -6.9      3.263      4.966
REMARK  5 active torsions:
REMARK  status: ('A' for Active; 'I' for Inactive)
REMARK    1  A    between atoms: C_2  and  C_3 
REMARK    2  A    between atoms: C_3  and  N_4 
REMARK    3  A    between atoms: C_3  and  C_14 
REMARK       I    between atoms: N_4  and  C_5 
REMARK    4  A    between atoms: C_5  and  C_6 
REMARK    5  A    between atoms: C_17  and  O_18 
ROOT
HETATM    1  C   UNL     1      42.868 -19.057   2.401  1.00  0.00     0.117 C 
ENDROOT
BRANCH   1   2
HETATM    2  C   UNL     1      43.891 -19.958   1.683  1.00  0.00     0.025 C 
HETATM    3  C   UNL     1      43.504 -21.432   1.687  1.00  0.00     0.007 C 
ENDBRANCH   1   2
BRANCH   1   4
HETATM    4  N   UNL     1      42.730 -17.763   1.744  1.00  0.00    -0.348 N 
HETATM    5  C   UNL     1      41.559 -17.362   1.140  1.00  0.00     0.253 C 
HETATM    6  O   UNL     1      40.547 -18.049   1.096  1.00  0.00    -0.268 OA
HETATM    7  H   UNL     1      43.569 -17.215   1.638  1.00  0.00     0.163 HD
BRANCH   5   8
HETATM    8  C   UNL     1      41.573 -16.031   0.486  1.00  0.00     0.050 A 
HETATM    9  C   UNL     1      41.910 -14.920   1.253  1.00  0.00     0.133 A 
HETATM   10  N   UNL     1      41.944 -13.650   0.774  1.00  0.00    -0.271 NA
HETATM   11  C   UNL     1      41.642 -13.488  -0.534  1.00  0.00     0.135 A 
HETATM   12  C   UNL     1      41.313 -14.537  -1.380  1.00  0.00     0.029 A 
HETATM   13 BR   UNL     1      40.915 -14.222  -3.196  1.00  0.00    -0.050 Br
HETATM   14  C   UNL     1      41.282 -15.831  -0.866  1.00  0.00     0.039 A 
ENDBRANCH   5   8
ENDBRANCH   1   4
BRANCH   1  15
HETATM   15  C   UNL     1      43.260 -18.844   3.856  1.00  0.00    -0.035 A 
HETATM   16  C   UNL     1      42.375 -18.192   4.726  1.00  0.00     0.012 A 
HETATM   17  C   UNL     1      42.719 -17.981   6.064  1.00  0.00     0.037 A 
HETATM   18  C   UNL     1      43.954 -18.402   6.559  1.00  0.00     0.068 A 
HETATM   19  C   UNL     1      44.839 -19.057   5.705  1.00  0.00     0.037 A 
HETATM   20  C   UNL     1      44.494 -19.280   4.366  1.00  0.00     0.012 A 
BRANCH  18  21
HETATM   21  O   UNL     1      44.166 -18.124   7.881  1.00  0.00    -0.356 OA
HETATM   22  C   UNL     1      43.377 -17.090   8.453  1.00  0.00     0.210 C 
ENDBRANCH  18  21
ENDBRANCH   1  15
TORSDOF 5
ENDMDL
MODEL 3
REMARK VINA RESULT:      -6.8      2.532      2.947
REMARK  5 active torsions:
REMARK  status: ('A' for Active; 'I' for Inactive)
REMARK    1  A    between atoms: C_2  and  C_3 
REMARK    2  A    between atoms: C_3  and  N_4 
REMARK    3  A    between atoms: C_3  and  C_14 
REMARK       I    between atoms: N_4  and  C_5 
REMARK    4  A    between atoms: C_5  and  C_6 
REMARK    5  A    between atoms: C_17  and  O_18 
ROOT
HETATM    1  C   UNL     1      43.173 -16.235   4.335  1.00  0.00     0.117 C 
ENDROOT
BRANCH   1   2
HETATM    2  C   UNL     1      42.355 -16.151   5.638  1.00  0.00     0.025 C 
HETATM    3  C   UNL     1      41.006 -16.854   5.550  1.00  0.00     0.007 C 
ENDBRANCH   1   2
BRANCH   1   4
HETATM    4  N   UNL     1      42.420 -15.736   3.190  1.00  0.00    -0.348 N 
HETATM    5  C   UNL     1      42.687 -14.520   2.602  1.00  0.00     0.253 C 
HETATM    6  O   UNL     1      43.564 -13.756   2.988  1.00  0.00    -0.268 OA
HETATM    7  H   UNL     1      41.606 -16.264   2.916  1.00  0.00     0.163 HD
BRANCH   5   8
HETATM    8  C   UNL     1      41.822 -14.130   1.463  1.00  0.00     0.050 A 
HETATM    9  C   UNL     1      41.032 -12.991   1.591  1.00  0.00     0.133 A 
HETATM   10  N   UNL     1      40.190 -12.541   0.626  1.00  0.00    -0.271 NA
HETATM   11  C   UNL     1      40.147 -13.254  -0.523  1.00  0.00     0.135 A 
HETATM   12  C   UNL     1      40.912 -14.390  -0.747  1.00  0.00     0.029 A 
HETATM   13 BR   UNL     1      40.798 -15.318  -2.385  1.00  0.00    -0.050 Br
HETATM   14  C   UNL     1      41.767 -14.835   0.257  1.00  0.00     0.039 A 
ENDBRANCH   5   8
ENDBRANCH   1   4
BRANCH   1  15
HETATM   15  C   UNL     1      43.616 -17.665   4.063  1.00  0.00    -0.035 A 
HETATM   16  C   UNL     1      43.317 -18.262   2.831  1.00  0.00     0.012 A 
HETATM   17  C   UNL     1      43.709 -19.576   2.563  1.00  0.00     0.037 A 
HETATM   18  C   UNL     1      44.394 -20.326   3.521  1.00  0.00     0.068 A 
HETATM   19  C   UNL     1      44.702 -19.740   4.747  1.00  0.00     0.037 A 
HETATM   20  C   UNL     1      44.320 -18.420   5.014  1.00  0.00     0.012 A 
BRANCH  18  21
HETATM   21  O   UNL     1      44.709 -21.599   3.134  1.00  0.00    -0.356 OA
HETATM   22  C   UNL     1      44.318 -21.986   1.824  1.00  0.00     0.210 C 
ENDBRANCH  18  21
ENDBRANCH   1  15
TORSDOF 5
ENDMDL
MODEL 4
REMARK VINA RESULT:      -6.7      1.981      2.353
REMARK  5 active torsions:
REMARK  status: ('A' for Active; 'I' for Inactive)
REMARK    1  A    between atoms: C_2  and  C_3 
REMARK    2  A    between atoms: C_3  and  N_4 
REMARK    3  A    between atoms: C_3  and  C_14 
REMARK       I    between atoms: N_4  and  C_5 
REMARK    4  A    between atoms: C_5  and  C_6 
REMARK    5  A    between atoms: C_17  and  O_18 
ROOT
HETATM    1  C   UNL     1      43.154 -16.101   4.433  1.00  0.00     0.117 C 
ENDROOT
BRANCH   1   2
HETATM    2  C   UNL     1      42.444 -16.170   5.799  1.00  0.00     0.025 C 
HETATM    3  C   UNL     1      41.011 -16.682   5.709  1.00  0.00     0.007 C 
ENDBRANCH   1   2
BRANCH   1   4
HETATM    4  N   UNL     1      42.299 -15.514   3.408  1.00  0.00    -0.348 N 
HETATM    5  C   UNL     1      42.583 -14.306   2.811  1.00  0.00     0.253 C 
HETATM    6  O   UNL     1      43.561 -13.624   3.089  1.00  0.00    -0.268 OA
HETATM    7  H   UNL     1      41.416 -15.969   3.236  1.00  0.00     0.163 HD
BRANCH   5   8
HETATM    8  C   UNL     1      41.609 -13.818   1.805  1.00  0.00     0.050 A 
HETATM    9  C   UNL     1      42.066 -12.980   0.792  1.00  0.00     0.133 A 
HETATM   10  N   UNL     1      41.272 -12.458  -0.177  1.00  0.00    -0.271 NA
HETATM   11  C   UNL     1      39.964 -12.802  -0.138  1.00  0.00     0.135 A 
HETATM   12  C   UNL     1      39.422 -13.646   0.820  1.00  0.00     0.029 A 
HETATM   13 BR   UNL     1      37.588 -14.083   0.792  1.00  0.00    -0.050 Br
HETATM   14  C   UNL     1      40.256 -14.168   1.806  1.00  0.00     0.039 A 
ENDBRANCH   5   8
ENDBRANCH   1   4
BRANCH   1  15
HETATM   15  C   UNL     1      43.602 -17.484   3.983  1.00  0.00    -0.035 A 
HETATM   16  C   UNL     1      43.442 -17.865   2.644  1.00  0.00     0.012 A 
HETATM   17  C   UNL     1      43.842 -19.132   2.212  1.00  0.00     0.037 A 
HETATM   18  C   UNL     1      44.397 -20.049   3.106  1.00  0.00     0.068 A 
HETATM   19  C   UNL     1      44.568 -19.679   4.439  1.00  0.00     0.037 A 
HETATM   20  C   UNL     1      44.178 -18.406   4.872  1.00  0.00     0.012 A 
BRANCH  18  21
HETATM   21  O   UNL     1      44.735 -21.254   2.555  1.00  0.00    -0.356 OA
HETATM   22  C   UNL     1      43.819 -21.813   1.624  1.00  0.00     0.210 C 
ENDBRANCH  18  21
ENDBRANCH   1  15
TORSDOF 5
ENDMDL
MODEL 5
REMARK VINA RESULT:      -6.7      2.689      3.960
REMARK  5 active torsions:
REMARK  status: ('A' for Active; 'I' for Inactive)
REMARK    1  A    between atoms: C_2  and  C_3 
REMARK    2  A    between atoms: C_3  and  N_4 
REMARK    3  A    between atoms: C_3  and  C_14 
REMARK       I    between atoms: N_4  and  C_5 
REMARK    4  A    between atoms: C_5  and  C_6 
REMARK    5  A    between atoms: C_17  and  O_18 
ROOT
HETATM    1  C   UNL     1      42.269 -17.545   2.145  1.00  0.00     0.117 C 
ENDROOT
BRANCH   1   2
HETATM    2  C   UNL     1      42.682 -17.086   0.733  1.00  0.00     0.025 C 
HETATM    3  C   UNL     1      41.541 -16.453  -0.053  1.00  0.00     0.007 C 
ENDBRANCH   1   2
BRANCH   1   4
HETATM    4  N   UNL     1      42.513 -16.511   3.144  1.00  0.00    -0.348 N 
HETATM    5  C   UNL     1      41.530 -15.642   3.564  1.00  0.00     0.253 C 
HETATM    6  O   UNL     1      40.383 -15.656   3.137  1.00  0.00    -0.268 OA
HETATM    7  H   UNL     1      43.469 -16.372   3.430  1.00  0.00     0.163 HD
BRANCH   5   8
HETATM    8  C   UNL     1      41.930 -14.623   4.564  1.00  0.00     0.050 A 
HETATM    9  C   UNL     1      41.094 -13.529   4.765  1.00  0.00     0.133 A 
HETATM   10  N   UNL     1      41.358 -12.525   5.640  1.00  0.00    -0.271 NA
HETATM   11  C   UNL     1      42.501 -12.629   6.356  1.00  0.00     0.135 A 
HETATM   12  C   UNL     1      43.384 -13.692   6.237  1.00  0.00     0.029 A 
HETATM   13 BR   UNL     1      44.951 -13.763   7.284  1.00  0.00    -0.050 Br
HETATM   14  C   UNL     1      43.095 -14.710   5.332  1.00  0.00     0.039 A 
ENDBRANCH   5   8
ENDBRANCH   1   4
BRANCH   1  15
HETATM   15  C   UNL     1      43.009 -18.814   2.542  1.00  0.00    -0.035 A 
HETATM   16  C   UNL     1      43.656 -18.881   3.783  1.00  0.00     0.012 A 
HETATM   17  C   UNL     1      44.347 -20.034   4.164  1.00  0.00     0.037 A 
HETATM   18  C   UNL     1      44.417 -21.138   3.313  1.00  0.00     0.068 A 
HETATM   19  C   UNL     1      43.772 -21.086   2.079  1.00  0.00     0.037 A 
HETATM   20  C   UNL     1      43.070 -19.935   1.699  1.00  0.00     0.012 A 
BRANCH  18  21
HETATM   21  O   UNL     1      45.131 -22.196   3.805  1.00  0.00    -0.356 OA
HETATM   22  C   UNL     1      45.133 -22.368   5.215  1.00  0.00     0.210 C 
ENDBRANCH  18  21
ENDBRANCH   1  15
TORSDOF 5
ENDMDL
MODEL 6
REMARK VINA RESULT:      -6.6      3.798      4.638
REMARK  5 active torsions:
REMARK  status: ('A' for Active; 'I' for Inactive)
REMARK    1  A    between atoms: C_2  and  C_3 
REMARK    2  A    between atoms: C_3  and  N_4 
REMARK    3  A    between atoms: C_3  and  C_14 
REMARK       I    between atoms: N_4  and  C_5 
REMARK    4  A    between atoms: C_5  and  C_6 
REMARK    5  A    between atoms: C_17  and  O_18 
ROOT
HETATM    1  C   UNL     1      42.028 -15.742   2.526  1.00  0.00     0.117 C 
ENDROOT
BRANCH   1   2
HETATM    2  C   UNL     1      40.736 -15.711   3.365  1.00  0.00     0.025 C 
HETATM    3  C   UNL     1      40.690 -14.557   4.359  1.00  0.00     0.007 C 
ENDBRANCH   1   2
BRANCH   1   4
HETATM    4  N   UNL     1      41.764 -15.489   1.115  1.00  0.00    -0.348 N 
HETATM    5  C   UNL     1      41.943 -14.250   0.540  1.00  0.00     0.253 C 
HETATM    6  O   UNL     1      42.328 -13.264   1.155  1.00  0.00    -0.268 OA
HETATM    7  H   UNL     1      41.323 -16.230   0.594  1.00  0.00     0.163 HD
BRANCH   5   8
HETATM    8  C   UNL     1      41.607 -14.133  -0.900  1.00  0.00     0.050 A 
HETATM    9  C   UNL     1      42.192 -13.105  -1.635  1.00  0.00     0.133 A 
HETATM   10  N   UNL     1      41.953 -12.886  -2.953  1.00  0.00    -0.271 NA
HETATM   11  C   UNL     1      41.103 -13.742  -3.566  1.00  0.00     0.135 A 
HETATM   12  C   UNL     1      40.490 -14.805  -2.920  1.00  0.00     0.029 A 
HETATM   13 BR   UNL     1      39.326 -15.957  -3.855  1.00  0.00    -0.050 Br
HETATM   14  C   UNL     1      40.747 -15.010  -1.567  1.00  0.00     0.039 A 
ENDBRANCH   5   8
ENDBRANCH   1   4
BRANCH   1  15
HETATM   15  C   UNL     1      42.739 -17.080   2.673  1.00  0.00    -0.035 A 
HETATM   16  C   UNL     1      43.006 -17.853   1.536  1.00  0.00     0.012 A 
HETATM   17  C   UNL     1      43.652 -19.087   1.650  1.00  0.00     0.037 A 
HETATM   18  C   UNL     1      44.033 -19.580   2.898  1.00  0.00     0.068 A 
HETATM   19  C   UNL     1      43.779 -18.817   4.036  1.00  0.00     0.037 A 
HETATM   20  C   UNL     1      43.141 -17.575   3.924  1.00  0.00     0.012 A 
BRANCH  18  21
HETATM   21  O   UNL     1      44.647 -20.802   2.868  1.00  0.00    -0.356 OA
HETATM   22  C   UNL     1      44.160 -21.741   1.920  1.00  0.00     0.210 C 
ENDBRANCH  18  21
ENDBRANCH   1  15
TORSDOF 5
ENDMDL
MODEL 7
REMARK VINA RESULT:      -6.6      3.392      5.506
REMARK  5 active torsions:
REMARK  status: ('A' for Active; 'I' for Inactive)
REMARK    1  A    between atoms: C_2  and  C_3 
REMARK    2  A    between atoms: C_3  and  N_4 
REMARK    3  A    between atoms: C_3  and  C_14 
REMARK       I    between atoms: N_4  and  C_5 
REMARK    4  A    between atoms: C_5  and  C_6 
REMARK    5  A    between atoms: C_17  and  O_18 
ROOT
HETATM    1  C   UNL     1      42.785 -17.470   3.120  1.00  0.00     0.117 C 
ENDROOT
BRANCH   1   2
HETATM    2  C   UNL     1      43.944 -18.226   2.443  1.00  0.00     0.025 C 
HETATM    3  C   UNL     1      43.660 -19.709   2.240  1.00  0.00     0.007 C 
ENDBRANCH   1   2
BRANCH   1   4
HETATM    4  N   UNL     1      42.210 -16.459   2.239  1.00  0.00    -0.348 N 
HETATM    5  C   UNL     1      41.241 -16.756   1.307  1.00  0.00     0.253 C 
HETATM    6  O   UNL     1      40.787 -17.880   1.132  1.00  0.00    -0.268 OA
HETATM    7  H   UNL     1      42.639 -15.548   2.251  1.00  0.00     0.163 HD
BRANCH   5   8
HETATM    8  C   UNL     1      40.769 -15.634   0.461  1.00  0.00     0.050 A 
HETATM    9  C   UNL     1      39.893 -14.707   1.018  1.00  0.00     0.133 A 
HETATM   10  N   UNL     1      39.381 -13.646   0.343  1.00  0.00    -0.271 NA
HETATM   11  C   UNL     1      39.775 -13.500  -0.943  1.00  0.00     0.135 A 
HETATM   12  C   UNL     1      40.658 -14.361  -1.576  1.00  0.00     0.029 A 
HETATM   13 BR   UNL     1      41.162 -14.074  -3.371  1.00  0.00    -0.050 Br
HETATM   14  C   UNL     1      41.170 -15.444  -0.865  1.00  0.00     0.039 A 
ENDBRANCH   5   8
ENDBRANCH   1   4
BRANCH   1  15
HETATM   15  C   UNL     1      43.247 -16.809   4.410  1.00  0.00    -0.035 A 
HETATM   16  C   UNL     1      43.013 -15.443   4.614  1.00  0.00     0.012 A 
HETATM   17  C   UNL     1      43.435 -14.815   5.789  1.00  0.00     0.037 A 
HETATM   18  C   UNL     1      44.109 -15.533   6.778  1.00  0.00     0.068 A 
HETATM   19  C   UNL     1      44.342 -16.893   6.590  1.00  0.00     0.037 A 
HETATM   20  C   UNL     1      43.911 -17.527   5.418  1.00  0.00     0.012 A 
BRANCH  18  21
HETATM   21  O   UNL     1      44.474 -14.796   7.871  1.00  0.00    -0.356 OA
HETATM   22  C   UNL     1      45.023 -13.509   7.624  1.00  0.00     0.210 C 
ENDBRANCH  18  21
ENDBRANCH   1  15
TORSDOF 5
ENDMDL
MODEL 8
REMARK VINA RESULT:      -6.4      2.704      4.011
REMARK  5 active torsions:
REMARK  status: ('A' for Active; 'I' for Inactive)
REMARK    1  A    between atoms: C_2  and  C_3 
REMARK    2  A    between atoms: C_3  and  N_4 
REMARK    3  A    between atoms: C_3  and  C_14 
REMARK       I    between atoms: N_4  and  C_5 
REMARK    4  A    between atoms: C_5  and  C_6 
REMARK    5  A    between atoms: C_17  and  O_18 
ROOT
HETATM    1  C   UNL     1      41.694 -16.894   1.948  1.00  0.00     0.117 C 
ENDROOT
BRANCH   1   2
HETATM    2  C   UNL     1      42.371 -16.326   0.687  1.00  0.00     0.025 C 
HETATM    3  C   UNL     1      41.408 -16.129  -0.478  1.00  0.00     0.007 C 
ENDBRANCH   1   2
BRANCH   1   4
HETATM    4  N   UNL     1      41.315 -15.839   2.882  1.00  0.00    -0.348 N 
HETATM    5  C   UNL     1      40.078 -15.233   2.849  1.00  0.00     0.253 C 
HETATM    6  O   UNL     1      39.203 -15.518   2.042  1.00  0.00    -0.268 OA
HETATM    7  H   UNL     1      42.040 -15.478   3.480  1.00  0.00     0.163 HD
BRANCH   5   8
HETATM    8  C   UNL     1      39.842 -14.157   3.841  1.00  0.00     0.050 A 
HETATM    9  C   UNL     1      40.089 -14.427   5.184  1.00  0.00     0.133 A 
HETATM   10  N   UNL     1      39.898 -13.531   6.185  1.00  0.00    -0.271 NA
HETATM   11  C   UNL     1      39.454 -12.305   5.824  1.00  0.00     0.135 A 
HETATM   12  C   UNL     1      39.199 -11.939   4.511  1.00  0.00     0.029 A 
HETATM   13 BR   UNL     1      38.592 -10.202   4.096  1.00  0.00    -0.050 Br
HETATM   14  C   UNL     1      39.400 -12.875   3.500  1.00  0.00     0.039 A 
ENDBRANCH   5   8
ENDBRANCH   1   4
BRANCH   1  15
HETATM   15  C   UNL     1      42.606 -17.886   2.654  1.00  0.00    -0.035 A 
HETATM   16  C   UNL     1      42.875 -17.733   4.021  1.00  0.00     0.012 A 
HETATM   17  C   UNL     1      43.716 -18.629   4.686  1.00  0.00     0.037 A 
HETATM   18  C   UNL     1      44.314 -19.689   4.002  1.00  0.00     0.068 A 
HETATM   19  C   UNL     1      44.048 -19.856   2.644  1.00  0.00     0.037 A 
HETATM   20  C   UNL     1      43.199 -18.965   1.977  1.00  0.00     0.012 A 
BRANCH  18  21
HETATM   21  O   UNL     1      45.119 -20.484   4.769  1.00  0.00    -0.356 OA
HETATM   22  C   UNL     1      44.862 -21.881   4.734  1.00  0.00     0.210 C 
ENDBRANCH  18  21
ENDBRANCH   1  15
TORSDOF 5
ENDMDL
MODEL 9
REMARK VINA RESULT:      -6.4      2.011      2.437
REMARK  5 active torsions:
REMARK  status: ('A' for Active; 'I' for Inactive)
REMARK    1  A    between atoms: C_2  and  C_3 
REMARK    2  A    between atoms: C_3  and  N_4 
REMARK    3  A    between atoms: C_3  and  C_14 
REMARK       I    between atoms: N_4  and  C_5 
REMARK    4  A    between atoms: C_5  and  C_6 
REMARK    5  A    between atoms: C_17  and  O_18 
ROOT
HETATM    1  C   UNL     1      43.354 -15.871   4.506  1.00  0.00     0.117 C 
ENDROOT
BRANCH   1   2
HETATM    2  C   UNL     1      43.337 -16.061   6.035  1.00  0.00     0.025 C 
HETATM    3  C   UNL     1      44.367 -15.205   6.761  1.00  0.00     0.007 C 
ENDBRANCH   1   2
BRANCH   1   4
HETATM    4  N   UNL     1      42.180 -15.144   4.037  1.00  0.00    -0.348 N 
HETATM    5  C   UNL     1      42.274 -13.962   3.336  1.00  0.00     0.253 C 
HETATM    6  O   UNL     1      43.336 -13.421   3.055  1.00  0.00    -0.268 OA
HETATM    7  H   UNL     1      41.283 -15.475   4.353  1.00  0.00     0.163 HD
BRANCH   5   8
HETATM    8  C   UNL     1      40.996 -13.319   2.947  1.00  0.00     0.050 A 
HETATM    9  C   UNL     1      40.733 -12.033   3.412  1.00  0.00     0.133 A 
HETATM   10  N   UNL     1      39.594 -11.346   3.138  1.00  0.00    -0.271 NA
HETATM   11  C   UNL     1      38.686 -11.968   2.351  1.00  0.00     0.135 A 
HETATM   12  C   UNL     1      38.870 -13.239   1.827  1.00  0.00     0.029 A 
HETATM   13 BR   UNL     1      37.555 -14.026   0.728  1.00  0.00    -0.050 Br
HETATM   14  C   UNL     1      40.045 -13.926   2.123  1.00  0.00     0.039 A 
ENDBRANCH   5   8
ENDBRANCH   1   4
BRANCH   1  15
HETATM   15  C   UNL     1      43.433 -17.213   3.792  1.00  0.00    -0.035 A 
HETATM   16  C   UNL     1      42.892 -17.349   2.507  1.00  0.00     0.012 A 
HETATM   17  C   UNL     1      42.948 -18.575   1.838  1.00  0.00     0.037 A 
HETATM   18  C   UNL     1      43.534 -19.690   2.439  1.00  0.00     0.068 A 
HETATM   19  C   UNL     1      44.082 -19.564   3.714  1.00  0.00     0.037 A 
HETATM   20  C   UNL     1      44.036 -18.335   4.383  1.00  0.00     0.012 A 
BRANCH  18  21
HETATM   21  O   UNL     1      43.514 -20.827   1.679  1.00  0.00    -0.356 OA
HETATM   22  C   UNL     1      44.319 -21.910   2.124  1.00  0.00     0.210 C 
ENDBRANCH  18  21
ENDBRANCH   1  15
TORSDOF 5
ENDMDL
MODEL 10
REMARK VINA RESULT:      -6.3      2.527      3.125
REMARK  5 active torsions:
REMARK  status: ('A' for Active; 'I' for Inactive)
REMARK    1  A    between atoms: C_2  and  C_3 
REMARK    2  A    between atoms: C_3  and  N_4 
REMARK    3  A    between atoms: C_3  and  C_14 
REMARK       I    between atoms: N_4  and  C_5 
REMARK    4  A    between atoms: C_5  and  C_6 
REMARK    5  A    between atoms: C_17  and  O_18 
ROOT
HETATM    1  C   UNL     1      43.743 -15.820   5.218  1.00  0.00     0.117 C 
ENDROOT
BRANCH   1   2
HETATM    2  C   UNL     1      43.431 -15.013   6.492  1.00  0.00     0.025 C 
HETATM    3  C   UNL     1      44.597 -14.150   6.961  1.00  0.00     0.007 C 
ENDBRANCH   1   2
BRANCH   1   4
HETATM    4  N   UNL     1      42.730 -15.621   4.188  1.00  0.00    -0.348 N 
HETATM    5  C   UNL     1      42.833 -14.638   3.229  1.00  0.00     0.253 C 
HETATM    6  O   UNL     1      43.768 -13.850   3.161  1.00  0.00    -0.268 OA
HETATM    7  H   UNL     1      41.880 -16.155   4.277  1.00  0.00     0.163 HD
BRANCH   5   8
HETATM    8  C   UNL     1      41.713 -14.534   2.263  1.00  0.00     0.050 A 
HETATM    9  C   UNL     1      40.475 -14.100   2.728  1.00  0.00     0.133 A 
HETATM   10  N   UNL     1      39.372 -13.978   1.947  1.00  0.00    -0.271 NA
HETATM   11  C   UNL     1      39.519 -14.291   0.639  1.00  0.00     0.135 A 
HETATM   12  C   UNL     1      40.717 -14.713   0.082  1.00  0.00     0.029 A 
HETATM   13 BR   UNL     1      40.835 -15.118  -1.756  1.00  0.00    -0.050 Br
HETATM   14  C   UNL     1      41.835 -14.833   0.903  1.00  0.00     0.039 A 
ENDBRANCH   5   8
ENDBRANCH   1   4
BRANCH   1  15
HETATM   15  C   UNL     1      43.859 -17.305   5.530  1.00  0.00    -0.035 A 
HETATM   16  C   UNL     1      44.062 -18.220   4.489  1.00  0.00     0.012 A 
HETATM   17  C   UNL     1      44.164 -19.588   4.754  1.00  0.00     0.037 A 
HETATM   18  C   UNL     1      44.055 -20.073   6.058  1.00  0.00     0.068 A 
HETATM   19  C   UNL     1      43.860 -19.172   7.102  1.00  0.00     0.037 A 
HETATM   20  C   UNL     1      43.767 -17.799   6.841  1.00  0.00     0.012 A 
BRANCH  18  21
HETATM   21  O   UNL     1      44.164 -21.431   6.175  1.00  0.00    -0.356 OA
HETATM   22  C   UNL     1      44.945 -22.099   5.193  1.00  0.00     0.210 C 
ENDBRANCH  18  21
ENDBRANCH   1  15
TORSDOF 5
ENDMDL
