MODEL 1
REMARK VINA RESULT:      -9.5      0.000      0.000
REMARK  6 active torsions:
REMARK  status: ('A' for Active; 'I' for Inactive)
REMARK    1  A    between atoms: O_2  and  C_3 
REMARK    2  A    between atoms: C_6  and  C_7 
REMARK    3  A    between atoms: C_7  and  N_8 
REMARK       I    between atoms: N_8  and  C_9 
REMARK    4  A    between atoms: C_9  and  C_10 
REMARK    5  A    between atoms: C_13  and  C_14 
REMARK    6  A    between atoms: C_19  and  C_20 
ROOT
HETATM    1  C   UNL     1      43.391 -14.386   5.233  1.00  0.00     0.096 A 
HETATM    2  C   UNL     1      42.949 -15.390   4.388  1.00  0.00     0.138 A 
HETATM    3  N   UNL     1      42.272 -14.746   3.378  1.00  0.00    -0.240 N 
HETATM    4  C   UNL     1      41.682 -15.409   2.230  1.00  0.00     0.221 C 
HETATM    5  C   UNL     1      42.364 -16.768   2.012  1.00  0.00     0.066 C 
HETATM    6  C   UNL     1      42.454 -17.556   3.328  1.00  0.00     0.118 C 
HETATM    7  N   UNL     1      43.093 -16.742   4.367  1.00  0.00    -0.365 N 
HETATM    8  N   UNL     1      42.319 -13.409   3.447  1.00  0.00    -0.181 NA
HETATM    9  C   UNL     1      42.983 -13.191   4.586  1.00  0.00     0.160 A 
HETATM   10  H   UNL     1      43.847 -17.206   4.872  1.00  0.00     0.161 HD
ENDROOT
BRANCH   1  11
HETATM   11  C   UNL     1      44.122 -14.445   6.486  1.00  0.00     0.257 C 
HETATM   12  N   UNL     1      44.412 -13.231   7.059  1.00  0.00    -0.352 N 
HETATM   13  H   UNL     1      44.185 -12.392   6.545  1.00  0.00     0.163 HD
HETATM   14  O   UNL     1      44.477 -15.514   6.970  1.00  0.00    -0.267 OA
BRANCH  12  15
HETATM   15  C   UNL     1      45.125 -13.120   8.308  1.00  0.00     0.161 C 
BRANCH  15  16
HETATM   16  C   UNL     1      44.518 -12.075   9.210  1.00  0.00    -0.040 A 
HETATM   17  C   UNL     1      43.391 -11.349   8.796  1.00  0.00     0.011 A 
HETATM   18  C   UNL     1      42.803 -10.393   9.630  1.00  0.00     0.037 A 
HETATM   19  C   UNL     1      43.332 -10.149  10.896  1.00  0.00     0.068 A 
HETATM   20  C   UNL     1      44.464 -10.856  11.308  1.00  0.00     0.037 A 
HETATM   21  C   UNL     1      45.056 -11.810  10.474  1.00  0.00     0.011 A 
BRANCH  19  22
HETATM   22  O   UNL     1      42.846  -9.255  11.811  1.00  0.00    -0.356 OA
HETATM   23  C   UNL     1      43.221  -9.464  13.168  1.00  0.00     0.210 C 
ENDBRANCH  19  22
ENDBRANCH  15  16
ENDBRANCH  12  15
ENDBRANCH   1  11
BRANCH   4  24
HETATM   24  C   UNL     1      40.186 -15.528   2.420  1.00  0.00     0.409 C 
HETATM   25  F   UNL     1      39.698 -16.722   2.026  1.00  0.00    -0.169 F 
HETATM   26  F   UNL     1      39.881 -15.403   3.739  1.00  0.00    -0.169 F 
HETATM   27  F   UNL     1      39.490 -14.565   1.776  1.00  0.00    -0.169 F 
ENDBRANCH   4  24
BRANCH   6  28
HETATM   28  C   UNL     1      43.194 -18.865   3.130  1.00  0.00    -0.035 A 
HETATM   29  C   UNL     1      43.004 -19.658   1.987  1.00  0.00     0.009 A 
HETATM   30  C   UNL     1      43.683 -20.871   1.840  1.00  0.00     0.001 A 
HETATM   31  C   UNL     1      44.550 -21.311   2.839  1.00  0.00     0.000 A 
HETATM   32  C   UNL     1      44.739 -20.542   3.983  1.00  0.00     0.001 A 
HETATM   33  C   UNL     1      44.068 -19.327   4.129  1.00  0.00     0.009 A 
ENDBRANCH   6  28
TORSDOF 6
ENDMDL
MODEL 2
REMARK VINA RESULT:      -9.4      5.047      9.030
REMARK  6 active torsions:
REMARK  status: ('A' for Active; 'I' for Inactive)
REMARK    1  A    between atoms: O_2  and  C_3 
REMARK    2  A    between atoms: C_6  and  C_7 
REMARK    3  A    between atoms: C_7  and  N_8 
REMARK       I    between atoms: N_8  and  C_9 
REMARK    4  A    between atoms: C_9  and  C_10 
REMARK    5  A    between atoms: C_13  and  C_14 
REMARK    6  A    between atoms: C_19  and  C_20 
ROOT
HETATM    1  C   UNL     1      41.327 -15.673   1.552  1.00  0.00     0.096 A 
HETATM    2  C   UNL     1      41.986 -16.482   2.462  1.00  0.00     0.138 A 
HETATM    3  N   UNL     1      41.561 -16.061   3.701  1.00  0.00    -0.240 N 
HETATM    4  C   UNL     1      41.956 -16.670   4.958  1.00  0.00     0.221 C 
HETATM    5  C   UNL     1      42.422 -18.112   4.707  1.00  0.00     0.066 C 
HETATM    6  C   UNL     1      43.416 -18.174   3.536  1.00  0.00     0.118 C 
HETATM    7  N   UNL     1      42.845 -17.530   2.349  1.00  0.00    -0.365 N 
HETATM    8  N   UNL     1      40.616 -15.112   3.667  1.00  0.00    -0.181 NA
HETATM    9  C   UNL     1      40.488 -14.863   2.361  1.00  0.00     0.160 A 
HETATM   10  H   UNL     1      42.908 -18.079   1.492  1.00  0.00     0.161 HD
ENDROOT
BRANCH   1  11
HETATM   11  C   UNL     1      41.397 -15.611   0.104  1.00  0.00     0.257 C 
HETATM   12  N   UNL     1      41.321 -14.351  -0.439  1.00  0.00    -0.352 N 
HETATM   13  H   UNL     1      41.137 -13.574   0.179  1.00  0.00     0.163 HD
HETATM   14  O   UNL     1      41.486 -16.627  -0.577  1.00  0.00    -0.267 OA
BRANCH  12  15
HETATM   15  C   UNL     1      41.385 -14.121  -1.861  1.00  0.00     0.161 C 
BRANCH  15  16
HETATM   16  C   UNL     1      40.052 -14.349  -2.527  1.00  0.00    -0.040 A 
HETATM   17  C   UNL     1      38.954 -13.533  -2.215  1.00  0.00     0.011 A 
HETATM   18  C   UNL     1      37.717 -13.719  -2.841  1.00  0.00     0.037 A 
HETATM   19  C   UNL     1      37.558 -14.724  -3.793  1.00  0.00     0.068 A 
HETATM   20  C   UNL     1      38.642 -15.551  -4.095  1.00  0.00     0.037 A 
HETATM   21  C   UNL     1      39.879 -15.370  -3.468  1.00  0.00     0.011 A 
BRANCH  19  22
HETATM   22  O   UNL     1      36.411 -15.000  -4.485  1.00  0.00    -0.356 OA
HETATM   23  C   UNL     1      35.711 -13.887  -5.028  1.00  0.00     0.210 C 
ENDBRANCH  19  22
ENDBRANCH  15  16
ENDBRANCH  12  15
ENDBRANCH   1  11
BRANCH   4  24
HETATM   24  C   UNL     1      43.012 -15.821   5.631  1.00  0.00     0.409 C 
HETATM   25  F   UNL     1      43.723 -15.076   4.758  1.00  0.00    -0.169 F 
HETATM   26  F   UNL     1      42.418 -14.948   6.488  1.00  0.00    -0.169 F 
HETATM   27  F   UNL     1      43.886 -16.542   6.365  1.00  0.00    -0.169 F 
ENDBRANCH   4  24
BRANCH   6  28
HETATM   28  C   UNL     1      43.820 -19.605   3.239  1.00  0.00    -0.035 A 
HETATM   29  C   UNL     1      43.496 -20.230   2.024  1.00  0.00     0.009 A 
HETATM   30  C   UNL     1      43.861 -21.557   1.786  1.00  0.00     0.001 A 
HETATM   31  C   UNL     1      44.544 -22.280   2.762  1.00  0.00     0.000 A 
HETATM   32  C   UNL     1      44.862 -21.678   3.977  1.00  0.00     0.001 A 
HETATM   33  C   UNL     1      44.503 -20.351   4.215  1.00  0.00     0.009 A 
ENDBRANCH   6  28
TORSDOF 6
ENDMDL
MODEL 3
REMARK VINA RESULT:      -9.3      4.689      7.394
REMARK  6 active torsions:
REMARK  status: ('A' for Active; 'I' for Inactive)
REMARK    1  A    between atoms: O_2  and  C_3 
REMARK    2  A    between atoms: C_6  and  C_7 
REMARK    3  A    between atoms: C_7  and  N_8 
REMARK       I    between atoms: N_8  and  C_9 
REMARK    4  A    between atoms: C_9  and  C_10 
REMARK    5  A    between atoms: C_13  and  C_14 
REMARK    6  A    between atoms: C_19  and  C_20 
ROOT
HETATM    1  C   UNL     1      40.768 -15.494   3.581  1.00  0.00     0.096 A 
HETATM    2  C   UNL     1      41.764 -16.341   4.038  1.00  0.00     0.138 A 
HETATM    3  N   UNL     1      41.868 -16.089   5.386  1.00  0.00    -0.240 N 
HETATM    4  C   UNL     1      42.759 -16.796   6.288  1.00  0.00     0.221 C 
HETATM    5  C   UNL     1      43.124 -18.161   5.686  1.00  0.00     0.066 C 
HETATM    6  C   UNL     1      43.556 -18.018   4.219  1.00  0.00     0.118 C 
HETATM    7  N   UNL     1      42.533 -17.299   3.454  1.00  0.00    -0.365 N 
HETATM    8  N   UNL     1      40.963 -15.221   5.857  1.00  0.00    -0.181 NA
HETATM    9  C   UNL     1      40.307 -14.845   4.756  1.00  0.00     0.160 A 
HETATM   10  H   UNL     1      42.257 -17.746   2.581  1.00  0.00     0.161 HD
ENDROOT
BRANCH   1  11
HETATM   11  C   UNL     1      40.239 -15.273   2.248  1.00  0.00     0.257 C 
HETATM   12  N   UNL     1      41.179 -15.148   1.253  1.00  0.00    -0.352 N 
HETATM   13  H   UNL     1      42.154 -15.128   1.514  1.00  0.00     0.163 HD
HETATM   14  O   UNL     1      39.034 -15.175   2.044  1.00  0.00    -0.267 OA
BRANCH  12  15
HETATM   15  C   UNL     1      40.815 -14.933  -0.127  1.00  0.00     0.161 C 
BRANCH  15  16
HETATM   16  C   UNL     1      41.498 -13.720  -0.705  1.00  0.00    -0.040 A 
HETATM   17  C   UNL     1      41.800 -13.661  -2.074  1.00  0.00     0.011 A 
HETATM   18  C   UNL     1      42.413 -12.533  -2.629  1.00  0.00     0.037 A 
HETATM   19  C   UNL     1      42.733 -11.442  -1.823  1.00  0.00     0.068 A 
HETATM   20  C   UNL     1      42.451 -11.501  -0.456  1.00  0.00     0.037 A 
HETATM   21  C   UNL     1      41.841 -12.630   0.102  1.00  0.00     0.011 A 
BRANCH  19  22
HETATM   22  O   UNL     1      43.318 -10.278  -2.241  1.00  0.00    -0.356 OA
HETATM   23  C   UNL     1      43.976  -9.502  -1.247  1.00  0.00     0.210 C 
ENDBRANCH  19  22
ENDBRANCH  15  16
ENDBRANCH  12  15
ENDBRANCH   1  11
BRANCH   4  24
HETATM   24  C   UNL     1      43.971 -15.942   6.586  1.00  0.00     0.409 C 
HETATM   25  F   UNL     1      43.888 -15.305   7.773  1.00  0.00    -0.169 F 
HETATM   26  F   UNL     1      45.080 -16.726   6.647  1.00  0.00    -0.169 F 
HETATM   27  F   UNL     1      44.213 -15.013   5.635  1.00  0.00    -0.169 F 
ENDBRANCH   4  24
BRANCH   6  28
HETATM   28  C   UNL     1      43.846 -19.372   3.601  1.00  0.00    -0.035 A 
HETATM   29  C   UNL     1      43.393 -19.714   2.316  1.00  0.00     0.009 A 
HETATM   30  C   UNL     1      43.656 -20.977   1.781  1.00  0.00     0.001 A 
HETATM   31  C   UNL     1      44.364 -21.918   2.526  1.00  0.00     0.000 A 
HETATM   32  C   UNL     1      44.809 -21.599   3.806  1.00  0.00     0.001 A 
HETATM   33  C   UNL     1      44.553 -20.336   4.341  1.00  0.00     0.009 A 
ENDBRANCH   6  28
TORSDOF 6
ENDMDL
MODEL 4
REMARK VINA RESULT:      -8.9      4.855      7.919
REMARK  6 active torsions:
REMARK  status: ('A' for Active; 'I' for Inactive)
REMARK    1  A    between atoms: O_2  and  C_3 
REMARK    2  A    between atoms: C_6  and  C_7 
REMARK    3  A    between atoms: C_7  and  N_8 
REMARK       I    between atoms: N_8  and  C_9 
REMARK    4  A    between atoms: C_9  and  C_10 
REMARK    5  A    between atoms: C_13  and  C_14 
REMARK    6  A    between atoms: C_19  and  C_20 
ROOT
HETATM    1  C   UNL     1      42.274 -15.194   3.514  1.00  0.00     0.096 A 
HETATM    2  C   UNL     1      42.808 -16.339   4.081  1.00  0.00     0.138 A 
HETATM    3  N   UNL     1      42.476 -16.276   5.415  1.00  0.00    -0.240 N 
HETATM    4  C   UNL     1      42.787 -17.306   6.389  1.00  0.00     0.221 C 
HETATM    5  C   UNL     1      43.011 -18.645   5.670  1.00  0.00     0.066 C 
HETATM    6  C   UNL     1      43.964 -18.476   4.476  1.00  0.00     0.118 C 
HETATM    7  N   UNL     1      43.486 -17.410   3.589  1.00  0.00    -0.365 N 
HETATM    8  N   UNL     1      41.695 -15.238   5.741  1.00  0.00    -0.181 NA
HETATM    9  C   UNL     1      41.588 -14.569   4.589  1.00  0.00     0.160 A 
HETATM   10  H   UNL     1      43.446 -17.660   2.602  1.00  0.00     0.161 HD
ENDROOT
BRANCH   1  11
HETATM   11  C   UNL     1      42.330 -14.684   2.157  1.00  0.00     0.257 C 
HETATM   12  N   UNL     1      41.890 -13.393   1.991  1.00  0.00    -0.352 N 
HETATM   13  H   UNL     1      41.482 -12.921   2.784  1.00  0.00     0.163 HD
HETATM   14  O   UNL     1      42.717 -15.382   1.226  1.00  0.00    -0.267 OA
BRANCH  12  15
HETATM   15  C   UNL     1      41.891 -12.739   0.705  1.00  0.00     0.161 C 
BRANCH  15  16
HETATM   16  C   UNL     1      40.746 -13.202  -0.160  1.00  0.00    -0.040 A 
HETATM   17  C   UNL     1      39.447 -13.282   0.365  1.00  0.00     0.011 A 
HETATM   18  C   UNL     1      38.372 -13.688  -0.432  1.00  0.00     0.037 A 
HETATM   19  C   UNL     1      38.577 -14.018  -1.770  1.00  0.00     0.068 A 
HETATM   20  C   UNL     1      39.871 -13.957  -2.294  1.00  0.00     0.037 A 
HETATM   21  C   UNL     1      40.948 -13.555  -1.499  1.00  0.00     0.011 A 
BRANCH  19  22
HETATM   22  O   UNL     1      37.614 -14.414  -2.657  1.00  0.00    -0.356 OA
HETATM   23  C   UNL     1      38.013 -15.339  -3.661  1.00  0.00     0.210 C 
ENDBRANCH  19  22
ENDBRANCH  15  16
ENDBRANCH  12  15
ENDBRANCH   1  11
BRANCH   4  24
HETATM   24  C   UNL     1      43.976 -16.881   7.222  1.00  0.00     0.409 C 
HETATM   25  F   UNL     1      44.698 -15.898   6.646  1.00  0.00    -0.169 F 
HETATM   26  F   UNL     1      43.546 -16.394   8.417  1.00  0.00    -0.169 F 
HETATM   27  F   UNL     1      44.817 -17.899   7.506  1.00  0.00    -0.169 F 
ENDBRANCH   4  24
BRANCH   6  28
HETATM   28  C   UNL     1      44.128 -19.781   3.721  1.00  0.00    -0.035 A 
HETATM   29  C   UNL     1      43.693 -19.929   2.393  1.00  0.00     0.009 A 
HETATM   30  C   UNL     1      43.837 -21.149   1.729  1.00  0.00     0.001 A 
HETATM   31  C   UNL     1      44.405 -22.239   2.385  1.00  0.00     0.000 A 
HETATM   32  C   UNL     1      44.830 -22.112   3.704  1.00  0.00     0.001 A 
HETATM   33  C   UNL     1      44.693 -20.892   4.369  1.00  0.00     0.009 A 
ENDBRANCH   6  28
TORSDOF 6
ENDMDL
MODEL 5
REMARK VINA RESULT:      -8.7      2.599      4.054
REMARK  6 active torsions:
REMARK  status: ('A' for Active; 'I' for Inactive)
REMARK    1  A    between atoms: O_2  and  C_3 
REMARK    2  A    between atoms: C_6  and  C_7 
REMARK    3  A    between atoms: C_7  and  N_8 
REMARK       I    between atoms: N_8  and  C_9 
REMARK    4  A    between atoms: C_9  and  C_10 
REMARK    5  A    between atoms: C_13  and  C_14 
REMARK    6  A    between atoms: C_19  and  C_20 
ROOT
HETATM    1  C   UNL     1      43.644 -15.572   6.898  1.00  0.00     0.096 A 
HETATM    2  C   UNL     1      43.351 -16.316   5.767  1.00  0.00     0.138 A 
HETATM    3  N   UNL     1      43.247 -17.617   6.201  1.00  0.00    -0.240 N 
HETATM    4  C   UNL     1      42.893 -18.741   5.354  1.00  0.00     0.221 C 
HETATM    5  C   UNL     1      42.137 -18.236   4.116  1.00  0.00     0.066 C 
HETATM    6  C   UNL     1      42.871 -17.052   3.467  1.00  0.00     0.118 C 
HETATM    7  N   UNL     1      43.129 -16.005   4.461  1.00  0.00    -0.365 N 
HETATM    8  N   UNL     1      43.356 -17.767   7.527  1.00  0.00    -0.181 NA
HETATM    9  C   UNL     1      43.616 -16.526   7.949  1.00  0.00     0.160 A 
HETATM   10  H   UNL     1      42.857 -15.066   4.174  1.00  0.00     0.161 HD
ENDROOT
BRANCH   1  11
HETATM   11  C   UNL     1      43.907 -14.155   7.067  1.00  0.00     0.257 C 
HETATM   12  N   UNL     1      44.605 -13.816   8.201  1.00  0.00    -0.352 N 
HETATM   13  H   UNL     1      44.808 -14.540   8.874  1.00  0.00     0.163 HD
HETATM   14  O   UNL     1      43.501 -13.327   6.260  1.00  0.00    -0.267 OA
BRANCH  12  15
HETATM   15  C   UNL     1      44.954 -12.450   8.510  1.00  0.00     0.161 C 
BRANCH  15  16
HETATM   16  C   UNL     1      44.111 -11.895   9.630  1.00  0.00    -0.040 A 
HETATM   17  C   UNL     1      43.112 -10.947   9.363  1.00  0.00     0.011 A 
HETATM   18  C   UNL     1      42.308 -10.439  10.389  1.00  0.00     0.037 A 
HETATM   19  C   UNL     1      42.488 -10.875  11.700  1.00  0.00     0.068 A 
HETATM   20  C   UNL     1      43.492 -11.807  11.975  1.00  0.00     0.037 A 
HETATM   21  C   UNL     1      44.300 -12.313  10.952  1.00  0.00     0.011 A 
BRANCH  19  22
HETATM   22  O   UNL     1      41.762 -10.472  12.787  1.00  0.00    -0.356 OA
HETATM   23  C   UNL     1      42.472 -10.338  14.014  1.00  0.00     0.210 C 
ENDBRANCH  19  22
ENDBRANCH  15  16
ENDBRANCH  12  15
ENDBRANCH   1  11
BRANCH   4  24
HETATM   24  C   UNL     1      44.136 -19.529   5.001  1.00  0.00     0.409 C 
HETATM   25  F   UNL     1      44.135 -19.969   3.726  1.00  0.00    -0.169 F 
HETATM   26  F   UNL     1      45.233 -18.737   5.135  1.00  0.00    -0.169 F 
HETATM   27  F   UNL     1      44.334 -20.596   5.806  1.00  0.00    -0.169 F 
ENDBRANCH   4  24
BRANCH   6  28
HETATM   28  C   UNL     1      42.088 -16.504   2.290  1.00  0.00    -0.035 A 
HETATM   29  C   UNL     1      42.470 -16.759   0.962  1.00  0.00     0.009 A 
HETATM   30  C   UNL     1      41.742 -16.223  -0.103  1.00  0.00     0.001 A 
HETATM   31  C   UNL     1      40.632 -15.418   0.144  1.00  0.00     0.000 A 
HETATM   32  C   UNL     1      40.248 -15.146   1.454  1.00  0.00     0.001 A 
HETATM   33  C   UNL     1      40.969 -15.685   2.520  1.00  0.00     0.009 A 
ENDBRANCH   6  28
TORSDOF 6
ENDMDL
MODEL 6
REMARK VINA RESULT:      -8.6      4.657      7.125
REMARK  6 active torsions:
REMARK  status: ('A' for Active; 'I' for Inactive)
REMARK    1  A    between atoms: O_2  and  C_3 
REMARK    2  A    between atoms: C_6  and  C_7 
REMARK    3  A    between atoms: C_7  and  N_8 
REMARK       I    between atoms: N_8  and  C_9 
REMARK    4  A    between atoms: C_9  and  C_10 
REMARK    5  A    between atoms: C_13  and  C_14 
REMARK    6  A    between atoms: C_19  and  C_20 
ROOT
HETATM    1  C   UNL     1      40.596 -15.330   3.832  1.00  0.00     0.096 A 
HETATM    2  C   UNL     1      41.629 -16.168   4.216  1.00  0.00     0.138 A 
HETATM    3  N   UNL     1      41.796 -15.948   5.564  1.00  0.00    -0.240 N 
HETATM    4  C   UNL     1      42.743 -16.659   6.403  1.00  0.00     0.221 C 
HETATM    5  C   UNL     1      43.105 -18.001   5.748  1.00  0.00     0.066 C 
HETATM    6  C   UNL     1      43.461 -17.812   4.266  1.00  0.00     0.118 C 
HETATM    7  N   UNL     1      42.387 -17.095   3.571  1.00  0.00    -0.365 N 
HETATM    8  N   UNL     1      40.899 -15.110   6.102  1.00  0.00    -0.181 NA
HETATM    9  C   UNL     1      40.182 -14.720   5.044  1.00  0.00     0.160 A 
HETATM   10  H   UNL     1      42.077 -17.526   2.701  1.00  0.00     0.161 HD
ENDROOT
BRANCH   1  11
HETATM   11  C   UNL     1      39.998 -15.086   2.532  1.00  0.00     0.257 C 
HETATM   12  N   UNL     1      39.708 -13.772   2.252  1.00  0.00    -0.352 N 
HETATM   13  H   UNL     1      39.842 -13.087   2.980  1.00  0.00     0.163 HD
HETATM   14  O   UNL     1      39.746 -16.005   1.760  1.00  0.00    -0.267 OA
BRANCH  12  15
HETATM   15  C   UNL     1      39.120 -13.365   0.999  1.00  0.00     0.161 C 
BRANCH  15  16
HETATM   16  C   UNL     1      38.071 -12.299   1.193  1.00  0.00    -0.040 A 
HETATM   17  C   UNL     1      36.861 -12.359   0.486  1.00  0.00     0.011 A 
HETATM   18  C   UNL     1      35.869 -11.390   0.671  1.00  0.00     0.037 A 
HETATM   19  C   UNL     1      36.072 -10.344   1.570  1.00  0.00     0.068 A 
HETATM   20  C   UNL     1      37.282 -10.269   2.265  1.00  0.00     0.037 A 
HETATM   21  C   UNL     1      38.276 -11.235   2.078  1.00  0.00     0.011 A 
BRANCH  19  22
HETATM   22  O   UNL     1      35.181  -9.345   1.854  1.00  0.00    -0.356 OA
HETATM   23  C   UNL     1      33.809  -9.714   1.918  1.00  0.00     0.210 C 
ENDBRANCH  19  22
ENDBRANCH  15  16
ENDBRANCH  12  15
ENDBRANCH   1  11
BRANCH   4  24
HETATM   24  C   UNL     1      43.952 -15.788   6.663  1.00  0.00     0.409 C 
HETATM   25  F   UNL     1      43.909 -15.172   7.863  1.00  0.00    -0.169 F 
HETATM   26  F   UNL     1      45.076 -16.553   6.663  1.00  0.00    -0.169 F 
HETATM   27  F   UNL     1      44.137 -14.840   5.719  1.00  0.00    -0.169 F 
ENDBRANCH   4  24
BRANCH   6  28
HETATM   28  C   UNL     1      43.745 -19.145   3.600  1.00  0.00    -0.035 A 
HETATM   29  C   UNL     1      43.215 -19.473   2.341  1.00  0.00     0.009 A 
HETATM   30  C   UNL     1      43.476 -20.717   1.761  1.00  0.00     0.001 A 
HETATM   31  C   UNL     1      44.259 -21.651   2.435  1.00  0.00     0.000 A 
HETATM   32  C   UNL     1      44.781 -21.346   3.688  1.00  0.00     0.001 A 
HETATM   33  C   UNL     1      44.527 -20.102   4.268  1.00  0.00     0.009 A 
ENDBRANCH   6  28
TORSDOF 6
ENDMDL
MODEL 7
REMARK VINA RESULT:      -8.2      4.316      8.096
REMARK  6 active torsions:
REMARK  status: ('A' for Active; 'I' for Inactive)
REMARK    1  A    between atoms: O_2  and  C_3 
REMARK    2  A    between atoms: C_6  and  C_7 
REMARK    3  A    between atoms: C_7  and  N_8 
REMARK       I    between atoms: N_8  and  C_9 
REMARK    4  A    between atoms: C_9  and  C_10 
REMARK    5  A    between atoms: C_13  and  C_14 
REMARK    6  A    between atoms: C_19  and  C_20 
ROOT
HETATM    1  C   UNL     1      42.018 -12.957   3.509  1.00  0.00     0.096 A 
HETATM    2  C   UNL     1      42.576 -14.133   3.980  1.00  0.00     0.138 A 
HETATM    3  N   UNL     1      42.544 -14.030   5.352  1.00  0.00    -0.240 N 
HETATM    4  C   UNL     1      42.982 -15.069   6.265  1.00  0.00     0.221 C 
HETATM    5  C   UNL     1      42.948 -16.429   5.553  1.00  0.00     0.066 C 
HETATM    6  C   UNL     1      43.631 -16.348   4.179  1.00  0.00     0.118 C 
HETATM    7  N   UNL     1      43.052 -15.260   3.385  1.00  0.00    -0.365 N 
HETATM    8  N   UNL     1      41.929 -12.931   5.808  1.00  0.00    -0.181 NA
HETATM    9  C   UNL     1      41.627 -12.269   4.687  1.00  0.00     0.160 A 
HETATM   10  H   UNL     1      42.783 -15.517   2.437  1.00  0.00     0.161 HD
ENDROOT
BRANCH   1  11
HETATM   11  C   UNL     1      41.818 -12.469   2.157  1.00  0.00     0.257 C 
HETATM   12  N   UNL     1      40.698 -11.696   1.967  1.00  0.00    -0.352 N 
HETATM   13  H   UNL     1      40.053 -11.590   2.736  1.00  0.00     0.163 HD
HETATM   14  O   UNL     1      42.589 -12.762   1.250  1.00  0.00    -0.267 OA
BRANCH  12  15
HETATM   15  C   UNL     1      40.363 -11.128   0.683  1.00  0.00     0.161 C 
BRANCH  15  16
HETATM   16  C   UNL     1      39.644 -12.118  -0.198  1.00  0.00    -0.040 A 
HETATM   17  C   UNL     1      38.593 -12.892   0.317  1.00  0.00     0.011 A 
HETATM   18  C   UNL     1      37.902 -13.799  -0.494  1.00  0.00     0.037 A 
HETATM   19  C   UNL     1      38.250 -13.944  -1.836  1.00  0.00     0.068 A 
HETATM   20  C   UNL     1      39.307 -13.188  -2.350  1.00  0.00     0.037 A 
HETATM   21  C   UNL     1      40.002 -12.284  -1.540  1.00  0.00     0.011 A 
BRANCH  19  22
HETATM   22  O   UNL     1      37.648 -14.780  -2.736  1.00  0.00    -0.356 OA
HETATM   23  C   UNL     1      38.472 -15.303  -3.771  1.00  0.00     0.210 C 
ENDBRANCH  19  22
ENDBRANCH  15  16
ENDBRANCH  12  15
ENDBRANCH   1  11
BRANCH   4  24
HETATM   24  C   UNL     1      44.350 -14.727   6.814  1.00  0.00     0.409 C 
HETATM   25  F   UNL     1      44.304 -14.222   8.064  1.00  0.00    -0.169 F 
HETATM   26  F   UNL     1      45.110 -15.853   6.880  1.00  0.00    -0.169 F 
HETATM   27  F   UNL     1      45.029 -13.853   6.040  1.00  0.00    -0.169 F 
ENDBRANCH   4  24
BRANCH   6  28
HETATM   28  C   UNL     1      43.533 -17.671   3.442  1.00  0.00    -0.035 A 
HETATM   29  C   UNL     1      44.203 -18.821   3.892  1.00  0.00     0.009 A 
HETATM   30  C   UNL     1      44.112 -20.021   3.181  1.00  0.00     0.001 A 
HETATM   31  C   UNL     1      43.362 -20.083   2.009  1.00  0.00     0.000 A 
HETATM   32  C   UNL     1      42.704 -18.949   1.544  1.00  0.00     0.001 A 
HETATM   33  C   UNL     1      42.787 -17.750   2.255  1.00  0.00     0.009 A 
ENDBRANCH   6  28
TORSDOF 6
ENDMDL
MODEL 8
REMARK VINA RESULT:      -8.1      4.602      9.553
REMARK  6 active torsions:
REMARK  status: ('A' for Active; 'I' for Inactive)
REMARK    1  A    between atoms: O_2  and  C_3 
REMARK    2  A    between atoms: C_6  and  C_7 
REMARK    3  A    between atoms: C_7  and  N_8 
REMARK       I    between atoms: N_8  and  C_9 
REMARK    4  A    between atoms: C_9  and  C_10 
REMARK    5  A    between atoms: C_13  and  C_14 
REMARK    6  A    between atoms: C_19  and  C_20 
ROOT
HETATM    1  C   UNL     1      44.843 -12.224   8.918  1.00  0.00     0.096 A 
HETATM    2  C   UNL     1      43.755 -11.486   9.354  1.00  0.00     0.138 A 
HETATM    3  N   UNL     1      44.147 -10.929  10.550  1.00  0.00    -0.240 N 
HETATM    4  C   UNL     1      43.334 -10.023  11.341  1.00  0.00     0.221 C 
HETATM    5  C   UNL     1      42.279  -9.360  10.443  1.00  0.00     0.066 C 
HETATM    6  C   UNL     1      41.556 -10.405   9.580  1.00  0.00     0.118 C 
HETATM    7  N   UNL     1      42.527 -11.214   8.838  1.00  0.00    -0.365 N 
HETATM    8  N   UNL     1      45.424 -11.167  10.878  1.00  0.00    -0.181 NA
HETATM    9  C   UNL     1      45.841 -11.971   9.895  1.00  0.00     0.160 A 
HETATM   10  H   UNL     1      42.334 -11.309   7.842  1.00  0.00     0.161 HD
ENDROOT
BRANCH   1  11
HETATM   11  C   UNL     1      45.019 -13.065   7.748  1.00  0.00     0.257 C 
HETATM   12  N   UNL     1      43.929 -13.825   7.397  1.00  0.00    -0.352 N 
HETATM   13  H   UNL     1      43.125 -13.820   8.007  1.00  0.00     0.163 HD
HETATM   14  O   UNL     1      46.085 -13.107   7.144  1.00  0.00    -0.267 OA
BRANCH  12  15
HETATM   15  C   UNL     1      43.941 -14.705   6.254  1.00  0.00     0.161 C 
BRANCH  15  16
HETATM   16  C   UNL     1      43.876 -16.155   6.661  1.00  0.00    -0.040 A 
HETATM   17  C   UNL     1      44.102 -17.168   5.717  1.00  0.00     0.011 A 
HETATM   18  C   UNL     1      44.066 -18.517   6.085  1.00  0.00     0.037 A 
HETATM   19  C   UNL     1      43.808 -18.875   7.406  1.00  0.00     0.068 A 
HETATM   20  C   UNL     1      43.566 -17.872   8.348  1.00  0.00     0.037 A 
HETATM   21  C   UNL     1      43.596 -16.523   7.982  1.00  0.00     0.011 A 
BRANCH  19  22
HETATM   22  O   UNL     1      43.760 -20.151   7.898  1.00  0.00    -0.356 OA
HETATM   23  C   UNL     1      43.666 -21.200   6.940  1.00  0.00     0.210 C 
ENDBRANCH  19  22
ENDBRANCH  15  16
ENDBRANCH  12  15
ENDBRANCH   1  11
BRANCH   4  24
HETATM   24  C   UNL     1      42.727 -10.768  12.509  1.00  0.00     0.409 C 
HETATM   25  F   UNL     1      41.389 -10.614  12.593  1.00  0.00    -0.169 F 
HETATM   26  F   UNL     1      42.954 -12.101  12.370  1.00  0.00    -0.169 F 
HETATM   27  F   UNL     1      43.258 -10.413  13.699  1.00  0.00    -0.169 F 
ENDBRANCH   4  24
BRANCH   6  28
HETATM   28  C   UNL     1      40.566  -9.744   8.639  1.00  0.00    -0.035 A 
HETATM   29  C   UNL     1      39.701  -8.724   9.070  1.00  0.00     0.009 A 
HETATM   30  C   UNL     1      38.784  -8.148   8.187  1.00  0.00     0.001 A 
HETATM   31  C   UNL     1      38.712  -8.591   6.868  1.00  0.00     0.000 A 
HETATM   32  C   UNL     1      39.553  -9.609   6.430  1.00  0.00     0.001 A 
HETATM   33  C   UNL     1      40.475 -10.182   7.307  1.00  0.00     0.009 A 
ENDBRANCH   6  28
TORSDOF 6
ENDMDL
MODEL 9
REMARK VINA RESULT:      -8.0      2.624      3.655
REMARK  6 active torsions:
REMARK  status: ('A' for Active; 'I' for Inactive)
REMARK    1  A    between atoms: O_2  and  C_3 
REMARK    2  A    between atoms: C_6  and  C_7 
REMARK    3  A    between atoms: C_7  and  N_8 
REMARK       I    between atoms: N_8  and  C_9 
REMARK    4  A    between atoms: C_9  and  C_10 
REMARK    5  A    between atoms: C_13  and  C_14 
REMARK    6  A    between atoms: C_19  and  C_20 
ROOT
HETATM    1  C   UNL     1      40.103 -12.786   4.647  1.00  0.00     0.096 A 
HETATM    2  C   UNL     1      40.590 -14.057   4.389  1.00  0.00     0.138 A 
HETATM    3  N   UNL     1      40.856 -14.078   3.039  1.00  0.00    -0.240 N 
HETATM    4  C   UNL     1      41.440 -15.205   2.334  1.00  0.00     0.221 C 
HETATM    5  C   UNL     1      42.202 -16.095   3.326  1.00  0.00     0.066 C 
HETATM    6  C   UNL     1      41.348 -16.392   4.568  1.00  0.00     0.118 C 
HETATM    7  N   UNL     1      40.860 -15.143   5.162  1.00  0.00    -0.365 N 
HETATM    8  N   UNL     1      40.672 -12.904   2.421  1.00  0.00    -0.181 NA
HETATM    9  C   UNL     1      40.195 -12.124   3.395  1.00  0.00     0.160 A 
HETATM   10  H   UNL     1      41.007 -15.059   6.166  1.00  0.00     0.161 HD
ENDROOT
BRANCH   1  11
HETATM   11  C   UNL     1      39.615 -12.182   5.874  1.00  0.00     0.257 C 
HETATM   12  N   UNL     1      40.041 -10.897   6.109  1.00  0.00    -0.352 N 
HETATM   13  H   UNL     1      40.720 -10.494   5.480  1.00  0.00     0.163 HD
HETATM   14  O   UNL     1      38.898 -12.801   6.652  1.00  0.00    -0.267 OA
BRANCH  12  15
HETATM   15  C   UNL     1      39.638 -10.155   7.279  1.00  0.00     0.161 C 
BRANCH  15  16
HETATM   16  C   UNL     1      40.527 -10.446   8.462  1.00  0.00    -0.040 A 
HETATM   17  C   UNL     1      39.968 -10.742   9.714  1.00  0.00     0.011 A 
HETATM   18  C   UNL     1      40.779 -11.035  10.815  1.00  0.00     0.037 A 
HETATM   19  C   UNL     1      42.166 -11.040  10.680  1.00  0.00     0.068 A 
HETATM   20  C   UNL     1      42.730 -10.730   9.440  1.00  0.00     0.037 A 
HETATM   21  C   UNL     1      41.921 -10.433   8.339  1.00  0.00     0.011 A 
BRANCH  19  22
HETATM   22  O   UNL     1      43.068 -11.324  11.669  1.00  0.00    -0.356 OA
HETATM   23  C   UNL     1      44.165 -12.157  11.312  1.00  0.00     0.210 C 
ENDBRANCH  19  22
ENDBRANCH  15  16
ENDBRANCH  12  15
ENDBRANCH   1  11
BRANCH   4  24
HETATM   24  C   UNL     1      40.361 -15.953   1.582  1.00  0.00     0.409 C 
HETATM   25  F   UNL     1      39.134 -15.789   2.119  1.00  0.00    -0.169 F 
HETATM   26  F   UNL     1      40.288 -15.490   0.305  1.00  0.00    -0.169 F 
HETATM   27  F   UNL     1      40.598 -17.280   1.493  1.00  0.00    -0.169 F 
ENDBRANCH   4  24
BRANCH   6  28
HETATM   28  C   UNL     1      42.125 -17.209   5.582  1.00  0.00    -0.035 A 
HETATM   29  C   UNL     1      42.296 -16.777   6.908  1.00  0.00     0.009 A 
HETATM   30  C   UNL     1      43.036 -17.540   7.815  1.00  0.00     0.001 A 
HETATM   31  C   UNL     1      43.624 -18.735   7.407  1.00  0.00     0.000 A 
HETATM   32  C   UNL     1      43.475 -19.170   6.093  1.00  0.00     0.001 A 
HETATM   33  C   UNL     1      42.731 -18.413   5.186  1.00  0.00     0.009 A 
ENDBRANCH   6  28
TORSDOF 6
ENDMDL
MODEL 10
REMARK VINA RESULT:      -7.9      5.136      8.824
REMARK  6 active torsions:
REMARK  status: ('A' for Active; 'I' for Inactive)
REMARK    1  A    between atoms: O_2  and  C_3 
REMARK    2  A    between atoms: C_6  and  C_7 
REMARK    3  A    between atoms: C_7  and  N_8 
REMARK       I    between atoms: N_8  and  C_9 
REMARK    4  A    between atoms: C_9  and  C_10 
REMARK    5  A    between atoms: C_13  and  C_14 
REMARK    6  A    between atoms: C_19  and  C_20 
ROOT
HETATM    1  C   UNL     1      41.061 -14.422   1.660  1.00  0.00     0.096 A 
HETATM    2  C   UNL     1      40.900 -13.627   0.538  1.00  0.00     0.138 A 
HETATM    3  N   UNL     1      39.590 -13.796   0.154  1.00  0.00    -0.240 N 
HETATM    4  C   UNL     1      38.962 -13.102  -0.955  1.00  0.00     0.221 C 
HETATM    5  C   UNL     1      39.737 -11.813  -1.262  1.00  0.00     0.066 C 
HETATM    6  C   UNL     1      41.246 -12.085  -1.350  1.00  0.00     0.118 C 
HETATM    7  N   UNL     1      41.712 -12.772  -0.141  1.00  0.00    -0.365 N 
HETATM    8  N   UNL     1      38.866 -14.559   0.984  1.00  0.00    -0.181 NA
HETATM    9  C   UNL     1      39.766 -14.955   1.888  1.00  0.00     0.160 A 
HETATM   10  H   UNL     1      42.538 -12.363   0.293  1.00  0.00     0.161 HD
ENDROOT
BRANCH   1  11
HETATM   11  C   UNL     1      42.227 -14.689   2.482  1.00  0.00     0.257 C 
HETATM   12  N   UNL     1      42.158 -15.823   3.255  1.00  0.00    -0.352 N 
HETATM   13  H   UNL     1      41.291 -16.339   3.272  1.00  0.00     0.163 HD
HETATM   14  O   UNL     1      43.188 -13.928   2.497  1.00  0.00    -0.267 OA
BRANCH  12  15
HETATM   15  C   UNL     1      43.238 -16.232   4.119  1.00  0.00     0.161 C 
BRANCH  15  16
HETATM   16  C   UNL     1      43.615 -17.675   3.902  1.00  0.00    -0.040 A 
HETATM   17  C   UNL     1      43.403 -18.284   2.656  1.00  0.00     0.011 A 
HETATM   18  C   UNL     1      43.768 -19.616   2.433  1.00  0.00     0.037 A 
HETATM   19  C   UNL     1      44.356 -20.361   3.453  1.00  0.00     0.068 A 
HETATM   20  C   UNL     1      44.554 -19.766   4.702  1.00  0.00     0.037 A 
HETATM   21  C   UNL     1      44.186 -18.436   4.929  1.00  0.00     0.011 A 
BRANCH  19  22
HETATM   22  O   UNL     1      44.771 -21.661   3.362  1.00  0.00    -0.356 OA
HETATM   23  C   UNL     1      44.754 -22.422   4.564  1.00  0.00     0.210 C 
ENDBRANCH  19  22
ENDBRANCH  15  16
ENDBRANCH  12  15
ENDBRANCH   1  11
BRANCH   4  24
HETATM   24  C   UNL     1      38.864 -14.027  -2.149  1.00  0.00     0.409 C 
HETATM   25  F   UNL     1      37.663 -14.635  -2.246  1.00  0.00    -0.169 F 
HETATM   26  F   UNL     1      39.028 -13.314  -3.295  1.00  0.00    -0.169 F 
HETATM   27  F   UNL     1      39.814 -14.986  -2.157  1.00  0.00    -0.169 F 
ENDBRANCH   4  24
BRANCH   6  28
HETATM   28  C   UNL     1      42.020 -10.801  -1.579  1.00  0.00    -0.035 A 
HETATM   29  C   UNL     1      41.806  -9.999  -2.712  1.00  0.00     0.009 A 
HETATM   30  C   UNL     1      42.549  -8.831  -2.909  1.00  0.00     0.001 A 
HETATM   31  C   UNL     1      43.520  -8.458  -1.983  1.00  0.00     0.000 A 
HETATM   32  C   UNL     1      43.752  -9.249  -0.861  1.00  0.00     0.001 A 
HETATM   33  C   UNL     1      43.008 -10.412  -0.659  1.00  0.00     0.009 A 
ENDBRANCH   6  28
TORSDOF 6
ENDMDL
