MODEL 1
REMARK VINA RESULT:      -8.1      0.000      0.000
REMARK  6 active torsions:
REMARK  status: ('A' for Active; 'I' for Inactive)
REMARK    1  A    between atoms: C_2  and  C_4 
REMARK    2  A    between atoms: C_2  and  C_11 
REMARK    3  A    between atoms: C_2  and  O_3 
REMARK    4  A    between atoms: C_11  and  N_12 
REMARK       I    between atoms: N_12  and  C_13 
REMARK    5  A    between atoms: C_13  and  C_14 
REMARK    6  A    between atoms: C_15  and  C_16 
ROOT
HETATM    1  N   UNL     1      42.272 -18.018   1.680  1.00  0.00    -0.354 N 
HETATM    2  C   UNL     1      43.625 -18.259   1.773  1.00  0.00     0.255 C 
HETATM    3  O   UNL     1      44.452 -17.492   1.287  1.00  0.00    -0.268 OA
HETATM    4  H   UNL     1      41.644 -18.785   1.884  1.00  0.00     0.162 HD
ENDROOT
BRANCH   2   5
HETATM    5  C   UNL     1      43.973 -19.494   2.449  1.00  0.00     0.080 A 
HETATM    6  C   UNL     1      44.079 -19.762   3.853  1.00  0.00     0.104 A 
HETATM    7  N   UNL     1      44.357 -21.062   4.065  1.00  0.00    -0.174 NA
HETATM    8  N   UNL     1      44.442 -21.601   2.846  1.00  0.00    -0.288 N 
HETATM    9  H   UNL     1      44.639 -22.594   2.775  1.00  0.00     0.188 HD
HETATM   10  C   UNL     1      44.239 -20.708   1.841  1.00  0.00     0.128 A 
BRANCH   6  11
HETATM   11  C   UNL     1      43.963 -18.849   4.995  1.00  0.00    -0.004 A 
HETATM   12  C   UNL     1      42.694 -18.412   5.416  1.00  0.00     0.017 A 
HETATM   13  C   UNL     1      42.561 -17.567   6.521  1.00  0.00     0.043 A 
HETATM   14  C   UNL     1      43.695 -17.159   7.210  1.00  0.00     0.116 A 
HETATM   15  F   UNL     1      43.568 -16.352   8.272  1.00  0.00    -0.206 F 
HETATM   16  C   UNL     1      44.959 -17.583   6.818  1.00  0.00     0.043 A 
HETATM   17  C   UNL     1      45.093 -18.432   5.716  1.00  0.00     0.017 A 
ENDBRANCH   6  11
ENDBRANCH   2   5
BRANCH   1  18
HETATM   18  C   UNL     1      41.748 -16.882   0.933  1.00  0.00     0.165 C 
BRANCH  18  19
HETATM   19  C   UNL     1      40.734 -16.000   1.727  1.00  0.00     0.097 C 
HETATM   20  C   UNL     1      40.187 -14.904   0.800  1.00  0.00     0.053 C 
BRANCH  19  21
HETATM   21  C   UNL     1      41.372 -15.365   2.969  1.00  0.00    -0.023 A 
HETATM   22  C   UNL     1      42.723 -14.963   2.965  1.00  0.00     0.013 A 
HETATM   23  C   UNL     1      43.305 -14.387   4.097  1.00  0.00     0.043 A 
HETATM   24  C   UNL     1      42.543 -14.205   5.243  1.00  0.00     0.116 A 
HETATM   25  F   UNL     1      43.102 -13.651   6.326  1.00  0.00    -0.206 F 
HETATM   26  C   UNL     1      41.209 -14.585   5.278  1.00  0.00     0.043 A 
HETATM   27  C   UNL     1      40.628 -15.160   4.145  1.00  0.00     0.013 A 
ENDBRANCH  19  21
BRANCH  19  28
HETATM   28  O   UNL     1      39.586 -16.770   2.119  1.00  0.00    -0.384 OA
HETATM   29  H   UNL     1      39.762 -17.176   2.994  1.00  0.00     0.211 HD
ENDBRANCH  19  28
ENDBRANCH  18  19
ENDBRANCH   1  18
TORSDOF 6
ENDMDL
MODEL 2
REMARK VINA RESULT:      -8.0      3.254      5.028
REMARK  6 active torsions:
REMARK  status: ('A' for Active; 'I' for Inactive)
REMARK    1  A    between atoms: C_2  and  C_4 
REMARK    2  A    between atoms: C_2  and  C_11 
REMARK    3  A    between atoms: C_2  and  O_3 
REMARK    4  A    between atoms: C_11  and  N_12 
REMARK       I    between atoms: N_12  and  C_13 
REMARK    5  A    between atoms: C_13  and  C_14 
REMARK    6  A    between atoms: C_15  and  C_16 
ROOT
HETATM    1  N   UNL     1      42.062 -16.009   3.989  1.00  0.00    -0.354 N 
HETATM    2  C   UNL     1      42.002 -17.134   4.782  1.00  0.00     0.255 C 
HETATM    3  O   UNL     1      40.951 -17.745   4.956  1.00  0.00    -0.268 OA
HETATM    4  H   UNL     1      42.882 -15.422   4.070  1.00  0.00     0.162 HD
ENDROOT
BRANCH   2   5
HETATM    5  C   UNL     1      43.258 -17.499   5.407  1.00  0.00     0.080 A 
HETATM    6  C   UNL     1      44.211 -18.496   5.017  1.00  0.00     0.104 A 
HETATM    7  N   UNL     1      45.284 -18.467   5.831  1.00  0.00    -0.174 NA
HETATM    8  N   UNL     1      45.021 -17.501   6.715  1.00  0.00    -0.288 N 
HETATM    9  H   UNL     1      45.717 -17.303   7.426  1.00  0.00     0.188 HD
HETATM   10  C   UNL     1      43.818 -16.900   6.522  1.00  0.00     0.128 A 
BRANCH   6  11
HETATM   11  C   UNL     1      44.142 -19.491   3.942  1.00  0.00    -0.004 A 
HETATM   12  C   UNL     1      44.655 -20.784   4.150  1.00  0.00     0.017 A 
HETATM   13  C   UNL     1      44.571 -21.755   3.148  1.00  0.00     0.043 A 
HETATM   14  C   UNL     1      43.972 -21.438   1.937  1.00  0.00     0.116 A 
HETATM   15  F   UNL     1      43.887 -22.369   0.977  1.00  0.00    -0.206 F 
HETATM   16  C   UNL     1      43.450 -20.170   1.710  1.00  0.00     0.043 A 
HETATM   17  C   UNL     1      43.529 -19.200   2.713  1.00  0.00     0.017 A 
ENDBRANCH   6  11
ENDBRANCH   2   5
BRANCH   1  18
HETATM   18  C   UNL     1      40.868 -15.439   3.379  1.00  0.00     0.165 C 
BRANCH  18  19
HETATM   19  C   UNL     1      40.549 -15.986   1.952  1.00  0.00     0.097 C 
HETATM   20  C   UNL     1      41.867 -16.268   1.215  1.00  0.00     0.053 C 
BRANCH  19  21
HETATM   21  C   UNL     1      39.693 -15.008   1.139  1.00  0.00    -0.023 A 
HETATM   22  C   UNL     1      38.369 -14.710   1.521  1.00  0.00     0.013 A 
HETATM   23  C   UNL     1      37.589 -13.821   0.777  1.00  0.00     0.043 A 
HETATM   24  C   UNL     1      38.124 -13.219  -0.353  1.00  0.00     0.116 A 
HETATM   25  F   UNL     1      37.374 -12.365  -1.063  1.00  0.00    -0.206 F 
HETATM   26  C   UNL     1      39.424 -13.486  -0.754  1.00  0.00     0.043 A 
HETATM   27  C   UNL     1      40.204 -14.375  -0.010  1.00  0.00     0.013 A 
ENDBRANCH  19  21
BRANCH  19  28
HETATM   28  O   UNL     1      39.882 -17.256   2.029  1.00  0.00    -0.384 OA
HETATM   29  H   UNL     1      40.553 -17.958   2.164  1.00  0.00     0.211 HD
ENDBRANCH  19  28
ENDBRANCH  18  19
ENDBRANCH   1  18
TORSDOF 6
ENDMDL
MODEL 3
REMARK VINA RESULT:      -7.8      2.675      5.487
REMARK  6 active torsions:
REMARK  status: ('A' for Active; 'I' for Inactive)
REMARK    1  A    between atoms: C_2  and  C_4 
REMARK    2  A    between atoms: C_2  and  C_11 
REMARK    3  A    between atoms: C_2  and  O_3 
REMARK    4  A    between atoms: C_11  and  N_12 
REMARK       I    between atoms: N_12  and  C_13 
REMARK    5  A    between atoms: C_13  and  C_14 
REMARK    6  A    between atoms: C_15  and  C_16 
ROOT
HETATM    1  N   UNL     1      41.212 -16.961   3.170  1.00  0.00    -0.354 N 
HETATM    2  C   UNL     1      41.117 -15.602   2.971  1.00  0.00     0.255 C 
HETATM    3  O   UNL     1      41.449 -15.080   1.910  1.00  0.00    -0.268 OA
HETATM    4  H   UNL     1      41.153 -17.302   4.121  1.00  0.00     0.162 HD
ENDROOT
BRANCH   2   5
HETATM    5  C   UNL     1      40.635 -14.857   4.118  1.00  0.00     0.080 A 
HETATM    6  C   UNL     1      41.092 -14.884   5.476  1.00  0.00     0.104 A 
HETATM    7  N   UNL     1      40.419 -13.983   6.217  1.00  0.00    -0.174 NA
HETATM    8  N   UNL     1      39.556 -13.414   5.372  1.00  0.00    -0.288 N 
HETATM    9  H   UNL     1      38.947 -12.686   5.730  1.00  0.00     0.188 HD
HETATM   10  C   UNL     1      39.628 -13.908   4.107  1.00  0.00     0.128 A 
BRANCH   6  11
HETATM   11  C   UNL     1      42.103 -15.736   6.110  1.00  0.00    -0.004 A 
HETATM   12  C   UNL     1      41.723 -16.961   6.687  1.00  0.00     0.017 A 
HETATM   13  C   UNL     1      42.676 -17.802   7.268  1.00  0.00     0.043 A 
HETATM   14  C   UNL     1      44.011 -17.423   7.271  1.00  0.00     0.116 A 
HETATM   15  F   UNL     1      44.926 -18.230   7.825  1.00  0.00    -0.206 F 
HETATM   16  C   UNL     1      44.413 -16.221   6.701  1.00  0.00     0.043 A 
HETATM   17  C   UNL     1      43.461 -15.382   6.115  1.00  0.00     0.017 A 
ENDBRANCH   6  11
ENDBRANCH   2   5
BRANCH   1  18
HETATM   18  C   UNL     1      41.785 -17.843   2.161  1.00  0.00     0.165 C 
BRANCH  18  19
HETATM   19  C   UNL     1      43.342 -17.947   2.204  1.00  0.00     0.097 C 
HETATM   20  C   UNL     1      43.896 -17.799   0.779  1.00  0.00     0.053 C 
BRANCH  19  21
HETATM   21  C   UNL     1      43.814 -19.273   2.814  1.00  0.00    -0.023 A 
HETATM   22  C   UNL     1      43.821 -20.459   2.053  1.00  0.00     0.013 A 
HETATM   23  C   UNL     1      44.248 -21.667   2.610  1.00  0.00     0.043 A 
HETATM   24  C   UNL     1      44.675 -21.702   3.930  1.00  0.00     0.116 A 
HETATM   25  F   UNL     1      45.086 -22.861   4.461  1.00  0.00    -0.206 F 
HETATM   26  C   UNL     1      44.685 -20.551   4.705  1.00  0.00     0.043 A 
HETATM   27  C   UNL     1      44.259 -19.343   4.147  1.00  0.00     0.013 A 
ENDBRANCH  19  21
BRANCH  19  28
HETATM   28  O   UNL     1      43.907 -16.852   2.943  1.00  0.00    -0.384 OA
HETATM   29  H   UNL     1      43.442 -16.027   2.690  1.00  0.00     0.211 HD
ENDBRANCH  19  28
ENDBRANCH  18  19
ENDBRANCH   1  18
TORSDOF 6
ENDMDL
MODEL 4
REMARK VINA RESULT:      -7.8      3.204      4.638
REMARK  6 active torsions:
REMARK  status: ('A' for Active; 'I' for Inactive)
REMARK    1  A    between atoms: C_2  and  C_4 
REMARK    2  A    between atoms: C_2  and  C_11 
REMARK    3  A    between atoms: C_2  and  O_3 
REMARK    4  A    between atoms: C_11  and  N_12 
REMARK       I    between atoms: N_12  and  C_13 
REMARK    5  A    between atoms: C_13  and  C_14 
REMARK    6  A    between atoms: C_15  and  C_16 
ROOT
HETATM    1  N   UNL     1      41.618 -15.995   5.851  1.00  0.00    -0.354 N 
HETATM    2  C   UNL     1      41.797 -17.360   5.853  1.00  0.00     0.255 C 
HETATM    3  O   UNL     1      41.134 -18.099   5.131  1.00  0.00    -0.268 OA
HETATM    4  H   UNL     1      42.013 -15.468   6.619  1.00  0.00     0.162 HD
ENDROOT
BRANCH   2   5
HETATM    5  C   UNL     1      42.792 -17.836   6.794  1.00  0.00     0.080 A 
HETATM    6  C   UNL     1      43.814 -18.824   6.614  1.00  0.00     0.104 A 
HETATM    7  N   UNL     1      44.578 -18.920   7.718  1.00  0.00    -0.174 NA
HETATM    8  N   UNL     1      44.056 -18.040   8.577  1.00  0.00    -0.288 N 
HETATM    9  H   UNL     1      44.496 -17.943   9.486  1.00  0.00     0.188 HD
HETATM   10  C   UNL     1      42.978 -17.376   8.086  1.00  0.00     0.128 A 
BRANCH   6  11
HETATM   11  C   UNL     1      44.081 -19.701   5.468  1.00  0.00    -0.004 A 
HETATM   12  C   UNL     1      44.078 -19.171   4.166  1.00  0.00     0.017 A 
HETATM   13  C   UNL     1      44.361 -19.982   3.064  1.00  0.00     0.043 A 
HETATM   14  C   UNL     1      44.651 -21.325   3.261  1.00  0.00     0.116 A 
HETATM   15  F   UNL     1      44.926 -22.104   2.206  1.00  0.00    -0.206 F 
HETATM   16  C   UNL     1      44.668 -21.872   4.539  1.00  0.00     0.043 A 
HETATM   17  C   UNL     1      44.390 -21.059   5.642  1.00  0.00     0.017 A 
ENDBRANCH   6  11
ENDBRANCH   2   5
BRANCH   1  18
HETATM   18  C   UNL     1      40.579 -15.362   5.049  1.00  0.00     0.165 C 
BRANCH  18  19
HETATM   19  C   UNL     1      41.106 -14.614   3.783  1.00  0.00     0.097 C 
HETATM   20  C   UNL     1      39.924 -13.941   3.068  1.00  0.00     0.053 C 
BRANCH  19  21
HETATM   21  C   UNL     1      41.832 -15.558   2.818  1.00  0.00    -0.023 A 
HETATM   22  C   UNL     1      43.238 -15.550   2.715  1.00  0.00     0.013 A 
HETATM   23  C   UNL     1      43.899 -16.408   1.832  1.00  0.00     0.043 A 
HETATM   24  C   UNL     1      43.164 -17.285   1.047  1.00  0.00     0.116 A 
HETATM   25  F   UNL     1      43.800 -18.108   0.203  1.00  0.00    -0.206 F 
HETATM   26  C   UNL     1      41.779 -17.321   1.127  1.00  0.00     0.043 A 
HETATM   27  C   UNL     1      41.119 -16.464   2.010  1.00  0.00     0.013 A 
ENDBRANCH  19  21
BRANCH  19  28
HETATM   28  O   UNL     1      41.984 -13.540   4.154  1.00  0.00    -0.384 OA
HETATM   29  H   UNL     1      41.667 -12.713   3.732  1.00  0.00     0.211 HD
ENDBRANCH  19  28
ENDBRANCH  18  19
ENDBRANCH   1  18
TORSDOF 6
ENDMDL
MODEL 5
REMARK VINA RESULT:      -7.8      3.461      6.595
REMARK  6 active torsions:
REMARK  status: ('A' for Active; 'I' for Inactive)
REMARK    1  A    between atoms: C_2  and  C_4 
REMARK    2  A    between atoms: C_2  and  C_11 
REMARK    3  A    between atoms: C_2  and  O_3 
REMARK    4  A    between atoms: C_11  and  N_12 
REMARK       I    between atoms: N_12  and  C_13 
REMARK    5  A    between atoms: C_13  and  C_14 
REMARK    6  A    between atoms: C_15  and  C_16 
ROOT
HETATM    1  N   UNL     1      42.433 -15.788   5.527  1.00  0.00    -0.354 N 
HETATM    2  C   UNL     1      41.574 -14.753   5.233  1.00  0.00     0.255 C 
HETATM    3  O   UNL     1      40.595 -14.508   5.931  1.00  0.00    -0.268 OA
HETATM    4  H   UNL     1      43.073 -16.088   4.803  1.00  0.00     0.162 HD
ENDROOT
BRANCH   2   5
HETATM    5  C   UNL     1      41.906 -14.019   4.027  1.00  0.00     0.080 A 
HETATM    6  C   UNL     1      42.320 -14.513   2.747  1.00  0.00     0.104 A 
HETATM    7  N   UNL     1      42.460 -13.499   1.873  1.00  0.00    -0.174 NA
HETATM    8  N   UNL     1      42.165 -12.399   2.569  1.00  0.00    -0.288 N 
HETATM    9  H   UNL     1      42.200 -11.506   2.088  1.00  0.00     0.188 HD
HETATM   10  C   UNL     1      41.843 -12.645   3.866  1.00  0.00     0.128 A 
BRANCH   6  11
HETATM   11  C   UNL     1      42.618 -15.885   2.322  1.00  0.00    -0.004 A 
HETATM   12  C   UNL     1      43.952 -16.278   2.110  1.00  0.00     0.017 A 
HETATM   13  C   UNL     1      44.259 -17.588   1.736  1.00  0.00     0.043 A 
HETATM   14  C   UNL     1      43.235 -18.511   1.575  1.00  0.00     0.116 A 
HETATM   15  F   UNL     1      43.528 -19.769   1.219  1.00  0.00    -0.206 F 
HETATM   16  C   UNL     1      41.909 -18.150   1.785  1.00  0.00     0.043 A 
HETATM   17  C   UNL     1      41.602 -16.841   2.165  1.00  0.00     0.017 A 
ENDBRANCH   6  11
ENDBRANCH   2   5
BRANCH   1  18
HETATM   18  C   UNL     1      42.182 -16.697   6.638  1.00  0.00     0.165 C 
BRANCH  18  19
HETATM   19  C   UNL     1      43.468 -17.326   7.262  1.00  0.00     0.097 C 
HETATM   20  C   UNL     1      44.641 -16.349   7.088  1.00  0.00     0.053 C 
BRANCH  19  21
HETATM   21  C   UNL     1      43.814 -18.678   6.627  1.00  0.00    -0.023 A 
HETATM   22  C   UNL     1      43.604 -19.883   7.326  1.00  0.00     0.013 A 
HETATM   23  C   UNL     1      43.923 -21.114   6.748  1.00  0.00     0.043 A 
HETATM   24  C   UNL     1      44.451 -21.154   5.465  1.00  0.00     0.116 A 
HETATM   25  F   UNL     1      44.754 -22.336   4.912  1.00  0.00    -0.206 F 
HETATM   26  C   UNL     1      44.666 -19.986   4.748  1.00  0.00     0.043 A 
HETATM   27  C   UNL     1      44.346 -18.756   5.326  1.00  0.00     0.013 A 
ENDBRANCH  19  21
BRANCH  19  28
HETATM   28  O   UNL     1      43.320 -17.487   8.681  1.00  0.00    -0.384 OA
HETATM   29  H   UNL     1      42.478 -17.957   8.860  1.00  0.00     0.211 HD
ENDBRANCH  19  28
ENDBRANCH  18  19
ENDBRANCH   1  18
TORSDOF 6
ENDMDL
MODEL 6
REMARK VINA RESULT:      -7.7      2.715      6.100
REMARK  6 active torsions:
REMARK  status: ('A' for Active; 'I' for Inactive)
REMARK    1  A    between atoms: C_2  and  C_4 
REMARK    2  A    between atoms: C_2  and  C_11 
REMARK    3  A    between atoms: C_2  and  O_3 
REMARK    4  A    between atoms: C_11  and  N_12 
REMARK       I    between atoms: N_12  and  C_13 
REMARK    5  A    between atoms: C_13  and  C_14 
REMARK    6  A    between atoms: C_15  and  C_16 
ROOT
HETATM    1  N   UNL     1      40.983 -16.881   1.971  1.00  0.00    -0.354 N 
HETATM    2  C   UNL     1      40.751 -15.874   1.060  1.00  0.00     0.255 C 
HETATM    3  O   UNL     1      41.171 -15.937  -0.092  1.00  0.00    -0.268 OA
HETATM    4  H   UNL     1      40.825 -16.675   2.948  1.00  0.00     0.162 HD
ENDROOT
BRANCH   2   5
HETATM    5  C   UNL     1      40.014 -14.742   1.587  1.00  0.00     0.080 A 
HETATM    6  C   UNL     1      40.347 -13.867   2.671  1.00  0.00     0.104 A 
HETATM    7  N   UNL     1      39.424 -12.894   2.792  1.00  0.00    -0.174 NA
HETATM    8  N   UNL     1      38.528 -13.146   1.835  1.00  0.00    -0.288 N 
HETATM    9  H   UNL     1      37.739 -12.515   1.741  1.00  0.00     0.188 HD
HETATM   10  C   UNL     1      38.819 -14.247   1.094  1.00  0.00     0.128 A 
BRANCH   6  11
HETATM   11  C   UNL     1      41.470 -13.924   3.613  1.00  0.00    -0.004 A 
HETATM   12  C   UNL     1      41.242 -14.290   4.952  1.00  0.00     0.017 A 
HETATM   13  C   UNL     1      42.302 -14.380   5.858  1.00  0.00     0.043 A 
HETATM   14  C   UNL     1      43.594 -14.109   5.427  1.00  0.00     0.116 A 
HETATM   15  F   UNL     1      44.612 -14.199   6.293  1.00  0.00    -0.206 F 
HETATM   16  C   UNL     1      43.846 -13.753   4.108  1.00  0.00     0.043 A 
HETATM   17  C   UNL     1      42.786 -13.667   3.200  1.00  0.00     0.017 A 
ENDBRANCH   6  11
ENDBRANCH   2   5
BRANCH   1  18
HETATM   18  C   UNL     1      41.806 -18.037   1.638  1.00  0.00     0.165 C 
BRANCH  18  19
HETATM   19  C   UNL     1      43.215 -18.041   2.310  1.00  0.00     0.097 C 
HETATM   20  C   UNL     1      44.222 -17.360   1.371  1.00  0.00     0.053 C 
BRANCH  19  21
HETATM   21  C   UNL     1      43.690 -19.460   2.645  1.00  0.00    -0.023 A 
HETATM   22  C   UNL     1      44.346 -19.738   3.861  1.00  0.00     0.013 A 
HETATM   23  C   UNL     1      44.780 -21.031   4.164  1.00  0.00     0.043 A 
HETATM   24  C   UNL     1      44.562 -22.059   3.258  1.00  0.00     0.116 A 
HETATM   25  F   UNL     1      44.978 -23.298   3.552  1.00  0.00    -0.206 F 
HETATM   26  C   UNL     1      43.916 -21.820   2.054  1.00  0.00     0.043 A 
HETATM   27  C   UNL     1      43.480 -20.527   1.752  1.00  0.00     0.013 A 
ENDBRANCH  19  21
BRANCH  19  28
HETATM   28  O   UNL     1      43.213 -17.242   3.504  1.00  0.00    -0.384 OA
HETATM   29  H   UNL     1      44.137 -17.141   3.818  1.00  0.00     0.211 HD
ENDBRANCH  19  28
ENDBRANCH  18  19
ENDBRANCH   1  18
TORSDOF 6
ENDMDL
MODEL 7
REMARK VINA RESULT:      -7.6      3.240      4.862
REMARK  6 active torsions:
REMARK  status: ('A' for Active; 'I' for Inactive)
REMARK    1  A    between atoms: C_2  and  C_4 
REMARK    2  A    between atoms: C_2  and  C_11 
REMARK    3  A    between atoms: C_2  and  O_3 
REMARK    4  A    between atoms: C_11  and  N_12 
REMARK       I    between atoms: N_12  and  C_13 
REMARK    5  A    between atoms: C_13  and  C_14 
REMARK    6  A    between atoms: C_15  and  C_16 
ROOT
HETATM    1  N   UNL     1      42.427 -15.004   6.244  1.00  0.00    -0.354 N 
HETATM    2  C   UNL     1      43.665 -15.531   6.538  1.00  0.00     0.255 C 
HETATM    3  O   UNL     1      44.702 -14.942   6.246  1.00  0.00    -0.268 OA
HETATM    4  H   UNL     1      41.630 -15.625   6.290  1.00  0.00     0.162 HD
ENDROOT
BRANCH   2   5
HETATM    5  C   UNL     1      43.631 -16.833   7.174  1.00  0.00     0.080 A 
HETATM    6  C   UNL     1      43.676 -18.136   6.580  1.00  0.00     0.104 A 
HETATM    7  N   UNL     1      43.692 -19.089   7.532  1.00  0.00    -0.174 NA
HETATM    8  N   UNL     1      43.643 -18.422   8.688  1.00  0.00    -0.288 N 
HETATM    9  H   UNL     1      43.656 -18.959   9.550  1.00  0.00     0.188 HD
HETATM   10  C   UNL     1      43.588 -17.073   8.537  1.00  0.00     0.128 A 
BRANCH   6  11
HETATM   11  C   UNL     1      43.670 -18.524   5.166  1.00  0.00    -0.004 A 
HETATM   12  C   UNL     1      44.564 -19.508   4.706  1.00  0.00     0.017 A 
HETATM   13  C   UNL     1      44.553 -19.914   3.369  1.00  0.00     0.043 A 
HETATM   14  C   UNL     1      43.647 -19.340   2.488  1.00  0.00     0.116 A 
HETATM   15  F   UNL     1      43.632 -19.730   1.206  1.00  0.00    -0.206 F 
HETATM   16  C   UNL     1      42.748 -18.371   2.919  1.00  0.00     0.043 A 
HETATM   17  C   UNL     1      42.755 -17.968   4.258  1.00  0.00     0.017 A 
ENDBRANCH   6  11
ENDBRANCH   2   5
BRANCH   1  18
HETATM   18  C   UNL     1      42.283 -13.758   5.503  1.00  0.00     0.165 C 
BRANCH  18  19
HETATM   19  C   UNL     1      40.964 -13.648   4.675  1.00  0.00     0.097 C 
HETATM   20  C   UNL     1      39.791 -14.156   5.528  1.00  0.00     0.053 C 
BRANCH  19  21
HETATM   21  C   UNL     1      41.039 -14.439   3.364  1.00  0.00    -0.023 A 
HETATM   22  C   UNL     1      39.990 -15.296   2.973  1.00  0.00     0.013 A 
HETATM   23  C   UNL     1      40.061 -16.019   1.779  1.00  0.00     0.043 A 
HETATM   24  C   UNL     1      41.177 -15.891   0.964  1.00  0.00     0.116 A 
HETATM   25  F   UNL     1      41.241 -16.584  -0.181  1.00  0.00    -0.206 F 
HETATM   26  C   UNL     1      42.224 -15.053   1.318  1.00  0.00     0.043 A 
HETATM   27  C   UNL     1      42.153 -14.329   2.510  1.00  0.00     0.013 A 
ENDBRANCH  19  21
BRANCH  19  28
HETATM   28  O   UNL     1      40.654 -12.275   4.389  1.00  0.00    -0.384 OA
HETATM   29  H   UNL     1      40.144 -11.903   5.140  1.00  0.00     0.211 HD
ENDBRANCH  19  28
ENDBRANCH  18  19
ENDBRANCH   1  18
TORSDOF 6
ENDMDL
MODEL 8
REMARK VINA RESULT:      -7.4      3.324      4.995
REMARK  6 active torsions:
REMARK  status: ('A' for Active; 'I' for Inactive)
REMARK    1  A    between atoms: C_2  and  C_4 
REMARK    2  A    between atoms: C_2  and  C_11 
REMARK    3  A    between atoms: C_2  and  O_3 
REMARK    4  A    between atoms: C_11  and  N_12 
REMARK       I    between atoms: N_12  and  C_13 
REMARK    5  A    between atoms: C_13  and  C_14 
REMARK    6  A    between atoms: C_15  and  C_16 
ROOT
HETATM    1  N   UNL     1      42.142 -15.892   4.313  1.00  0.00    -0.354 N 
HETATM    2  C   UNL     1      42.125 -17.131   4.914  1.00  0.00     0.255 C 
HETATM    3  O   UNL     1      41.106 -17.814   4.956  1.00  0.00    -0.268 OA
HETATM    4  H   UNL     1      42.926 -15.284   4.512  1.00  0.00     0.162 HD
ENDROOT
BRANCH   2   5
HETATM    5  C   UNL     1      43.385 -17.529   5.510  1.00  0.00     0.080 A 
HETATM    6  C   UNL     1      44.314 -18.534   5.087  1.00  0.00     0.104 A 
HETATM    7  N   UNL     1      45.401 -18.538   5.882  1.00  0.00    -0.174 NA
HETATM    8  N   UNL     1      45.169 -17.584   6.788  1.00  0.00    -0.288 N 
HETATM    9  H   UNL     1      45.881 -17.409   7.490  1.00  0.00     0.188 HD
HETATM   10  C   UNL     1      43.974 -16.958   6.626  1.00  0.00     0.128 A 
BRANCH   6  11
HETATM   11  C   UNL     1      44.210 -19.508   3.995  1.00  0.00    -0.004 A 
HETATM   12  C   UNL     1      44.680 -20.821   4.181  1.00  0.00     0.017 A 
HETATM   13  C   UNL     1      44.562 -21.772   3.164  1.00  0.00     0.043 A 
HETATM   14  C   UNL     1      43.971 -21.415   1.960  1.00  0.00     0.116 A 
HETATM   15  F   UNL     1      43.853 -22.327   0.985  1.00  0.00    -0.206 F 
HETATM   16  C   UNL     1      43.491 -20.127   1.754  1.00  0.00     0.043 A 
HETATM   17  C   UNL     1      43.605 -19.177   2.773  1.00  0.00     0.017 A 
ENDBRANCH   6  11
ENDBRANCH   2   5
BRANCH   1  18
HETATM   18  C   UNL     1      40.931 -15.292   3.766  1.00  0.00     0.165 C 
BRANCH  18  19
HETATM   19  C   UNL     1      41.188 -14.136   2.748  1.00  0.00     0.097 C 
HETATM   20  C   UNL     1      40.135 -13.037   2.960  1.00  0.00     0.053 C 
BRANCH  19  21
HETATM   21  C   UNL     1      41.146 -14.627   1.297  1.00  0.00    -0.023 A 
HETATM   22  C   UNL     1      41.452 -15.965   0.974  1.00  0.00     0.013 A 
HETATM   23  C   UNL     1      41.418 -16.411  -0.350  1.00  0.00     0.043 A 
HETATM   24  C   UNL     1      41.075 -15.527  -1.363  1.00  0.00     0.116 A 
HETATM   25  F   UNL     1      41.041 -15.958  -2.631  1.00  0.00    -0.206 F 
HETATM   26  C   UNL     1      40.764 -14.205  -1.079  1.00  0.00     0.043 A 
HETATM   27  C   UNL     1      40.798 -13.760   0.244  1.00  0.00     0.013 A 
ENDBRANCH  19  21
BRANCH  19  28
HETATM   28  O   UNL     1      42.450 -13.501   3.004  1.00  0.00    -0.384 OA
HETATM   29  H   UNL     1      42.568 -13.410   3.973  1.00  0.00     0.211 HD
ENDBRANCH  19  28
ENDBRANCH  18  19
ENDBRANCH   1  18
TORSDOF 6
ENDMDL
MODEL 9
REMARK VINA RESULT:      -7.4      3.834      7.682
REMARK  6 active torsions:
REMARK  status: ('A' for Active; 'I' for Inactive)
REMARK    1  A    between atoms: C_2  and  C_4 
REMARK    2  A    between atoms: C_2  and  C_11 
REMARK    3  A    between atoms: C_2  and  O_3 
REMARK    4  A    between atoms: C_11  and  N_12 
REMARK       I    between atoms: N_12  and  C_13 
REMARK    5  A    between atoms: C_13  and  C_14 
REMARK    6  A    between atoms: C_15  and  C_16 
ROOT
HETATM    1  N   UNL     1      41.781 -15.777   2.755  1.00  0.00    -0.354 N 
HETATM    2  C   UNL     1      41.449 -15.771   1.418  1.00  0.00     0.255 C 
HETATM    3  O   UNL     1      42.195 -16.245   0.566  1.00  0.00    -0.268 OA
HETATM    4  H   UNL     1      41.253 -15.174   3.372  1.00  0.00     0.162 HD
ENDROOT
BRANCH   2   5
HETATM    5  C   UNL     1      40.182 -15.134   1.114  1.00  0.00     0.080 A 
HETATM    6  C   UNL     1      39.839 -14.268   0.026  1.00  0.00     0.104 A 
HETATM    7  N   UNL     1      38.531 -13.950   0.071  1.00  0.00    -0.174 NA
HETATM    8  N   UNL     1      38.061 -14.574   1.153  1.00  0.00    -0.288 N 
HETATM    9  H   UNL     1      37.074 -14.474   1.371  1.00  0.00     0.188 HD
HETATM   10  C   UNL     1      39.004 -15.283   1.826  1.00  0.00     0.128 A 
BRANCH   6  11
HETATM   11  C   UNL     1      40.688 -13.703  -1.028  1.00  0.00    -0.004 A 
HETATM   12  C   UNL     1      40.441 -14.027  -2.374  1.00  0.00     0.017 A 
HETATM   13  C   UNL     1      41.219 -13.474  -3.395  1.00  0.00     0.043 A 
HETATM   14  C   UNL     1      42.243 -12.594  -3.074  1.00  0.00     0.116 A 
HETATM   15  F   UNL     1      42.988 -12.060  -4.052  1.00  0.00    -0.206 F 
HETATM   16  C   UNL     1      42.503 -12.252  -1.753  1.00  0.00     0.043 A 
HETATM   17  C   UNL     1      41.722 -12.801  -0.731  1.00  0.00     0.017 A 
ENDBRANCH   6  11
ENDBRANCH   2   5
BRANCH   1  18
HETATM   18  C   UNL     1      43.069 -16.274   3.220  1.00  0.00     0.165 C 
BRANCH  18  19
HETATM   19  C   UNL     1      42.976 -17.464   4.227  1.00  0.00     0.097 C 
HETATM   20  C   UNL     1      43.788 -17.121   5.486  1.00  0.00     0.053 C 
BRANCH  19  21
HETATM   21  C   UNL     1      43.485 -18.776   3.618  1.00  0.00    -0.023 A 
HETATM   22  C   UNL     1      43.003 -19.232   2.374  1.00  0.00     0.013 A 
HETATM   23  C   UNL     1      43.464 -20.430   1.821  1.00  0.00     0.043 A 
HETATM   24  C   UNL     1      44.412 -21.181   2.502  1.00  0.00     0.116 A 
HETATM   25  F   UNL     1      44.854 -22.327   1.968  1.00  0.00    -0.206 F 
HETATM   26  C   UNL     1      44.909 -20.757   3.726  1.00  0.00     0.043 A 
HETATM   27  C   UNL     1      44.449 -19.560   4.278  1.00  0.00     0.013 A 
ENDBRANCH  19  21
BRANCH  19  28
HETATM   28  O   UNL     1      41.627 -17.640   4.686  1.00  0.00    -0.384 OA
HETATM   29  H   UNL     1      41.290 -18.499   4.355  1.00  0.00     0.211 HD
ENDBRANCH  19  28
ENDBRANCH  18  19
ENDBRANCH   1  18
TORSDOF 6
ENDMDL
MODEL 10
REMARK VINA RESULT:      -7.4      2.853      4.853
REMARK  6 active torsions:
REMARK  status: ('A' for Active; 'I' for Inactive)
REMARK    1  A    between atoms: C_2  and  C_4 
REMARK    2  A    between atoms: C_2  and  C_11 
REMARK    3  A    between atoms: C_2  and  O_3 
REMARK    4  A    between atoms: C_11  and  N_12 
REMARK       I    between atoms: N_12  and  C_13 
REMARK    5  A    between atoms: C_13  and  C_14 
REMARK    6  A    between atoms: C_15  and  C_16 
ROOT
HETATM    1  N   UNL     1      40.639 -13.824   2.876  1.00  0.00    -0.354 N 
HETATM    2  C   UNL     1      41.698 -13.861   1.996  1.00  0.00     0.255 C 
HETATM    3  O   UNL     1      42.729 -13.226   2.201  1.00  0.00    -0.268 OA
HETATM    4  H   UNL     1      39.745 -14.167   2.548  1.00  0.00     0.162 HD
ENDROOT
BRANCH   2   5
HETATM    5  C   UNL     1      41.473 -14.670   0.814  1.00  0.00     0.080 A 
HETATM    6  C   UNL     1      41.730 -16.064   0.605  1.00  0.00     0.104 A 
HETATM    7  N   UNL     1      41.309 -16.443  -0.616  1.00  0.00    -0.174 NA
HETATM    8  N   UNL     1      40.817 -15.333  -1.173  1.00  0.00    -0.288 N 
HETATM    9  H   UNL     1      40.431 -15.399  -2.109  1.00  0.00     0.188 HD
HETATM   10  C   UNL     1      40.903 -14.239  -0.371  1.00  0.00     0.128 A 
BRANCH   6  11
HETATM   11  C   UNL     1      42.381 -17.041   1.485  1.00  0.00    -0.004 A 
HETATM   12  C   UNL     1      43.597 -17.631   1.098  1.00  0.00     0.017 A 
HETATM   13  C   UNL     1      44.248 -18.541   1.935  1.00  0.00     0.043 A 
HETATM   14  C   UNL     1      43.686 -18.860   3.164  1.00  0.00     0.116 A 
HETATM   15  F   UNL     1      44.311 -19.729   3.970  1.00  0.00    -0.206 F 
HETATM   16  C   UNL     1      42.489 -18.286   3.573  1.00  0.00     0.043 A 
HETATM   17  C   UNL     1      41.840 -17.372   2.738  1.00  0.00     0.017 A 
ENDBRANCH   6  11
ENDBRANCH   2   5
BRANCH   1  18
HETATM   18  C   UNL     1      40.655 -12.969   4.056  1.00  0.00     0.165 C 
BRANCH  18  19
HETATM   19  C   UNL     1      40.445 -13.727   5.405  1.00  0.00     0.097 C 
HETATM   20  C   UNL     1      40.129 -12.708   6.510  1.00  0.00     0.053 C 
BRANCH  19  21
HETATM   21  C   UNL     1      41.673 -14.559   5.795  1.00  0.00    -0.023 A 
HETATM   22  C   UNL     1      42.972 -14.023   5.698  1.00  0.00     0.013 A 
HETATM   23  C   UNL     1      44.091 -14.783   6.050  1.00  0.00     0.043 A 
HETATM   24  C   UNL     1      43.922 -16.083   6.506  1.00  0.00     0.116 A 
HETATM   25  F   UNL     1      44.996 -16.809   6.845  1.00  0.00    -0.206 F 
HETATM   26  C   UNL     1      42.656 -16.639   6.617  1.00  0.00     0.043 A 
HETATM   27  C   UNL     1      41.538 -15.879   6.265  1.00  0.00     0.013 A 
ENDBRANCH  19  21
BRANCH  19  28
HETATM   28  O   UNL     1      39.291 -14.579   5.337  1.00  0.00    -0.384 OA
HETATM   29  H   UNL     1      38.578 -14.108   4.856  1.00  0.00     0.211 HD
ENDBRANCH  19  28
ENDBRANCH  18  19
ENDBRANCH   1  18
TORSDOF 6
ENDMDL
