MODEL 1
REMARK VINA RESULT:      -8.0      0.000      0.000
REMARK  4 active torsions:
REMARK  status: ('A' for Active; 'I' for Inactive)
REMARK    1  A    between atoms: C_8  and  N_9 
REMARK       I    between atoms: N_9  and  C_10 
REMARK       I    between atoms: C_10  and  N_11 
REMARK    2  A    between atoms: N_11  and  C_12 
REMARK    3  A    between atoms: C_15  and  C_16 
REMARK       I    between atoms: C_16  and  N_17 
REMARK    4  A    between atoms: N_17  and  C_18 
ROOT
HETATM    1  C   UNL     1      43.678 -10.344  10.857  1.00  0.00     0.036 A 
HETATM    2  C   UNL     1      44.808 -11.129  11.094  1.00  0.00     0.030 A 
HETATM    3  C   UNL     1      45.256 -12.043  10.132  1.00  0.00     0.019 A 
HETATM    4  C   UNL     1      44.563 -12.191   8.928  1.00  0.00     0.032 A 
HETATM    5  C   UNL     1      43.460 -11.374   8.665  1.00  0.00     0.019 A 
HETATM    6  C   UNL     1      43.019 -10.458   9.626  1.00  0.00     0.030 A 
ENDROOT
BRANCH   1   7
HETATM    7  N   UNL     1      43.113  -9.475  11.813  1.00  0.00    -0.309 N 
HETATM    8  C   UNL     1      41.849  -9.551  12.381  1.00  0.00     0.325 C 
HETATM    9  N   UNL     1      41.541  -8.353  13.003  1.00  0.00    -0.305 N 
HETATM   10  O   UNL     1      41.105 -10.518  12.306  1.00  0.00    -0.247 OA
HETATM   11  H   UNL     1      42.050  -7.547  12.678  1.00  0.00     0.171 HD
HETATM   12  H   UNL     1      43.723  -8.769  12.194  1.00  0.00     0.170 HD
BRANCH   9  13
HETATM   13  C   UNL     1      40.393  -8.078  13.727  1.00  0.00     0.086 A 
HETATM   14  C   UNL     1      40.410  -7.946  15.103  1.00  0.00     0.052 A 
HETATM   15  C   UNL     1      41.500  -8.021  16.103  1.00  0.00     0.072 C 
HETATM   16  N   UNL     1      39.124  -7.664  15.466  1.00  0.00    -0.280 N 
HETATM   17  H   UNL     1      38.759  -7.484  16.395  1.00  0.00     0.189 HD
HETATM   18  N   UNL     1      38.266  -7.640  14.441  1.00  0.00    -0.177 NA
HETATM   19  C   UNL     1      39.025  -7.895  13.366  1.00  0.00     0.079 A 
HETATM   20  C   UNL     1      38.359  -7.989  12.041  1.00  0.00     0.075 C 
ENDBRANCH   9  13
ENDBRANCH   1   7
BRANCH   4  21
HETATM   21  C   UNL     1      44.945 -13.214   7.916  1.00  0.00     0.252 C 
HETATM   22  N   UNL     1      43.991 -14.174   7.646  1.00  0.00    -0.352 N 
HETATM   23  H   UNL     1      43.082 -14.101   8.083  1.00  0.00     0.163 HD
HETATM   24  O   UNL     1      46.023 -13.142   7.338  1.00  0.00    -0.268 OA
BRANCH  22  25
HETATM   25  C   UNL     1      44.183 -15.200   6.628  1.00  0.00     0.084 C 
HETATM   26  C   UNL     1      44.317 -16.596   7.251  1.00  0.00     0.025 C 
HETATM   27  C   UNL     1      42.998 -17.110   7.826  1.00  0.00     0.002 C 
HETATM   28  C   UNL     1      41.881 -17.077   6.788  1.00  0.00     0.000 C 
HETATM   29  C   UNL     1      41.718 -15.689   6.177  1.00  0.00     0.002 C 
HETATM   30  C   UNL     1      43.036 -15.165   5.606  1.00  0.00     0.025 C 
ENDBRANCH  22  25
ENDBRANCH   4  21
TORSDOF 4
ENDMDL
MODEL 2
REMARK VINA RESULT:      -7.7      9.606     12.570
REMARK  4 active torsions:
REMARK  status: ('A' for Active; 'I' for Inactive)
REMARK    1  A    between atoms: C_8  and  N_9 
REMARK       I    between atoms: N_9  and  C_10 
REMARK       I    between atoms: C_10  and  N_11 
REMARK    2  A    between atoms: N_11  and  C_12 
REMARK    3  A    between atoms: C_15  and  C_16 
REMARK       I    between atoms: C_16  and  N_17 
REMARK    4  A    between atoms: N_17  and  C_18 
ROOT
HETATM    1  C   UNL     1      41.232 -16.282   0.813  1.00  0.00     0.036 A 
HETATM    2  C   UNL     1      42.403 -15.691   1.295  1.00  0.00     0.030 A 
HETATM    3  C   UNL     1      43.356 -16.453   1.981  1.00  0.00     0.019 A 
HETATM    4  C   UNL     1      43.138 -17.815   2.205  1.00  0.00     0.032 A 
HETATM    5  C   UNL     1      41.991 -18.422   1.684  1.00  0.00     0.019 A 
HETATM    6  C   UNL     1      41.043 -17.658   0.995  1.00  0.00     0.030 A 
ENDROOT
BRANCH   1   7
HETATM    7  N   UNL     1      40.187 -15.562   0.202  1.00  0.00    -0.309 N 
HETATM    8  C   UNL     1      40.203 -14.936  -1.037  1.00  0.00     0.325 C 
HETATM    9  N   UNL     1      39.133 -14.063  -1.137  1.00  0.00    -0.305 N 
HETATM   10  O   UNL     1      41.059 -15.102  -1.894  1.00  0.00    -0.247 OA
HETATM   11  H   UNL     1      38.744 -13.745  -0.263  1.00  0.00     0.171 HD
HETATM   12  H   UNL     1      39.296 -15.573   0.675  1.00  0.00     0.170 HD
BRANCH   9  13
HETATM   13  C   UNL     1      38.791 -13.310  -2.248  1.00  0.00     0.086 A 
HETATM   14  C   UNL     1      38.043 -13.835  -3.285  1.00  0.00     0.052 A 
HETATM   15  C   UNL     1      37.432 -15.167  -3.506  1.00  0.00     0.072 C 
HETATM   16  N   UNL     1      37.889 -12.818  -4.184  1.00  0.00    -0.280 N 
HETATM   17  H   UNL     1      37.379 -12.829  -5.061  1.00  0.00     0.189 HD
HETATM   18  N   UNL     1      38.507 -11.688  -3.833  1.00  0.00    -0.177 NA
HETATM   19  C   UNL     1      39.070 -11.970  -2.649  1.00  0.00     0.079 A 
HETATM   20  C   UNL     1      39.891 -10.921  -1.993  1.00  0.00     0.075 C 
ENDBRANCH   9  13
ENDBRANCH   1   7
BRANCH   4  21
HETATM   21  C   UNL     1      44.076 -18.645   3.009  1.00  0.00     0.252 C 
HETATM   22  N   UNL     1      44.277 -18.231   4.310  1.00  0.00    -0.352 N 
HETATM   23  H   UNL     1      43.745 -17.449   4.665  1.00  0.00     0.163 HD
HETATM   24  O   UNL     1      44.572 -19.658   2.531  1.00  0.00    -0.268 OA
BRANCH  22  25
HETATM   25  C   UNL     1      45.108 -18.978   5.247  1.00  0.00     0.084 C 
HETATM   26  C   UNL     1      45.573 -18.099   6.416  1.00  0.00     0.025 C 
HETATM   27  C   UNL     1      44.435 -17.748   7.373  1.00  0.00     0.002 C 
HETATM   28  C   UNL     1      43.718 -18.996   7.877  1.00  0.00     0.000 C 
HETATM   29  C   UNL     1      43.228 -19.869   6.726  1.00  0.00     0.002 C 
HETATM   30  C   UNL     1      44.359 -20.218   5.759  1.00  0.00     0.025 C 
ENDBRANCH  22  25
ENDBRANCH   4  21
TORSDOF 4
ENDMDL
MODEL 3
REMARK VINA RESULT:      -7.6      8.937     11.992
REMARK  4 active torsions:
REMARK  status: ('A' for Active; 'I' for Inactive)
REMARK    1  A    between atoms: C_8  and  N_9 
REMARK       I    between atoms: N_9  and  C_10 
REMARK       I    between atoms: C_10  and  N_11 
REMARK    2  A    between atoms: N_11  and  C_12 
REMARK    3  A    between atoms: C_15  and  C_16 
REMARK       I    between atoms: C_16  and  N_17 
REMARK    4  A    between atoms: N_17  and  C_18 
ROOT
HETATM    1  C   UNL     1      43.048 -16.446   2.136  1.00  0.00     0.036 A 
HETATM    2  C   UNL     1      42.477 -16.915   0.951  1.00  0.00     0.030 A 
HETATM    3  C   UNL     1      41.719 -16.062   0.139  1.00  0.00     0.019 A 
HETATM    4  C   UNL     1      41.512 -14.733   0.516  1.00  0.00     0.032 A 
HETATM    5  C   UNL     1      42.121 -14.246   1.676  1.00  0.00     0.019 A 
HETATM    6  C   UNL     1      42.882 -15.100   2.483  1.00  0.00     0.030 A 
ENDROOT
BRANCH   1   7
HETATM    7  N   UNL     1      43.739 -17.267   3.050  1.00  0.00    -0.309 N 
HETATM    8  C   UNL     1      43.195 -18.075   4.039  1.00  0.00     0.325 C 
HETATM    9  N   UNL     1      44.182 -18.451   4.934  1.00  0.00    -0.305 N 
HETATM   10  O   UNL     1      42.012 -18.374   4.127  1.00  0.00    -0.247 OA
HETATM   11  H   UNL     1      44.993 -17.855   4.968  1.00  0.00     0.171 HD
HETATM   12  H   UNL     1      44.735 -17.347   2.918  1.00  0.00     0.170 HD
BRANCH   9  13
HETATM   13  C   UNL     1      44.025 -19.303   6.015  1.00  0.00     0.086 A 
HETATM   14  C   UNL     1      43.683 -18.836   7.270  1.00  0.00     0.052 A 
HETATM   15  C   UNL     1      43.390 -17.479   7.789  1.00  0.00     0.072 C 
HETATM   16  N   UNL     1      43.602 -19.941   8.069  1.00  0.00    -0.280 N 
HETATM   17  H   UNL     1      43.354 -19.987   9.052  1.00  0.00     0.189 HD
HETATM   18  N   UNL     1      43.902 -21.083   7.444  1.00  0.00    -0.177 NA
HETATM   19  C   UNL     1      44.168 -20.712   6.183  1.00  0.00     0.079 A 
HETATM   20  C   UNL     1      44.592 -21.758   5.218  1.00  0.00     0.075 C 
ENDBRANCH   9  13
ENDBRANCH   1   7
BRANCH   4  21
HETATM   21  C   UNL     1      40.638 -13.815  -0.265  1.00  0.00     0.252 C 
HETATM   22  N   UNL     1      41.280 -12.764  -0.889  1.00  0.00    -0.352 N 
HETATM   23  H   UNL     1      42.287 -12.707  -0.843  1.00  0.00     0.163 HD
HETATM   24  O   UNL     1      39.440 -14.044  -0.373  1.00  0.00    -0.268 OA
BRANCH  22  25
HETATM   25  C   UNL     1      40.575 -11.822  -1.750  1.00  0.00     0.084 C 
HETATM   26  C   UNL     1      41.117 -10.395  -1.589  1.00  0.00     0.025 C 
HETATM   27  C   UNL     1      42.513 -10.228  -2.186  1.00  0.00     0.002 C 
HETATM   28  C   UNL     1      42.558 -10.670  -3.645  1.00  0.00     0.000 C 
HETATM   29  C   UNL     1      42.046 -12.096  -3.819  1.00  0.00     0.002 C 
HETATM   30  C   UNL     1      40.652 -12.273  -3.217  1.00  0.00     0.025 C 
ENDBRANCH  22  25
ENDBRANCH   4  21
TORSDOF 4
ENDMDL
MODEL 4
REMARK VINA RESULT:      -7.5      9.277     12.048
REMARK  4 active torsions:
REMARK  status: ('A' for Active; 'I' for Inactive)
REMARK    1  A    between atoms: C_8  and  N_9 
REMARK       I    between atoms: N_9  and  C_10 
REMARK       I    between atoms: C_10  and  N_11 
REMARK    2  A    between atoms: N_11  and  C_12 
REMARK    3  A    between atoms: C_15  and  C_16 
REMARK       I    between atoms: C_16  and  N_17 
REMARK    4  A    between atoms: N_17  and  C_18 
ROOT
HETATM    1  C   UNL     1      40.174 -15.728   1.922  1.00  0.00     0.036 A 
HETATM    2  C   UNL     1      40.716 -17.015   1.875  1.00  0.00     0.030 A 
HETATM    3  C   UNL     1      41.680 -17.417   2.807  1.00  0.00     0.019 A 
HETATM    4  C   UNL     1      42.123 -16.527   3.789  1.00  0.00     0.032 A 
HETATM    5  C   UNL     1      41.549 -15.255   3.871  1.00  0.00     0.019 A 
HETATM    6  C   UNL     1      40.583 -14.858   2.940  1.00  0.00     0.030 A 
ENDROOT
BRANCH   1   7
HETATM    7  N   UNL     1      39.275 -15.222   0.962  1.00  0.00    -0.309 N 
HETATM    8  C   UNL     1      39.584 -14.567  -0.222  1.00  0.00     0.325 C 
HETATM    9  N   UNL     1      38.457 -13.932  -0.716  1.00  0.00    -0.305 N 
HETATM   10  O   UNL     1      40.696 -14.523  -0.728  1.00  0.00    -0.247 OA
HETATM   11  H   UNL     1      37.736 -13.731  -0.041  1.00  0.00     0.171 HD
HETATM   12  H   UNL     1      38.300 -15.434   1.104  1.00  0.00     0.170 HD
BRANCH   9  13
HETATM   13  C   UNL     1      38.367 -13.231  -1.907  1.00  0.00     0.086 A 
HETATM   14  C   UNL     1      37.932 -13.827  -3.076  1.00  0.00     0.052 A 
HETATM   15  C   UNL     1      37.466 -15.198  -3.387  1.00  0.00     0.072 C 
HETATM   16  N   UNL     1      37.957 -12.846  -4.025  1.00  0.00    -0.280 N 
HETATM   17  H   UNL     1      37.686 -12.910  -5.000  1.00  0.00     0.189 HD
HETATM   18  N   UNL     1      38.408 -11.671  -3.577  1.00  0.00    -0.177 NA
HETATM   19  C   UNL     1      38.669 -11.888  -2.280  1.00  0.00     0.079 A 
HETATM   20  C   UNL     1      39.243 -10.774  -1.482  1.00  0.00     0.075 C 
ENDBRANCH   9  13
ENDBRANCH   1   7
BRANCH   4  21
HETATM   21  C   UNL     1      43.211 -16.876   4.742  1.00  0.00     0.252 C 
HETATM   22  N   UNL     1      43.681 -18.172   4.664  1.00  0.00    -0.352 N 
HETATM   23  H   UNL     1      43.324 -18.782   3.943  1.00  0.00     0.163 HD
HETATM   24  O   UNL     1      43.675 -16.026   5.492  1.00  0.00    -0.268 OA
BRANCH  22  25
HETATM   25  C   UNL     1      44.794 -18.647   5.478  1.00  0.00     0.084 C 
HETATM   26  C   UNL     1      44.336 -19.038   6.889  1.00  0.00     0.025 C 
HETATM   27  C   UNL     1      43.501 -20.317   6.901  1.00  0.00     0.002 C 
HETATM   28  C   UNL     1      44.230 -21.472   6.222  1.00  0.00     0.000 C 
HETATM   29  C   UNL     1      44.671 -21.108   4.808  1.00  0.00     0.002 C 
HETATM   30  C   UNL     1      45.500 -19.824   4.787  1.00  0.00     0.025 C 
ENDBRANCH  22  25
ENDBRANCH   4  21
TORSDOF 4
ENDMDL
MODEL 5
REMARK VINA RESULT:      -7.5      3.900     10.738
REMARK  4 active torsions:
REMARK  status: ('A' for Active; 'I' for Inactive)
REMARK    1  A    between atoms: C_8  and  N_9 
REMARK       I    between atoms: N_9  and  C_10 
REMARK       I    between atoms: C_10  and  N_11 
REMARK    2  A    between atoms: N_11  and  C_12 
REMARK    3  A    between atoms: C_15  and  C_16 
REMARK       I    between atoms: C_16  and  N_17 
REMARK    4  A    between atoms: N_17  and  C_18 
ROOT
HETATM    1  C   UNL     1      41.395 -14.134   5.050  1.00  0.00     0.036 A 
HETATM    2  C   UNL     1      40.032 -14.121   5.355  1.00  0.00     0.030 A 
HETATM    3  C   UNL     1      39.483 -13.090   6.126  1.00  0.00     0.019 A 
HETATM    4  C   UNL     1      40.300 -12.067   6.615  1.00  0.00     0.032 A 
HETATM    5  C   UNL     1      41.655 -12.049   6.273  1.00  0.00     0.019 A 
HETATM    6  C   UNL     1      42.199 -13.078   5.498  1.00  0.00     0.030 A 
ENDROOT
BRANCH   1   7
HETATM    7  N   UNL     1      42.034 -15.186   4.364  1.00  0.00    -0.309 N 
HETATM    8  C   UNL     1      42.467 -16.396   4.887  1.00  0.00     0.325 C 
HETATM    9  N   UNL     1      43.334 -17.009   3.998  1.00  0.00    -0.305 N 
HETATM   10  O   UNL     1      42.160 -16.833   5.987  1.00  0.00    -0.247 OA
HETATM   11  H   UNL     1      43.786 -16.399   3.336  1.00  0.00     0.171 HD
HETATM   12  H   UNL     1      42.109 -15.090   3.363  1.00  0.00     0.170 HD
BRANCH   9  13
HETATM   13  C   UNL     1      43.919 -18.255   4.152  1.00  0.00     0.086 A 
HETATM   14  C   UNL     1      43.716 -19.276   3.242  1.00  0.00     0.052 A 
HETATM   15  C   UNL     1      42.943 -19.353   1.980  1.00  0.00     0.072 C 
HETATM   16  N   UNL     1      44.449 -20.333   3.699  1.00  0.00    -0.280 N 
HETATM   17  H   UNL     1      44.558 -21.250   3.278  1.00  0.00     0.189 HD
HETATM   18  N   UNL     1      45.080 -20.095   4.852  1.00  0.00    -0.177 NA
HETATM   19  C   UNL     1      44.765 -18.826   5.149  1.00  0.00     0.079 A 
HETATM   20  C   UNL     1      45.276 -18.253   6.420  1.00  0.00     0.075 C 
ENDBRANCH   9  13
ENDBRANCH   1   7
BRANCH   4  21
HETATM   21  C   UNL     1      39.781 -11.002   7.516  1.00  0.00     0.252 C 
HETATM   22  N   UNL     1      40.303 -10.991   8.793  1.00  0.00    -0.352 N 
HETATM   23  H   UNL     1      41.038 -11.643   9.029  1.00  0.00     0.163 HD
HETATM   24  O   UNL     1      38.986 -10.169   7.097  1.00  0.00    -0.268 OA
BRANCH  22  25
HETATM   25  C   UNL     1      39.952  -9.967   9.770  1.00  0.00     0.084 C 
HETATM   26  C   UNL     1      39.665 -10.578  11.149  1.00  0.00     0.025 C 
HETATM   27  C   UNL     1      40.927 -11.102  11.833  1.00  0.00     0.002 C 
HETATM   28  C   UNL     1      42.006 -10.028  11.922  1.00  0.00     0.000 C 
HETATM   29  C   UNL     1      42.321  -9.429  10.555  1.00  0.00     0.002 C 
HETATM   30  C   UNL     1      41.062  -8.909   9.862  1.00  0.00     0.025 C 
ENDBRANCH  22  25
ENDBRANCH   4  21
TORSDOF 4
ENDMDL
MODEL 6
REMARK VINA RESULT:      -7.5      9.820     13.368
REMARK  4 active torsions:
REMARK  status: ('A' for Active; 'I' for Inactive)
REMARK    1  A    between atoms: C_8  and  N_9 
REMARK       I    between atoms: N_9  and  C_10 
REMARK       I    between atoms: C_10  and  N_11 
REMARK    2  A    between atoms: N_11  and  C_12 
REMARK    3  A    between atoms: C_15  and  C_16 
REMARK       I    between atoms: C_16  and  N_17 
REMARK    4  A    between atoms: N_17  and  C_18 
ROOT
HETATM    1  C   UNL     1      41.745 -15.624   0.828  1.00  0.00     0.036 A 
HETATM    2  C   UNL     1      41.927 -14.244   0.718  1.00  0.00     0.030 A 
HETATM    3  C   UNL     1      41.700 -13.590  -0.498  1.00  0.00     0.019 A 
HETATM    4  C   UNL     1      41.305 -14.317  -1.624  1.00  0.00     0.032 A 
HETATM    5  C   UNL     1      41.075 -15.691  -1.508  1.00  0.00     0.019 A 
HETATM    6  C   UNL     1      41.298 -16.340  -0.289  1.00  0.00     0.030 A 
ENDROOT
BRANCH   1   7
HETATM    7  N   UNL     1      42.047 -16.363   1.990  1.00  0.00    -0.309 N 
HETATM    8  C   UNL     1      43.134 -17.200   2.201  1.00  0.00     0.325 C 
HETATM    9  N   UNL     1      42.906 -17.995   3.311  1.00  0.00    -0.305 N 
HETATM   10  O   UNL     1      44.125 -17.253   1.487  1.00  0.00    -0.247 OA
HETATM   11  H   UNL     1      41.940 -18.123   3.568  1.00  0.00     0.171 HD
HETATM   12  H   UNL     1      41.456 -16.202   2.791  1.00  0.00     0.170 HD
BRANCH   9  13
HETATM   13  C   UNL     1      43.791 -18.908   3.861  1.00  0.00     0.086 A 
HETATM   14  C   UNL     1      44.411 -18.685   5.076  1.00  0.00     0.052 A 
HETATM   15  C   UNL     1      44.327 -17.576   6.054  1.00  0.00     0.072 C 
HETATM   16  N   UNL     1      45.187 -19.785   5.305  1.00  0.00    -0.280 N 
HETATM   17  H   UNL     1      45.772 -19.983   6.110  1.00  0.00     0.189 HD
HETATM   18  N   UNL     1      45.151 -20.686   4.320  1.00  0.00    -0.177 NA
HETATM   19  C   UNL     1      44.303 -20.165   3.422  1.00  0.00     0.079 A 
HETATM   20  C   UNL     1      44.072 -20.910   2.158  1.00  0.00     0.075 C 
ENDBRANCH   9  13
ENDBRANCH   1   7
BRANCH   4  21
HETATM   21  C   UNL     1      41.143 -13.681  -2.960  1.00  0.00     0.252 C 
HETATM   22  N   UNL     1      41.344 -12.316  -3.002  1.00  0.00    -0.352 N 
HETATM   23  H   UNL     1      41.648 -11.838  -2.165  1.00  0.00     0.163 HD
HETATM   24  O   UNL     1      40.905 -14.366  -3.948  1.00  0.00    -0.268 OA
BRANCH  22  25
HETATM   25  C   UNL     1      41.296 -11.559  -4.247  1.00  0.00     0.084 C 
HETATM   26  C   UNL     1      39.981 -10.779  -4.383  1.00  0.00     0.025 C 
HETATM   27  C   UNL     1      39.894  -9.602  -3.414  1.00  0.00     0.002 C 
HETATM   28  C   UNL     1      41.097  -8.675  -3.545  1.00  0.00     0.000 C 
HETATM   29  C   UNL     1      42.413  -9.430  -3.388  1.00  0.00     0.002 C 
HETATM   30  C   UNL     1      42.503 -10.615  -4.350  1.00  0.00     0.025 C 
ENDBRANCH  22  25
ENDBRANCH   4  21
TORSDOF 4
ENDMDL
MODEL 7
REMARK VINA RESULT:      -7.5      3.491      5.112
REMARK  4 active torsions:
REMARK  status: ('A' for Active; 'I' for Inactive)
REMARK    1  A    between atoms: C_8  and  N_9 
REMARK       I    between atoms: N_9  and  C_10 
REMARK       I    between atoms: C_10  and  N_11 
REMARK    2  A    between atoms: N_11  and  C_12 
REMARK    3  A    between atoms: C_15  and  C_16 
REMARK       I    between atoms: C_16  and  N_17 
REMARK    4  A    between atoms: N_17  and  C_18 
ROOT
HETATM    1  C   UNL     1      42.019 -12.154   6.469  1.00  0.00     0.036 A 
HETATM    2  C   UNL     1      42.893 -13.236   6.343  1.00  0.00     0.030 A 
HETATM    3  C   UNL     1      43.160 -13.794   5.087  1.00  0.00     0.019 A 
HETATM    4  C   UNL     1      42.539 -13.283   3.945  1.00  0.00     0.032 A 
HETATM    5  C   UNL     1      41.701 -12.170   4.059  1.00  0.00     0.019 A 
HETATM    6  C   UNL     1      41.440 -11.612   5.315  1.00  0.00     0.030 A 
ENDROOT
BRANCH   1   7
HETATM    7  N   UNL     1      41.628 -11.604   7.707  1.00  0.00    -0.309 N 
HETATM    8  C   UNL     1      42.443 -11.025   8.670  1.00  0.00     0.325 C 
HETATM    9  N   UNL     1      41.753 -10.917   9.865  1.00  0.00    -0.305 N 
HETATM   10  O   UNL     1      43.609 -10.700   8.496  1.00  0.00    -0.247 OA
HETATM   11  H   UNL     1      40.972 -11.543   9.979  1.00  0.00     0.171 HD
HETATM   12  H   UNL     1      40.636 -11.542   7.878  1.00  0.00     0.170 HD
BRANCH   9  13
HETATM   13  C   UNL     1      42.223 -10.336  11.032  1.00  0.00     0.086 A 
HETATM   14  C   UNL     1      43.126 -10.980  11.857  1.00  0.00     0.052 A 
HETATM   15  C   UNL     1      43.806 -12.293  11.766  1.00  0.00     0.072 C 
HETATM   16  N   UNL     1      43.372 -10.115  12.885  1.00  0.00    -0.280 N 
HETATM   17  H   UNL     1      44.000 -10.239  13.672  1.00  0.00     0.189 HD
HETATM   18  N   UNL     1      42.673  -8.979  12.815  1.00  0.00    -0.177 NA
HETATM   19  C   UNL     1      41.959  -9.097  11.687  1.00  0.00     0.079 A 
HETATM   20  C   UNL     1      41.019  -8.002  11.332  1.00  0.00     0.075 C 
ENDBRANCH   9  13
ENDBRANCH   1   7
BRANCH   4  21
HETATM   21  C   UNL     1      42.718 -13.901   2.603  1.00  0.00     0.252 C 
HETATM   22  N   UNL     1      42.957 -15.261   2.597  1.00  0.00    -0.352 N 
HETATM   23  H   UNL     1      42.933 -15.767   3.471  1.00  0.00     0.163 HD
HETATM   24  O   UNL     1      42.595 -13.226   1.588  1.00  0.00    -0.268 OA
BRANCH  22  25
HETATM   25  C   UNL     1      43.080 -16.026   1.362  1.00  0.00     0.084 C 
HETATM   26  C   UNL     1      44.217 -17.053   1.446  1.00  0.00     0.025 C 
HETATM   27  C   UNL     1      43.890 -18.214   2.384  1.00  0.00     0.002 C 
HETATM   28  C   UNL     1      42.571 -18.884   2.012  1.00  0.00     0.000 C 
HETATM   29  C   UNL     1      41.425 -17.879   1.949  1.00  0.00     0.002 C 
HETATM   30  C   UNL     1      41.749 -16.710   1.018  1.00  0.00     0.025 C 
ENDBRANCH  22  25
ENDBRANCH   4  21
TORSDOF 4
ENDMDL
MODEL 8
REMARK VINA RESULT:      -7.4     10.612     13.362
REMARK  4 active torsions:
REMARK  status: ('A' for Active; 'I' for Inactive)
REMARK    1  A    between atoms: C_8  and  N_9 
REMARK       I    between atoms: N_9  and  C_10 
REMARK       I    between atoms: C_10  and  N_11 
REMARK    2  A    between atoms: N_11  and  C_12 
REMARK    3  A    between atoms: C_15  and  C_16 
REMARK       I    between atoms: C_16  and  N_17 
REMARK    4  A    between atoms: N_17  and  C_18 
ROOT
HETATM    1  C   UNL     1      42.428 -16.261   0.940  1.00  0.00     0.036 A 
HETATM    2  C   UNL     1      42.493 -15.106   1.722  1.00  0.00     0.030 A 
HETATM    3  C   UNL     1      41.805 -13.948   1.341  1.00  0.00     0.019 A 
HETATM    4  C   UNL     1      41.058 -13.930   0.161  1.00  0.00     0.032 A 
HETATM    5  C   UNL     1      40.950 -15.098  -0.601  1.00  0.00     0.019 A 
HETATM    6  C   UNL     1      41.635 -16.255  -0.214  1.00  0.00     0.030 A 
ENDROOT
BRANCH   1   7
HETATM    7  N   UNL     1      43.169 -17.430   1.207  1.00  0.00    -0.309 N 
HETATM    8  C   UNL     1      43.094 -18.239   2.333  1.00  0.00     0.325 C 
HETATM    9  N   UNL     1      44.195 -19.078   2.382  1.00  0.00    -0.305 N 
HETATM   10  O   UNL     1      42.209 -18.186   3.175  1.00  0.00    -0.247 OA
HETATM   11  H   UNL     1      45.004 -18.770   1.867  1.00  0.00     0.171 HD
HETATM   12  H   UNL     1      43.757 -17.770   0.462  1.00  0.00     0.170 HD
BRANCH   9  13
HETATM   13  C   UNL     1      44.433 -20.062   3.328  1.00  0.00     0.086 A 
HETATM   14  C   UNL     1      44.436 -21.405   3.000  1.00  0.00     0.052 A 
HETATM   15  C   UNL     1      44.239 -22.124   1.719  1.00  0.00     0.072 C 
HETATM   16  N   UNL     1      44.717 -22.070   4.159  1.00  0.00    -0.280 N 
HETATM   17  H   UNL     1      44.820 -23.069   4.299  1.00  0.00     0.189 HD
HETATM   18  N   UNL     1      44.859 -21.271   5.220  1.00  0.00    -0.177 NA
HETATM   19  C   UNL     1      44.685 -20.035   4.731  1.00  0.00     0.079 A 
HETATM   20  C   UNL     1      44.732 -18.891   5.678  1.00  0.00     0.075 C 
ENDBRANCH   9  13
ENDBRANCH   1   7
BRANCH   4  21
HETATM   21  C   UNL     1      40.387 -12.697  -0.334  1.00  0.00     0.252 C 
HETATM   22  N   UNL     1      41.164 -11.867  -1.117  1.00  0.00    -0.352 N 
HETATM   23  H   UNL     1      42.098 -12.158  -1.366  1.00  0.00     0.163 HD
HETATM   24  O   UNL     1      39.204 -12.495  -0.090  1.00  0.00    -0.268 OA
BRANCH  22  25
HETATM   25  C   UNL     1      40.632 -10.659  -1.738  1.00  0.00     0.084 C 
HETATM   26  C   UNL     1      41.632  -9.497  -1.660  1.00  0.00     0.025 C 
HETATM   27  C   UNL     1      42.836  -9.698  -2.580  1.00  0.00     0.002 C 
HETATM   28  C   UNL     1      42.407  -9.958  -4.020  1.00  0.00     0.000 C 
HETATM   29  C   UNL     1      41.431 -11.126  -4.117  1.00  0.00     0.002 C 
HETATM   30  C   UNL     1      40.228 -10.936  -3.194  1.00  0.00     0.025 C 
ENDBRANCH  22  25
ENDBRANCH   4  21
TORSDOF 4
ENDMDL
MODEL 9
REMARK VINA RESULT:      -7.4      4.567     11.039
REMARK  4 active torsions:
REMARK  status: ('A' for Active; 'I' for Inactive)
REMARK    1  A    between atoms: C_8  and  N_9 
REMARK       I    between atoms: N_9  and  C_10 
REMARK       I    between atoms: C_10  and  N_11 
REMARK    2  A    between atoms: N_11  and  C_12 
REMARK    3  A    between atoms: C_15  and  C_16 
REMARK       I    between atoms: C_16  and  N_17 
REMARK    4  A    between atoms: N_17  and  C_18 
ROOT
HETATM    1  C   UNL     1      41.687 -14.811   4.371  1.00  0.00     0.036 A 
HETATM    2  C   UNL     1      40.296 -14.712   4.293  1.00  0.00     0.030 A 
HETATM    3  C   UNL     1      39.615 -13.690   4.964  1.00  0.00     0.019 A 
HETATM    4  C   UNL     1      40.322 -12.763   5.735  1.00  0.00     0.032 A 
HETATM    5  C   UNL     1      41.717 -12.828   5.777  1.00  0.00     0.019 A 
HETATM    6  C   UNL     1      42.395 -13.848   5.102  1.00  0.00     0.030 A 
ENDROOT
BRANCH   1   7
HETATM    7  N   UNL     1      42.430 -15.866   3.804  1.00  0.00    -0.309 N 
HETATM    8  C   UNL     1      42.663 -17.122   4.347  1.00  0.00     0.325 C 
HETATM    9  N   UNL     1      43.697 -17.743   3.667  1.00  0.00    -0.305 N 
HETATM   10  O   UNL     1      42.072 -17.589   5.309  1.00  0.00    -0.247 OA
HETATM   11  H   UNL     1      44.327 -17.131   3.173  1.00  0.00     0.171 HD
HETATM   12  H   UNL     1      42.757 -15.729   2.860  1.00  0.00     0.170 HD
BRANCH   9  13
HETATM   13  C   UNL     1      44.169 -19.027   3.888  1.00  0.00     0.086 A 
HETATM   14  C   UNL     1      44.905 -19.351   5.012  1.00  0.00     0.052 A 
HETATM   15  C   UNL     1      45.345 -18.559   6.184  1.00  0.00     0.072 C 
HETATM   16  N   UNL     1      45.179 -20.685   4.904  1.00  0.00    -0.280 N 
HETATM   17  H   UNL     1      45.685 -21.275   5.556  1.00  0.00     0.189 HD
HETATM   18  N   UNL     1      44.714 -21.243   3.784  1.00  0.00    -0.177 NA
HETATM   19  C   UNL     1      44.094 -20.241   3.145  1.00  0.00     0.079 A 
HETATM   20  C   UNL     1      43.496 -20.519   1.814  1.00  0.00     0.075 C 
ENDBRANCH   9  13
ENDBRANCH   1   7
BRANCH   4  21
HETATM   21  C   UNL     1      39.635 -11.717   6.541  1.00  0.00     0.252 C 
HETATM   22  N   UNL     1      40.013 -11.639   7.866  1.00  0.00    -0.352 N 
HETATM   23  H   UNL     1      40.760 -12.230   8.200  1.00  0.00     0.163 HD
HETATM   24  O   UNL     1      38.836 -10.953   6.013  1.00  0.00    -0.268 OA
BRANCH  22  25
HETATM   25  C   UNL     1      39.488 -10.619   8.767  1.00  0.00     0.084 C 
HETATM   26  C   UNL     1      39.749 -10.977  10.237  1.00  0.00     0.025 C 
HETATM   27  C   UNL     1      41.225 -10.857  10.616  1.00  0.00     0.002 C 
HETATM   28  C   UNL     1      41.782  -9.478  10.278  1.00  0.00     0.000 C 
HETATM   29  C   UNL     1      41.552  -9.118   8.814  1.00  0.00     0.002 C 
HETATM   30  C   UNL     1      40.079  -9.243   8.426  1.00  0.00     0.025 C 
ENDBRANCH  22  25
ENDBRANCH   4  21
TORSDOF 4
ENDMDL
MODEL 10
REMARK VINA RESULT:      -7.3      8.759     12.237
REMARK  4 active torsions:
REMARK  status: ('A' for Active; 'I' for Inactive)
REMARK    1  A    between atoms: C_8  and  N_9 
REMARK       I    between atoms: N_9  and  C_10 
REMARK       I    between atoms: C_10  and  N_11 
REMARK    2  A    between atoms: N_11  and  C_12 
REMARK    3  A    between atoms: C_15  and  C_16 
REMARK       I    between atoms: C_16  and  N_17 
REMARK    4  A    between atoms: N_17  and  C_18 
ROOT
HETATM    1  C   UNL     1      40.144 -15.984   1.873  1.00  0.00     0.036 A 
HETATM    2  C   UNL     1      39.034 -15.149   2.021  1.00  0.00     0.030 A 
HETATM    3  C   UNL     1      38.718 -14.204   1.038  1.00  0.00     0.019 A 
HETATM    4  C   UNL     1      39.521 -14.075  -0.098  1.00  0.00     0.032 A 
HETATM    5  C   UNL     1      40.605 -14.940  -0.274  1.00  0.00     0.019 A 
HETATM    6  C   UNL     1      40.916 -15.886   0.709  1.00  0.00     0.030 A 
ENDROOT
BRANCH   1   7
HETATM    7  N   UNL     1      40.580 -16.889   2.862  1.00  0.00    -0.309 N 
HETATM    8  C   UNL     1      41.775 -16.858   3.568  1.00  0.00     0.325 C 
HETATM    9  N   UNL     1      41.985 -18.078   4.188  1.00  0.00    -0.305 N 
HETATM   10  O   UNL     1      42.545 -15.908   3.601  1.00  0.00    -0.247 OA
HETATM   11  H   UNL     1      41.498 -18.864   3.787  1.00  0.00     0.171 HD
HETATM   12  H   UNL     1      39.916 -17.588   3.156  1.00  0.00     0.170 HD
BRANCH   9  13
HETATM   13  C   UNL     1      43.041 -18.400   5.026  1.00  0.00     0.086 A 
HETATM   14  C   UNL     1      44.081 -19.212   4.614  1.00  0.00     0.052 A 
HETATM   15  C   UNL     1      44.376 -19.885   3.327  1.00  0.00     0.072 C 
HETATM   16  N   UNL     1      44.932 -19.295   5.678  1.00  0.00    -0.280 N 
HETATM   17  H   UNL     1      45.815 -19.790   5.737  1.00  0.00     0.189 HD
HETATM   18  N   UNL     1      44.512 -18.634   6.760  1.00  0.00    -0.177 NA
HETATM   19  C   UNL     1      43.350 -18.080   6.381  1.00  0.00     0.079 A 
HETATM   20  C   UNL     1      42.582 -17.301   7.386  1.00  0.00     0.075 C 
ENDBRANCH   9  13
ENDBRANCH   1   7
BRANCH   4  21
HETATM   21  C   UNL     1      39.279 -13.023  -1.123  1.00  0.00     0.252 C 
HETATM   22  N   UNL     1      40.199 -11.994  -1.153  1.00  0.00    -0.352 N 
HETATM   23  H   UNL     1      41.004 -12.036  -0.544  1.00  0.00     0.163 HD
HETATM   24  O   UNL     1      38.348 -13.129  -1.911  1.00  0.00    -0.268 OA
BRANCH  22  25
HETATM   25  C   UNL     1      40.143 -10.928  -2.147  1.00  0.00     0.084 C 
HETATM   26  C   UNL     1      40.708  -9.612  -1.594  1.00  0.00     0.025 C 
HETATM   27  C   UNL     1      42.224  -9.655  -1.412  1.00  0.00     0.002 C 
HETATM   28  C   UNL     1      42.934 -10.059  -2.700  1.00  0.00     0.000 C 
HETATM   29  C   UNL     1      42.402 -11.379  -3.248  1.00  0.00     0.002 C 
HETATM   30  C   UNL     1      40.884 -11.346  -3.426  1.00  0.00     0.025 C 
ENDBRANCH  22  25
ENDBRANCH   4  21
TORSDOF 4
ENDMDL
