MODEL 1
REMARK VINA RESULT:      -9.4      0.000      0.000
REMARK  2 active torsions:
REMARK  status: ('A' for Active; 'I' for Inactive)
REMARK    1  A    between atoms: C_2  and  N_3 
REMARK       I    between atoms: N_3  and  C_4 
REMARK    2  A    between atoms: C_4  and  C_5 
ROOT
HETATM    1  C   UNL     1      42.876 -14.591   5.101  1.00  0.00     0.032 A 
HETATM    2  C   UNL     1      43.364 -14.936   6.355  1.00  0.00     0.036 A 
HETATM    3  C   UNL     1      43.557 -16.289   6.649  1.00  0.00     0.049 A 
HETATM    4  C   UNL     1      43.336 -17.294   5.684  1.00  0.00     0.061 A 
HETATM    5  C   UNL     1      42.895 -16.933   4.404  1.00  0.00     0.050 A 
HETATM    6  N   UNL     1      42.677 -17.798   3.320  1.00  0.00    -0.324 N 
HETATM    7  C   UNL     1      43.306 -18.977   3.026  1.00  0.00     0.245 C 
HETATM    8  O   UNL     1      43.086 -19.492   1.927  1.00  0.00    -0.271 OA
HETATM    9  C   UNL     1      44.397 -19.471   3.970  1.00  0.00     0.180 C 
HETATM   10  N   UNL     1      43.875 -19.676   5.312  1.00  0.00    -0.334 N 
HETATM   11  C   UNL     1      43.476 -18.689   6.178  1.00  0.00     0.256 C 
HETATM   12  O   UNL     1      43.245 -18.916   7.364  1.00  0.00    -0.267 OA
HETATM   13  C   UNL     1      44.944 -20.845   3.559  1.00  0.00     0.037 C 
HETATM   14  C   UNL     1      45.270 -21.509   4.889  1.00  0.00     0.022 C 
HETATM   15  C   UNL     1      44.143 -21.024   5.785  1.00  0.00     0.127 C 
HETATM   16  C   UNL     1      42.626 -15.580   4.144  1.00  0.00     0.033 A 
HETATM   17  H   UNL     1      42.142 -17.452   2.531  1.00  0.00     0.169 HD
ENDROOT
BRANCH   2  18
HETATM   18  N   UNL     1      43.688 -14.006   7.352  1.00  0.00    -0.322 N 
HETATM   19  C   UNL     1      44.890 -13.355   7.560  1.00  0.00     0.277 C 
HETATM   20  O   UNL     1      45.894 -13.435   6.859  1.00  0.00    -0.266 OA
HETATM   21  H   UNL     1      43.004 -13.816   8.084  1.00  0.00     0.169 HD
BRANCH  19  22
HETATM   22  C   UNL     1      44.864 -12.545   8.789  1.00  0.00     0.153 A 
HETATM   23  N   UNL     1      45.853 -12.617   9.723  1.00  0.00    -0.169 NA
HETATM   24  N   UNL     1      45.489 -11.725  10.683  1.00  0.00    -0.281 N 
HETATM   25  H   UNL     1      46.085 -11.611  11.497  1.00  0.00     0.189 HD
HETATM   26  C   UNL     1      44.340 -11.099  10.367  1.00  0.00     0.036 A 
HETATM   27  C   UNL     1      43.911 -11.594   9.175  1.00  0.00     0.002 A 
HETATM   28  C   UNL     1      43.495 -10.052  10.953  1.00  0.00     0.059 C 
HETATM   29  C   UNL     1      42.664 -10.952   8.731  1.00  0.00     0.043 C 
HETATM   30  C   UNL     1      42.565  -9.737   9.726  1.00  0.00     0.011 C 
ENDBRANCH  19  22
ENDBRANCH   2  18
TORSDOF 2
ENDMDL
MODEL 2
REMARK VINA RESULT:      -9.3      1.794      8.783
REMARK  2 active torsions:
REMARK  status: ('A' for Active; 'I' for Inactive)
REMARK    1  A    between atoms: C_2  and  N_3 
REMARK       I    between atoms: N_3  and  C_4 
REMARK    2  A    between atoms: C_4  and  C_5 
ROOT
HETATM    1  C   UNL     1      42.217 -15.121   5.454  1.00  0.00     0.032 A 
HETATM    2  C   UNL     1      43.437 -15.680   5.814  1.00  0.00     0.036 A 
HETATM    3  C   UNL     1      44.337 -14.906   6.551  1.00  0.00     0.049 A 
HETATM    4  C   UNL     1      44.006 -13.607   6.992  1.00  0.00     0.061 A 
HETATM    5  C   UNL     1      42.752 -13.071   6.672  1.00  0.00     0.050 A 
HETATM    6  N   UNL     1      42.248 -11.824   7.074  1.00  0.00    -0.324 N 
HETATM    7  C   UNL     1      42.518 -11.119   8.215  1.00  0.00     0.245 C 
HETATM    8  O   UNL     1      41.831 -10.124   8.457  1.00  0.00    -0.271 OA
HETATM    9  C   UNL     1      43.494 -11.718   9.222  1.00  0.00     0.180 C 
HETATM   10  N   UNL     1      44.802 -11.931   8.623  1.00  0.00    -0.334 N 
HETATM   11  C   UNL     1      45.104 -12.868   7.667  1.00  0.00     0.256 C 
HETATM   12  O   UNL     1      46.265 -13.134   7.358  1.00  0.00    -0.267 OA
HETATM   13  C   UNL     1      43.763 -10.776  10.404  1.00  0.00     0.037 C 
HETATM   14  C   UNL     1      45.218 -11.054  10.754  1.00  0.00     0.022 C 
HETATM   15  C   UNL     1      45.849 -11.279   9.391  1.00  0.00     0.127 C 
HETATM   16  C   UNL     1      41.887 -13.824   5.862  1.00  0.00     0.033 A 
HETATM   17  H   UNL     1      41.437 -11.456   6.590  1.00  0.00     0.169 HD
ENDROOT
BRANCH   2  18
HETATM   18  N   UNL     1      43.825 -16.988   5.489  1.00  0.00    -0.322 N 
HETATM   19  C   UNL     1      43.924 -17.567   4.238  1.00  0.00     0.277 C 
HETATM   20  O   UNL     1      43.740 -17.011   3.160  1.00  0.00    -0.266 OA
HETATM   21  H   UNL     1      43.987 -17.651   6.246  1.00  0.00     0.169 HD
BRANCH  19  22
HETATM   22  C   UNL     1      44.249 -19.000   4.327  1.00  0.00     0.153 A 
HETATM   23  N   UNL     1      44.654 -19.578   5.493  1.00  0.00    -0.169 NA
HETATM   24  N   UNL     1      44.837 -20.890   5.184  1.00  0.00    -0.281 N 
HETATM   25  H   UNL     1      45.151 -21.526   5.911  1.00  0.00     0.189 HD
HETATM   26  C   UNL     1      44.542 -21.141   3.895  1.00  0.00     0.036 A 
HETATM   27  C   UNL     1      44.168 -19.968   3.317  1.00  0.00     0.002 A 
HETATM   28  C   UNL     1      44.505 -22.314   3.014  1.00  0.00     0.059 C 
HETATM   29  C   UNL     1      43.803 -20.143   1.904  1.00  0.00     0.043 C 
HETATM   30  C   UNL     1      43.720 -21.710   1.793  1.00  0.00     0.011 C 
ENDBRANCH  19  22
ENDBRANCH   2  18
TORSDOF 2
ENDMDL
MODEL 3
REMARK VINA RESULT:      -9.2      1.852      3.314
REMARK  2 active torsions:
REMARK  status: ('A' for Active; 'I' for Inactive)
REMARK    1  A    between atoms: C_2  and  N_3 
REMARK       I    between atoms: N_3  and  C_4 
REMARK    2  A    between atoms: C_4  and  C_5 
ROOT
HETATM    1  C   UNL     1      44.276 -16.462   7.076  1.00  0.00     0.032 A 
HETATM    2  C   UNL     1      43.964 -15.136   6.803  1.00  0.00     0.036 A 
HETATM    3  C   UNL     1      43.615 -14.786   5.496  1.00  0.00     0.049 A 
HETATM    4  C   UNL     1      43.507 -15.754   4.475  1.00  0.00     0.061 A 
HETATM    5  C   UNL     1      43.771 -17.097   4.771  1.00  0.00     0.050 A 
HETATM    6  N   UNL     1      43.661 -18.185   3.890  1.00  0.00    -0.324 N 
HETATM    7  C   UNL     1      42.814 -18.343   2.827  1.00  0.00     0.245 C 
HETATM    8  O   UNL     1      42.758 -19.452   2.292  1.00  0.00    -0.271 OA
HETATM    9  C   UNL     1      41.839 -17.215   2.504  1.00  0.00     0.180 C 
HETATM   10  N   UNL     1      42.546 -15.978   2.210  1.00  0.00    -0.334 N 
HETATM   11  C   UNL     1      43.238 -15.215   3.117  1.00  0.00     0.256 C 
HETATM   12  O   UNL     1      43.632 -14.081   2.848  1.00  0.00    -0.267 OA
HETATM   13  C   UNL     1      41.021 -17.498   1.237  1.00  0.00     0.037 C 
HETATM   14  C   UNL     1      40.830 -16.119   0.623  1.00  0.00     0.022 C 
HETATM   15  C   UNL     1      42.156 -15.439   0.918  1.00  0.00     0.127 C 
HETATM   16  C   UNL     1      44.199 -17.428   6.066  1.00  0.00     0.033 A 
HETATM   17  H   UNL     1      44.099 -19.060   4.153  1.00  0.00     0.169 HD
ENDROOT
BRANCH   2  18
HETATM   18  N   UNL     1      43.966 -14.117   7.766  1.00  0.00    -0.322 N 
HETATM   19  C   UNL     1      44.959 -13.193   8.033  1.00  0.00     0.277 C 
HETATM   20  O   UNL     1      46.017 -13.061   7.425  1.00  0.00    -0.266 OA
HETATM   21  H   UNL     1      43.190 -14.066   8.425  1.00  0.00     0.169 HD
BRANCH  19  22
HETATM   22  C   UNL     1      44.629 -12.365   9.205  1.00  0.00     0.153 A 
HETATM   23  N   UNL     1      45.378 -12.393  10.343  1.00  0.00    -0.169 NA
HETATM   24  N   UNL     1      44.779 -11.498  11.174  1.00  0.00    -0.281 N 
HETATM   25  H   UNL     1      45.168 -11.352  12.101  1.00  0.00     0.189 HD
HETATM   26  C   UNL     1      43.718 -10.911  10.588  1.00  0.00     0.036 A 
HETATM   27  C   UNL     1      43.589 -11.437   9.340  1.00  0.00     0.002 A 
HETATM   28  C   UNL     1      42.735  -9.881  10.940  1.00  0.00     0.059 C 
HETATM   29  C   UNL     1      42.463 -10.840   8.607  1.00  0.00     0.043 C 
HETATM   30  C   UNL     1      42.105  -9.613   9.525  1.00  0.00     0.011 C 
ENDBRANCH  19  22
ENDBRANCH   2  18
TORSDOF 2
ENDMDL
MODEL 4
REMARK VINA RESULT:      -9.0      4.725      9.110
REMARK  2 active torsions:
REMARK  status: ('A' for Active; 'I' for Inactive)
REMARK    1  A    between atoms: C_2  and  N_3 
REMARK       I    between atoms: N_3  and  C_4 
REMARK    2  A    between atoms: C_4  and  C_5 
ROOT
HETATM    1  C   UNL     1      43.176 -14.583   3.542  1.00  0.00     0.032 A 
HETATM    2  C   UNL     1      43.020 -15.673   2.694  1.00  0.00     0.036 A 
HETATM    3  C   UNL     1      42.434 -15.467   1.442  1.00  0.00     0.049 A 
HETATM    4  C   UNL     1      42.068 -14.178   0.999  1.00  0.00     0.061 A 
HETATM    5  C   UNL     1      42.279 -13.077   1.839  1.00  0.00     0.050 A 
HETATM    6  N   UNL     1      42.021 -11.731   1.535  1.00  0.00    -0.324 N 
HETATM    7  C   UNL     1      42.058 -11.106   0.318  1.00  0.00     0.245 C 
HETATM    8  O   UNL     1      41.973  -9.877   0.296  1.00  0.00    -0.271 OA
HETATM    9  C   UNL     1      42.420 -11.935  -0.911  1.00  0.00     0.180 C 
HETATM   10  N   UNL     1      41.476 -13.025  -1.104  1.00  0.00    -0.334 N 
HETATM   11  C   UNL     1      41.357 -14.134  -0.305  1.00  0.00     0.256 C 
HETATM   12  O   UNL     1      40.689 -15.111  -0.641  1.00  0.00    -0.267 OA
HETATM   13  C   UNL     1      42.334 -11.120  -2.208  1.00  0.00     0.037 C 
HETATM   14  C   UNL     1      41.867 -12.139  -3.236  1.00  0.00     0.022 C 
HETATM   15  C   UNL     1      40.899 -12.995  -2.437  1.00  0.00     0.127 C 
HETATM   16  C   UNL     1      42.792 -13.304   3.126  1.00  0.00     0.033 A 
HETATM   17  H   UNL     1      41.994 -11.064   2.298  1.00  0.00     0.169 HD
ENDROOT
BRANCH   2  18
HETATM   18  N   UNL     1      43.423 -16.977   3.012  1.00  0.00    -0.322 N 
HETATM   19  C   UNL     1      43.056 -17.746   4.101  1.00  0.00     0.277 C 
HETATM   20  O   UNL     1      42.252 -17.438   4.974  1.00  0.00    -0.266 OA
HETATM   21  H   UNL     1      44.136 -17.421   2.435  1.00  0.00     0.169 HD
BRANCH  19  22
HETATM   22  C   UNL     1      43.793 -19.020   4.138  1.00  0.00     0.153 A 
HETATM   23  N   UNL     1      44.494 -19.417   5.238  1.00  0.00    -0.169 NA
HETATM   24  N   UNL     1      45.011 -20.629   4.900  1.00  0.00    -0.281 N 
HETATM   25  H   UNL     1      45.586 -21.122   5.576  1.00  0.00     0.189 HD
HETATM   26  C   UNL     1      44.640 -20.997   3.659  1.00  0.00     0.036 A 
HETATM   27  C   UNL     1      43.870 -20.002   3.143  1.00  0.00     0.002 A 
HETATM   28  C   UNL     1      44.834 -22.159   2.784  1.00  0.00     0.059 C 
HETATM   29  C   UNL     1      43.395 -20.322   1.788  1.00  0.00     0.043 C 
HETATM   30  C   UNL     1      43.759 -21.849   1.680  1.00  0.00     0.011 C 
ENDBRANCH  19  22
ENDBRANCH   2  18
TORSDOF 2
ENDMDL
MODEL 5
REMARK VINA RESULT:      -8.9      5.450      9.287
REMARK  2 active torsions:
REMARK  status: ('A' for Active; 'I' for Inactive)
REMARK    1  A    between atoms: C_2  and  N_3 
REMARK       I    between atoms: N_3  and  C_4 
REMARK    2  A    between atoms: C_4  and  C_5 
ROOT
HETATM    1  C   UNL     1      39.986 -15.642   2.618  1.00  0.00     0.032 A 
HETATM    2  C   UNL     1      41.023 -16.303   1.972  1.00  0.00     0.036 A 
HETATM    3  C   UNL     1      41.252 -16.029   0.621  1.00  0.00     0.049 A 
HETATM    4  C   UNL     1      40.505 -15.054  -0.073  1.00  0.00     0.061 A 
HETATM    5  C   UNL     1      39.496 -14.353   0.601  1.00  0.00     0.050 A 
HETATM    6  N   UNL     1      38.701 -13.322   0.076  1.00  0.00    -0.324 N 
HETATM    7  C   UNL     1      39.014 -12.407  -0.892  1.00  0.00     0.245 C 
HETATM    8  O   UNL     1      38.232 -11.473  -1.080  1.00  0.00    -0.271 OA
HETATM    9  C   UNL     1      40.400 -12.469  -1.525  1.00  0.00     0.180 C 
HETATM   10  N   UNL     1      40.625 -13.753  -2.170  1.00  0.00    -0.334 N 
HETATM   11  C   UNL     1      40.788 -14.955  -1.528  1.00  0.00     0.256 C 
HETATM   12  O   UNL     1      41.181 -15.961  -2.118  1.00  0.00    -0.267 OA
HETATM   13  C   UNL     1      40.572 -11.441  -2.651  1.00  0.00     0.037 C 
HETATM   14  C   UNL     1      41.488 -12.147  -3.640  1.00  0.00     0.022 C 
HETATM   15  C   UNL     1      41.010 -13.587  -3.561  1.00  0.00     0.127 C 
HETATM   16  C   UNL     1      39.219 -14.692   1.934  1.00  0.00     0.033 A 
HETATM   17  H   UNL     1      37.861 -13.061   0.580  1.00  0.00     0.169 HD
ENDROOT
BRANCH   2  18
HETATM   18  N   UNL     1      41.869 -17.230   2.596  1.00  0.00    -0.322 N 
HETATM   19  C   UNL     1      43.080 -17.000   3.222  1.00  0.00     0.277 C 
HETATM   20  O   UNL     1      43.617 -15.910   3.395  1.00  0.00    -0.266 OA
HETATM   21  H   UNL     1      41.637 -18.221   2.535  1.00  0.00     0.169 HD
BRANCH  19  22
HETATM   22  C   UNL     1      43.720 -18.256   3.647  1.00  0.00     0.153 A 
HETATM   23  N   UNL     1      44.275 -18.402   4.882  1.00  0.00    -0.169 NA
HETATM   24  N   UNL     1      44.739 -19.681   4.905  1.00  0.00    -0.281 N 
HETATM   25  H   UNL     1      45.206 -20.018   5.741  1.00  0.00     0.189 HD
HETATM   26  C   UNL     1      44.472 -20.324   3.753  1.00  0.00     0.036 A 
HETATM   27  C   UNL     1      43.830 -19.454   2.929  1.00  0.00     0.002 A 
HETATM   28  C   UNL     1      44.674 -21.672   3.208  1.00  0.00     0.059 C 
HETATM   29  C   UNL     1      43.474 -20.075   1.644  1.00  0.00     0.043 C 
HETATM   30  C   UNL     1      43.740 -21.596   1.946  1.00  0.00     0.011 C 
ENDBRANCH  19  22
ENDBRANCH   2  18
TORSDOF 2
ENDMDL
MODEL 6
REMARK VINA RESULT:      -8.9      4.340      8.734
REMARK  2 active torsions:
REMARK  status: ('A' for Active; 'I' for Inactive)
REMARK    1  A    between atoms: C_2  and  N_3 
REMARK       I    between atoms: N_3  and  C_4 
REMARK    2  A    between atoms: C_4  and  C_5 
ROOT
HETATM    1  C   UNL     1      41.239 -16.315   6.189  1.00  0.00     0.032 A 
HETATM    2  C   UNL     1      41.520 -16.906   4.964  1.00  0.00     0.036 A 
HETATM    3  C   UNL     1      40.991 -16.328   3.806  1.00  0.00     0.049 A 
HETATM    4  C   UNL     1      40.245 -15.132   3.851  1.00  0.00     0.061 A 
HETATM    5  C   UNL     1      40.012 -14.513   5.086  1.00  0.00     0.050 A 
HETATM    6  N   UNL     1      39.339 -13.300   5.300  1.00  0.00    -0.324 N 
HETATM    7  C   UNL     1      39.251 -12.212   4.474  1.00  0.00     0.245 C 
HETATM    8  O   UNL     1      38.757 -11.178   4.929  1.00  0.00    -0.271 OA
HETATM    9  C   UNL     1      39.957 -12.270   3.123  1.00  0.00     0.180 C 
HETATM   10  N   UNL     1      39.452 -13.368   2.314  1.00  0.00    -0.334 N 
HETATM   11  C   UNL     1      39.656 -14.703   2.556  1.00  0.00     0.256 C 
HETATM   12  O   UNL     1      39.382 -15.566   1.723  1.00  0.00    -0.267 OA
HETATM   13  C   UNL     1      39.695 -11.018   2.276  1.00  0.00     0.037 C 
HETATM   14  C   UNL     1      39.673 -11.552   0.851  1.00  0.00     0.022 C 
HETATM   15  C   UNL     1      38.996 -12.902   1.015  1.00  0.00     0.127 C 
HETATM   16  C   UNL     1      40.478 -15.143   6.251  1.00  0.00     0.033 A 
HETATM   17  H   UNL     1      39.034 -13.080   6.241  1.00  0.00     0.169 HD
ENDROOT
BRANCH   2  18
HETATM   18  N   UNL     1      42.315 -18.050   4.810  1.00  0.00    -0.322 N 
HETATM   19  C   UNL     1      43.662 -18.200   5.082  1.00  0.00     0.277 C 
HETATM   20  O   UNL     1      44.407 -17.356   5.570  1.00  0.00    -0.266 OA
HETATM   21  H   UNL     1      41.906 -18.874   4.372  1.00  0.00     0.169 HD
BRANCH  19  22
HETATM   22  C   UNL     1      44.155 -19.526   4.672  1.00  0.00     0.153 A 
HETATM   23  N   UNL     1      44.770 -20.371   5.545  1.00  0.00    -0.169 NA
HETATM   24  N   UNL     1      45.058 -21.479   4.812  1.00  0.00    -0.281 N 
HETATM   25  H   UNL     1      45.533 -22.256   5.262  1.00  0.00     0.189 HD
HETATM   26  C   UNL     1      44.627 -21.358   3.543  1.00  0.00     0.036 A 
HETATM   27  C   UNL     1      44.051 -20.133   3.413  1.00  0.00     0.002 A 
HETATM   28  C   UNL     1      44.606 -22.192   2.335  1.00  0.00     0.059 C 
HETATM   29  C   UNL     1      43.526 -19.912   2.058  1.00  0.00     0.043 C 
HETATM   30  C   UNL     1      43.605 -21.362   1.451  1.00  0.00     0.011 C 
ENDBRANCH  19  22
ENDBRANCH   2  18
TORSDOF 2
ENDMDL
MODEL 7
REMARK VINA RESULT:      -8.7      4.159      7.754
REMARK  2 active torsions:
REMARK  status: ('A' for Active; 'I' for Inactive)
REMARK    1  A    between atoms: C_2  and  N_3 
REMARK       I    between atoms: N_3  and  C_4 
REMARK    2  A    between atoms: C_4  and  C_5 
ROOT
HETATM    1  C   UNL     1      41.567 -15.216   4.339  1.00  0.00     0.032 A 
HETATM    2  C   UNL     1      41.607 -15.910   3.136  1.00  0.00     0.036 A 
HETATM    3  C   UNL     1      42.409 -17.051   3.048  1.00  0.00     0.049 A 
HETATM    4  C   UNL     1      43.116 -17.546   4.164  1.00  0.00     0.061 A 
HETATM    5  C   UNL     1      43.028 -16.871   5.388  1.00  0.00     0.050 A 
HETATM    6  N   UNL     1      43.622 -17.257   6.601  1.00  0.00    -0.324 N 
HETATM    7  C   UNL     1      43.912 -18.517   7.049  1.00  0.00     0.245 C 
HETATM    8  O   UNL     1      44.271 -18.645   8.222  1.00  0.00    -0.271 OA
HETATM    9  C   UNL     1      43.569 -19.701   6.152  1.00  0.00     0.180 C 
HETATM   10  N   UNL     1      44.266 -19.613   4.878  1.00  0.00    -0.334 N 
HETATM   11  C   UNL     1      44.011 -18.699   3.886  1.00  0.00     0.256 C 
HETATM   12  O   UNL     1      44.490 -18.811   2.758  1.00  0.00    -0.267 OA
HETATM   13  C   UNL     1      44.033 -21.037   6.749  1.00  0.00     0.037 C 
HETATM   14  C   UNL     1      44.415 -21.858   5.527  1.00  0.00     0.022 C 
HETATM   15  C   UNL     1      45.033 -20.817   4.609  1.00  0.00     0.127 C 
HETATM   16  C   UNL     1      42.285 -15.681   5.446  1.00  0.00     0.033 A 
HETATM   17  H   UNL     1      43.678 -16.572   7.345  1.00  0.00     0.169 HD
ENDROOT
BRANCH   2  18
HETATM   18  N   UNL     1      40.880 -15.541   1.996  1.00  0.00    -0.322 N 
HETATM   19  C   UNL     1      41.114 -14.486   1.134  1.00  0.00     0.277 C 
HETATM   20  O   UNL     1      42.053 -13.698   1.183  1.00  0.00    -0.266 OA
HETATM   21  H   UNL     1      40.017 -16.041   1.784  1.00  0.00     0.169 HD
BRANCH  19  22
HETATM   22  C   UNL     1      40.051 -14.364   0.123  1.00  0.00     0.153 A 
HETATM   23  N   UNL     1      38.742 -14.198   0.467  1.00  0.00    -0.169 NA
HETATM   24  N   UNL     1      38.081 -14.110  -0.719  1.00  0.00    -0.281 N 
HETATM   25  H   UNL     1      37.073 -13.988  -0.710  1.00  0.00     0.189 HD
HETATM   26  C   UNL     1      38.926 -14.191  -1.764  1.00  0.00     0.036 A 
HETATM   27  C   UNL     1      40.183 -14.356  -1.271  1.00  0.00     0.002 A 
HETATM   28  C   UNL     1      38.828 -14.125  -3.227  1.00  0.00     0.059 C 
HETATM   29  C   UNL     1      41.187 -14.434  -2.343  1.00  0.00     0.043 C 
HETATM   30  C   UNL     1      40.350 -13.971  -3.592  1.00  0.00     0.011 C 
ENDBRANCH  19  22
ENDBRANCH   2  18
TORSDOF 2
ENDMDL
MODEL 8
REMARK VINA RESULT:      -8.6      4.392      7.844
REMARK  2 active torsions:
REMARK  status: ('A' for Active; 'I' for Inactive)
REMARK    1  A    between atoms: C_2  and  N_3 
REMARK       I    between atoms: N_3  and  C_4 
REMARK    2  A    between atoms: C_4  and  C_5 
ROOT
HETATM    1  C   UNL     1      43.384 -17.998   0.823  1.00  0.00     0.032 A 
HETATM    2  C   UNL     1      42.768 -16.786   1.109  1.00  0.00     0.036 A 
HETATM    3  C   UNL     1      42.359 -16.537   2.421  1.00  0.00     0.049 A 
HETATM    4  C   UNL     1      42.620 -17.452   3.463  1.00  0.00     0.061 A 
HETATM    5  C   UNL     1      43.290 -18.648   3.177  1.00  0.00     0.050 A 
HETATM    6  N   UNL     1      43.671 -19.635   4.100  1.00  0.00    -0.324 N 
HETATM    7  C   UNL     1      44.006 -19.490   5.419  1.00  0.00     0.245 C 
HETATM    8  O   UNL     1      44.483 -20.464   6.005  1.00  0.00    -0.271 OA
HETATM    9  C   UNL     1      43.975 -18.091   6.024  1.00  0.00     0.180 C 
HETATM   10  N   UNL     1      42.645 -17.509   5.933  1.00  0.00    -0.334 N 
HETATM   11  C   UNL     1      42.026 -17.099   4.780  1.00  0.00     0.256 C 
HETATM   12  O   UNL     1      40.995 -16.428   4.796  1.00  0.00    -0.267 OA
HETATM   13  C   UNL     1      44.287 -18.100   7.527  1.00  0.00     0.037 C 
HETATM   14  C   UNL     1      43.427 -16.970   8.074  1.00  0.00     0.022 C 
HETATM   15  C   UNL     1      42.165 -17.079   7.236  1.00  0.00     0.127 C 
HETATM   16  C   UNL     1      43.625 -18.926   1.842  1.00  0.00     0.033 A 
HETATM   17  H   UNL     1      43.935 -20.547   3.744  1.00  0.00     0.169 HD
ENDROOT
BRANCH   2  18
HETATM   18  N   UNL     1      42.536 -15.783   0.157  1.00  0.00    -0.322 N 
HETATM   19  C   UNL     1      41.350 -15.132  -0.130  1.00  0.00     0.277 C 
HETATM   20  O   UNL     1      40.278 -15.282   0.447  1.00  0.00    -0.266 OA
HETATM   21  H   UNL     1      43.292 -15.527  -0.476  1.00  0.00     0.169 HD
BRANCH  19  22
HETATM   22  C   UNL     1      41.493 -14.226  -1.281  1.00  0.00     0.153 A 
HETATM   23  N   UNL     1      41.131 -14.597  -2.542  1.00  0.00    -0.169 NA
HETATM   24  N   UNL     1      41.392 -13.507  -3.312  1.00  0.00    -0.281 N 
HETATM   25  H   UNL     1      41.202 -13.554  -4.308  1.00  0.00     0.189 HD
HETATM   26  C   UNL     1      41.873 -12.486  -2.578  1.00  0.00     0.036 A 
HETATM   27  C   UNL     1      41.955 -12.904  -1.287  1.00  0.00     0.002 A 
HETATM   28  C   UNL     1      42.286 -11.098  -2.816  1.00  0.00     0.059 C 
HETATM   29  C   UNL     1      42.454 -11.845  -0.397  1.00  0.00     0.043 C 
HETATM   30  C   UNL     1      42.370 -10.583  -1.333  1.00  0.00     0.011 C 
ENDBRANCH  19  22
ENDBRANCH   2  18
TORSDOF 2
ENDMDL
MODEL 9
REMARK VINA RESULT:      -8.3      3.351      4.162
REMARK  2 active torsions:
REMARK  status: ('A' for Active; 'I' for Inactive)
REMARK    1  A    between atoms: C_2  and  N_3 
REMARK       I    between atoms: N_3  and  C_4 
REMARK    2  A    between atoms: C_4  and  C_5 
ROOT
HETATM    1  C   UNL     1      39.504 -12.624   4.524  1.00  0.00     0.032 A 
HETATM    2  C   UNL     1      39.792 -13.058   5.812  1.00  0.00     0.036 A 
HETATM    3  C   UNL     1      40.341 -14.332   5.981  1.00  0.00     0.049 A 
HETATM    4  C   UNL     1      40.669 -15.149   4.879  1.00  0.00     0.061 A 
HETATM    5  C   UNL     1      40.425 -14.682   3.581  1.00  0.00     0.050 A 
HETATM    6  N   UNL     1      40.739 -15.342   2.382  1.00  0.00    -0.324 N 
HETATM    7  C   UNL     1      41.761 -16.216   2.128  1.00  0.00     0.245 C 
HETATM    8  O   UNL     1      41.963 -16.545   0.956  1.00  0.00    -0.271 OA
HETATM    9  C   UNL     1      42.719 -16.559   3.263  1.00  0.00     0.180 C 
HETATM   10  N   UNL     1      42.012 -17.163   4.382  1.00  0.00    -0.334 N 
HETATM   11  C   UNL     1      41.139 -16.517   5.221  1.00  0.00     0.256 C 
HETATM   12  O   UNL     1      40.740 -17.029   6.266  1.00  0.00    -0.267 OA
HETATM   13  C   UNL     1      43.754 -17.615   2.852  1.00  0.00     0.037 C 
HETATM   14  C   UNL     1      43.978 -18.409   4.130  1.00  0.00     0.022 C 
HETATM   15  C   UNL     1      42.589 -18.446   4.744  1.00  0.00     0.127 C 
HETATM   16  C   UNL     1      39.800 -13.436   3.423  1.00  0.00     0.033 A 
HETATM   17  H   UNL     1      40.306 -15.013   1.527  1.00  0.00     0.169 HD
ENDROOT
BRANCH   2  18
HETATM   18  N   UNL     1      39.575 -12.289   6.964  1.00  0.00    -0.322 N 
HETATM   19  C   UNL     1      40.372 -11.290   7.490  1.00  0.00     0.277 C 
HETATM   20  O   UNL     1      41.408 -10.850   7.003  1.00  0.00    -0.266 OA
HETATM   21  H   UNL     1      38.780 -12.517   7.559  1.00  0.00     0.169 HD
BRANCH  19  22
HETATM   22  C   UNL     1      39.855 -10.807   8.781  1.00  0.00     0.153 A 
HETATM   23  N   UNL     1      38.558 -10.420   8.941  1.00  0.00    -0.169 NA
HETATM   24  N   UNL     1      38.461 -10.063  10.250  1.00  0.00    -0.281 N 
HETATM   25  H   UNL     1      37.569  -9.730  10.602  1.00  0.00     0.189 HD
HETATM   26  C   UNL     1      39.629 -10.236  10.897  1.00  0.00     0.036 A 
HETATM   27  C   UNL     1      40.537 -10.703  10.000  1.00  0.00     0.002 A 
HETATM   28  C   UNL     1      40.127 -10.074  12.268  1.00  0.00     0.059 C 
HETATM   29  C   UNL     1      41.848 -10.945  10.621  1.00  0.00     0.043 C 
HETATM   30  C   UNL     1      41.496 -10.836  12.150  1.00  0.00     0.011 C 
ENDBRANCH  19  22
ENDBRANCH   2  18
TORSDOF 2
ENDMDL
MODEL 10
REMARK VINA RESULT:      -8.3      5.402      9.293
REMARK  2 active torsions:
REMARK  status: ('A' for Active; 'I' for Inactive)
REMARK    1  A    between atoms: C_2  and  N_3 
REMARK       I    between atoms: N_3  and  C_4 
REMARK    2  A    between atoms: C_4  and  C_5 
ROOT
HETATM    1  C   UNL     1      41.623 -14.100   1.387  1.00  0.00     0.032 A 
HETATM    2  C   UNL     1      41.564 -15.314   0.714  1.00  0.00     0.036 A 
HETATM    3  C   UNL     1      42.234 -16.413   1.257  1.00  0.00     0.049 A 
HETATM    4  C   UNL     1      42.902 -16.333   2.497  1.00  0.00     0.061 A 
HETATM    5  C   UNL     1      42.911 -15.119   3.196  1.00  0.00     0.050 A 
HETATM    6  N   UNL     1      43.481 -14.885   4.458  1.00  0.00    -0.324 N 
HETATM    7  C   UNL     1      43.639 -15.756   5.501  1.00  0.00     0.245 C 
HETATM    8  O   UNL     1      44.003 -15.299   6.587  1.00  0.00    -0.271 OA
HETATM    9  C   UNL     1      43.152 -17.191   5.327  1.00  0.00     0.180 C 
HETATM   10  N   UNL     1      43.830 -17.844   4.218  1.00  0.00    -0.334 N 
HETATM   11  C   UNL     1      43.660 -17.550   2.888  1.00  0.00     0.256 C 
HETATM   12  O   UNL     1      44.103 -18.276   1.998  1.00  0.00    -0.267 OA
HETATM   13  C   UNL     1      43.476 -18.068   6.543  1.00  0.00     0.037 C 
HETATM   14  C   UNL     1      43.743 -19.436   5.933  1.00  0.00     0.022 C 
HETATM   15  C   UNL     1      44.456 -19.086   4.638  1.00  0.00     0.127 C 
HETATM   16  C   UNL     1      42.305 -14.000   2.605  1.00  0.00     0.033 A 
HETATM   17  H   UNL     1      43.626 -13.924   4.747  1.00  0.00     0.169 HD
ENDROOT
BRANCH   2  18
HETATM   18  N   UNL     1      40.861 -15.512  -0.483  1.00  0.00    -0.322 N 
HETATM   19  C   UNL     1      41.026 -14.860  -1.691  1.00  0.00     0.277 C 
HETATM   20  O   UNL     1      41.872 -14.012  -1.953  1.00  0.00    -0.266 OA
HETATM   21  H   UNL     1      40.069 -16.153  -0.483  1.00  0.00     0.169 HD
BRANCH  19  22
HETATM   22  C   UNL     1      40.009 -15.273  -2.673  1.00  0.00     0.153 A 
HETATM   23  N   UNL     1      40.006 -16.515  -3.231  1.00  0.00    -0.169 NA
HETATM   24  N   UNL     1      38.925 -16.522  -4.057  1.00  0.00    -0.281 N 
HETATM   25  H   UNL     1      38.724 -17.360  -4.594  1.00  0.00     0.189 HD
HETATM   26  C   UNL     1      38.259 -15.353  -4.010  1.00  0.00     0.036 A 
HETATM   27  C   UNL     1      38.917 -14.534  -3.146  1.00  0.00     0.002 A 
HETATM   28  C   UNL     1      37.048 -14.786  -4.613  1.00  0.00     0.059 C 
HETATM   29  C   UNL     1      38.250 -13.231  -3.009  1.00  0.00     0.043 C 
HETATM   30  C   UNL     1      36.872 -13.507  -3.716  1.00  0.00     0.011 C 
ENDBRANCH  19  22
ENDBRANCH   2  18
TORSDOF 2
ENDMDL
