MODEL 1
REMARK VINA RESULT:      -7.8      0.000      0.000
REMARK  5 active torsions:
REMARK  status: ('A' for Active; 'I' for Inactive)
REMARK    1  A    between atoms: C_3  and  N_4 
REMARK       I    between atoms: N_4  and  C_5 
REMARK       I    between atoms: C_5  and  N_6 
REMARK    2  A    between atoms: N_6  and  C_7 
REMARK    3  A    between atoms: C_7  and  C_8 
REMARK    4  A    between atoms: C_8  and  C_9 
REMARK    5  A    between atoms: N_15  and  C_16 
ROOT
HETATM    1  C   UNL     1      41.707 -15.619   0.377  1.00  0.00     0.054 C 
HETATM    2  C   UNL     1      41.967 -16.694   1.364  1.00  0.00     0.003 A 
HETATM    3  C   UNL     1      41.449 -16.855   2.672  1.00  0.00     0.159 A 
HETATM    4  N   UNL     1      41.947 -17.942   3.267  1.00  0.00    -0.149 NA
HETATM    5  N   UNL     1      42.773 -18.521   2.350  1.00  0.00    -0.241 N 
HETATM    6  C   UNL     1      42.821 -17.764   1.203  1.00  0.00     0.129 A 
ENDROOT
BRANCH   3   7
HETATM    7  N   UNL     1      40.570 -15.981   3.275  1.00  0.00    -0.291 N 
HETATM    8  C   UNL     1      40.783 -15.131   4.315  1.00  0.00     0.321 C 
HETATM    9  N   UNL     1      41.979 -15.218   4.957  1.00  0.00    -0.343 N 
HETATM   10  O   UNL     1      39.893 -14.357   4.660  1.00  0.00    -0.247 OA
HETATM   11  H   UNL     1      42.679 -15.781   4.473  1.00  0.00     0.164 HD
HETATM   12  H   UNL     1      39.637 -15.924   2.898  1.00  0.00     0.172 HD
BRANCH   9  13
HETATM   13  C   UNL     1      42.379 -14.318   6.018  1.00  0.00     0.133 C 
BRANCH  13  14
HETATM   14  C   UNL     1      43.762 -13.725   5.788  1.00  0.00     0.137 C 
BRANCH  14  15
HETATM   15  C   UNL     1      44.734 -14.262   6.805  1.00  0.00     0.389 C 
HETATM   16  F   UNL     1      44.352 -13.970   8.066  1.00  0.00    -0.171 F 
HETATM   17  F   UNL     1      44.837 -15.605   6.708  1.00  0.00    -0.171 F 
HETATM   18  F   UNL     1      45.969 -13.746   6.619  1.00  0.00    -0.171 F 
ENDBRANCH  14  15
ENDBRANCH  13  14
ENDBRANCH   9  13
ENDBRANCH   3   7
BRANCH   5  19
HETATM   19  C   UNL     1      43.500 -19.699   2.691  1.00  0.00     0.079 A 
HETATM   20  C   UNL     1      44.248 -19.859   3.868  1.00  0.00     0.062 A 
HETATM   21 CL   UNL     1      44.613 -18.603   5.000  1.00  0.00    -0.082 Cl
HETATM   22  C   UNL     1      44.868 -21.091   4.136  1.00  0.00     0.026 A 
HETATM   23  C   UNL     1      44.766 -22.158   3.245  1.00  0.00     0.002 A 
HETATM   24  C   UNL     1      44.057 -21.997   2.062  1.00  0.00     0.002 A 
HETATM   25  C   UNL     1      43.436 -20.779   1.782  1.00  0.00     0.033 A 
ENDBRANCH   5  19
TORSDOF 5
ENDMDL
MODEL 2
REMARK VINA RESULT:      -7.8      3.148      4.662
REMARK  5 active torsions:
REMARK  status: ('A' for Active; 'I' for Inactive)
REMARK    1  A    between atoms: C_3  and  N_4 
REMARK       I    between atoms: N_4  and  C_5 
REMARK       I    between atoms: C_5  and  N_6 
REMARK    2  A    between atoms: N_6  and  C_7 
REMARK    3  A    between atoms: C_7  and  C_8 
REMARK    4  A    between atoms: C_8  and  C_9 
REMARK    5  A    between atoms: N_15  and  C_16 
ROOT
HETATM    1  C   UNL     1      44.462 -15.436   7.004  1.00  0.00     0.054 C 
HETATM    2  C   UNL     1      43.990 -16.575   6.181  1.00  0.00     0.003 A 
HETATM    3  C   UNL     1      42.744 -16.759   5.536  1.00  0.00     0.159 A 
HETATM    4  N   UNL     1      42.684 -17.938   4.911  1.00  0.00    -0.149 NA
HETATM    5  N   UNL     1      43.896 -18.527   5.115  1.00  0.00    -0.241 N 
HETATM    6  C   UNL     1      44.689 -17.731   5.906  1.00  0.00     0.129 A 
ENDROOT
BRANCH   3   7
HETATM    7  N   UNL     1      41.705 -15.854   5.575  1.00  0.00    -0.291 N 
HETATM    8  C   UNL     1      40.800 -15.545   4.607  1.00  0.00     0.321 C 
HETATM    9  N   UNL     1      40.992 -16.090   3.376  1.00  0.00    -0.343 N 
HETATM   10  O   UNL     1      39.881 -14.769   4.860  1.00  0.00    -0.247 OA
HETATM   11  H   UNL     1      41.689 -16.835   3.346  1.00  0.00     0.164 HD
HETATM   12  H   UNL     1      41.553 -15.354   6.436  1.00  0.00     0.172 HD
BRANCH   9  13
HETATM   13  C   UNL     1      40.061 -15.924   2.279  1.00  0.00     0.133 C 
BRANCH  13  14
HETATM   14  C   UNL     1      40.717 -15.322   1.045  1.00  0.00     0.137 C 
BRANCH  14  15
HETATM   15  C   UNL     1      41.481 -16.380   0.293  1.00  0.00     0.389 C 
HETATM   16  F   UNL     1      41.023 -17.620   0.568  1.00  0.00    -0.171 F 
HETATM   17  F   UNL     1      41.378 -16.191  -1.041  1.00  0.00    -0.171 F 
HETATM   18  F   UNL     1      42.795 -16.349   0.606  1.00  0.00    -0.171 F 
ENDBRANCH  14  15
ENDBRANCH  13  14
ENDBRANCH   9  13
ENDBRANCH   3   7
BRANCH   5  19
HETATM   19  C   UNL     1      44.148 -19.833   4.599  1.00  0.00     0.079 A 
HETATM   20  C   UNL     1      44.151 -20.163   3.235  1.00  0.00     0.062 A 
HETATM   21 CL   UNL     1      43.638 -19.121   1.953  1.00  0.00    -0.082 Cl
HETATM   22  C   UNL     1      44.482 -21.468   2.835  1.00  0.00     0.026 A 
HETATM   23  C   UNL     1      44.794 -22.451   3.774  1.00  0.00     0.002 A 
HETATM   24  C   UNL     1      44.758 -22.143   5.126  1.00  0.00     0.002 A 
HETATM   25  C   UNL     1      44.431 -20.850   5.538  1.00  0.00     0.033 A 
ENDBRANCH   5  19
TORSDOF 5
ENDMDL
MODEL 3
REMARK VINA RESULT:      -7.7      3.634      6.429
REMARK  5 active torsions:
REMARK  status: ('A' for Active; 'I' for Inactive)
REMARK    1  A    between atoms: C_3  and  N_4 
REMARK       I    between atoms: N_4  and  C_5 
REMARK       I    between atoms: C_5  and  N_6 
REMARK    2  A    between atoms: N_6  and  C_7 
REMARK    3  A    between atoms: C_7  and  C_8 
REMARK    4  A    between atoms: C_8  and  C_9 
REMARK    5  A    between atoms: N_15  and  C_16 
ROOT
HETATM    1  C   UNL     1      44.250 -15.657   6.989  1.00  0.00     0.054 C 
HETATM    2  C   UNL     1      43.504 -16.148   5.807  1.00  0.00     0.003 A 
HETATM    3  C   UNL     1      42.967 -17.434   5.555  1.00  0.00     0.159 A 
HETATM    4  N   UNL     1      42.385 -17.497   4.355  1.00  0.00    -0.149 NA
HETATM    5  N   UNL     1      42.509 -16.251   3.817  1.00  0.00    -0.241 N 
HETATM    6  C   UNL     1      43.209 -15.429   4.668  1.00  0.00     0.129 A 
ENDROOT
BRANCH   3   7
HETATM    7  N   UNL     1      43.062 -18.502   6.422  1.00  0.00    -0.291 N 
HETATM    8  C   UNL     1      43.717 -19.683   6.260  1.00  0.00     0.321 C 
HETATM    9  N   UNL     1      44.257 -19.933   5.037  1.00  0.00    -0.343 N 
HETATM   10  O   UNL     1      43.763 -20.485   7.189  1.00  0.00    -0.247 OA
HETATM   11  H   UNL     1      44.288 -19.126   4.413  1.00  0.00     0.164 HD
HETATM   12  H   UNL     1      42.614 -18.415   7.321  1.00  0.00     0.172 HD
BRANCH   9  13
HETATM   13  C   UNL     1      45.059 -21.104   4.747  1.00  0.00     0.133 C 
BRANCH  13  14
HETATM   14  C   UNL     1      44.421 -22.002   3.697  1.00  0.00     0.137 C 
BRANCH  14  15
HETATM   15  C   UNL     1      44.411 -21.312   2.358  1.00  0.00     0.389 C 
HETATM   16  F   UNL     1      44.626 -22.179   1.346  1.00  0.00    -0.171 F 
HETATM   17  F   UNL     1      43.222 -20.710   2.136  1.00  0.00    -0.171 F 
HETATM   18  F   UNL     1      45.366 -20.359   2.293  1.00  0.00    -0.171 F 
ENDBRANCH  14  15
ENDBRANCH  13  14
ENDBRANCH   9  13
ENDBRANCH   3   7
BRANCH   5  19
HETATM   19  C   UNL     1      42.015 -15.990   2.505  1.00  0.00     0.079 A 
HETATM   20  C   UNL     1      42.535 -16.560   1.332  1.00  0.00     0.062 A 
HETATM   21 CL   UNL     1      43.989 -17.492   1.232  1.00  0.00    -0.082 Cl
HETATM   22  C   UNL     1      41.925 -16.288   0.096  1.00  0.00     0.026 A 
HETATM   23  C   UNL     1      40.817 -15.445   0.010  1.00  0.00     0.002 A 
HETATM   24  C   UNL     1      40.319 -14.849   1.160  1.00  0.00     0.002 A 
HETATM   25  C   UNL     1      40.915 -15.111   2.395  1.00  0.00     0.033 A 
ENDBRANCH   5  19
TORSDOF 5
ENDMDL
MODEL 4
REMARK VINA RESULT:      -7.6      5.177      6.587
REMARK  5 active torsions:
REMARK  status: ('A' for Active; 'I' for Inactive)
REMARK    1  A    between atoms: C_3  and  N_4 
REMARK       I    between atoms: N_4  and  C_5 
REMARK       I    between atoms: C_5  and  N_6 
REMARK    2  A    between atoms: N_6  and  C_7 
REMARK    3  A    between atoms: C_7  and  C_8 
REMARK    4  A    between atoms: C_8  and  C_9 
REMARK    5  A    between atoms: N_15  and  C_16 
ROOT
HETATM    1  C   UNL     1      38.995 -15.150   1.865  1.00  0.00     0.054 C 
HETATM    2  C   UNL     1      40.354 -15.739   1.890  1.00  0.00     0.003 A 
HETATM    3  C   UNL     1      41.527 -15.318   1.216  1.00  0.00     0.159 A 
HETATM    4  N   UNL     1      42.556 -16.131   1.468  1.00  0.00    -0.149 NA
HETATM    5  N   UNL     1      42.080 -17.076   2.328  1.00  0.00    -0.241 N 
HETATM    6  C   UNL     1      40.743 -16.873   2.572  1.00  0.00     0.129 A 
ENDROOT
BRANCH   3   7
HETATM    7  N   UNL     1      41.594 -14.228   0.375  1.00  0.00    -0.291 N 
HETATM    8  C   UNL     1      41.486 -14.183  -0.980  1.00  0.00     0.321 C 
HETATM    9  N   UNL     1      41.430 -15.370  -1.642  1.00  0.00    -0.343 N 
HETATM   10  O   UNL     1      41.483 -13.096  -1.554  1.00  0.00    -0.247 OA
HETATM   11  H   UNL     1      41.279 -16.182  -1.043  1.00  0.00     0.164 HD
HETATM   12  H   UNL     1      41.715 -13.321   0.796  1.00  0.00     0.172 HD
BRANCH   9  13
HETATM   13  C   UNL     1      41.222 -15.474  -3.071  1.00  0.00     0.133 C 
BRANCH  13  14
HETATM   14  C   UNL     1      39.847 -16.024  -3.421  1.00  0.00     0.137 C 
BRANCH  14  15
HETATM   15  C   UNL     1      38.846 -14.904  -3.513  1.00  0.00     0.389 C 
HETATM   16  F   UNL     1      38.228 -14.685  -2.333  1.00  0.00    -0.171 F 
HETATM   17  F   UNL     1      39.447 -13.751  -3.881  1.00  0.00    -0.171 F 
HETATM   18  F   UNL     1      37.892 -15.175  -4.431  1.00  0.00    -0.171 F 
ENDBRANCH  14  15
ENDBRANCH  13  14
ENDBRANCH   9  13
ENDBRANCH   3   7
BRANCH   5  19
HETATM   19  C   UNL     1      42.934 -18.130   2.770  1.00  0.00     0.079 A 
HETATM   20  C   UNL     1      43.559 -18.174   4.026  1.00  0.00     0.062 A 
HETATM   21 CL   UNL     1      43.597 -16.877   5.170  1.00  0.00    -0.082 Cl
HETATM   22  C   UNL     1      44.323 -19.297   4.384  1.00  0.00     0.026 A 
HETATM   23  C   UNL     1      44.486 -20.367   3.505  1.00  0.00     0.002 A 
HETATM   24  C   UNL     1      43.901 -20.316   2.248  1.00  0.00     0.002 A 
HETATM   25  C   UNL     1      43.139 -19.206   1.878  1.00  0.00     0.033 A 
ENDBRANCH   5  19
TORSDOF 5
ENDMDL
MODEL 5
REMARK VINA RESULT:      -7.5      4.488      5.639
REMARK  5 active torsions:
REMARK  status: ('A' for Active; 'I' for Inactive)
REMARK    1  A    between atoms: C_3  and  N_4 
REMARK       I    between atoms: N_4  and  C_5 
REMARK       I    between atoms: C_5  and  N_6 
REMARK    2  A    between atoms: N_6  and  C_7 
REMARK    3  A    between atoms: C_7  and  C_8 
REMARK    4  A    between atoms: C_8  and  C_9 
REMARK    5  A    between atoms: N_15  and  C_16 
ROOT
HETATM    1  C   UNL     1      42.082 -14.304   4.839  1.00  0.00     0.054 C 
HETATM    2  C   UNL     1      42.107 -15.625   4.167  1.00  0.00     0.003 A 
HETATM    3  C   UNL     1      41.136 -16.223   3.328  1.00  0.00     0.159 A 
HETATM    4  N   UNL     1      41.510 -17.444   2.937  1.00  0.00    -0.149 NA
HETATM    5  N   UNL     1      42.738 -17.650   3.491  1.00  0.00    -0.241 N 
HETATM    6  C   UNL     1      43.103 -16.574   4.263  1.00  0.00     0.129 A 
ENDROOT
BRANCH   3   7
HETATM    7  N   UNL     1      39.937 -15.637   2.984  1.00  0.00    -0.291 N 
HETATM    8  C   UNL     1      39.551 -15.111   1.790  1.00  0.00     0.321 C 
HETATM    9  N   UNL     1      40.494 -15.017   0.815  1.00  0.00    -0.343 N 
HETATM   10  O   UNL     1      38.398 -14.709   1.647  1.00  0.00    -0.247 OA
HETATM   11  H   UNL     1      41.355 -15.529   1.007  1.00  0.00     0.164 HD
HETATM   12  H   UNL     1      39.216 -15.602   3.687  1.00  0.00     0.172 HD
BRANCH   9  13
HETATM   13  C   UNL     1      40.206 -14.564  -0.530  1.00  0.00     0.133 C 
BRANCH  13  14
HETATM   14  C   UNL     1      41.022 -15.302  -1.581  1.00  0.00     0.137 C 
BRANCH  14  15
HETATM   15  C   UNL     1      40.301 -15.294  -2.902  1.00  0.00     0.389 C 
HETATM   16  F   UNL     1      40.228 -16.530  -3.441  1.00  0.00    -0.171 F 
HETATM   17  F   UNL     1      39.039 -14.835  -2.757  1.00  0.00    -0.171 F 
HETATM   18  F   UNL     1      40.924 -14.493  -3.794  1.00  0.00    -0.171 F 
ENDBRANCH  14  15
ENDBRANCH  13  14
ENDBRANCH   9  13
ENDBRANCH   3   7
BRANCH   5  19
HETATM   19  C   UNL     1      43.407 -18.894   3.293  1.00  0.00     0.079 A 
HETATM   20  C   UNL     1      44.309 -19.466   4.204  1.00  0.00     0.062 A 
HETATM   21 CL   UNL     1      44.944 -18.682   5.609  1.00  0.00    -0.082 Cl
HETATM   22  C   UNL     1      44.857 -20.732   3.939  1.00  0.00     0.026 A 
HETATM   23  C   UNL     1      44.533 -21.428   2.775  1.00  0.00     0.002 A 
HETATM   24  C   UNL     1      43.670 -20.854   1.852  1.00  0.00     0.002 A 
HETATM   25  C   UNL     1      43.118 -19.597   2.102  1.00  0.00     0.033 A 
ENDBRANCH   5  19
TORSDOF 5
ENDMDL
MODEL 6
REMARK VINA RESULT:      -7.5      4.385      5.573
REMARK  5 active torsions:
REMARK  status: ('A' for Active; 'I' for Inactive)
REMARK    1  A    between atoms: C_3  and  N_4 
REMARK       I    between atoms: N_4  and  C_5 
REMARK       I    between atoms: C_5  and  N_6 
REMARK    2  A    between atoms: N_6  and  C_7 
REMARK    3  A    between atoms: C_7  and  C_8 
REMARK    4  A    between atoms: C_8  and  C_9 
REMARK    5  A    between atoms: N_15  and  C_16 
ROOT
HETATM    1  C   UNL     1      40.801 -15.194   5.319  1.00  0.00     0.054 C 
HETATM    2  C   UNL     1      41.778 -15.987   4.536  1.00  0.00     0.003 A 
HETATM    3  C   UNL     1      42.650 -15.569   3.502  1.00  0.00     0.159 A 
HETATM    4  N   UNL     1      43.361 -16.590   3.017  1.00  0.00    -0.149 NA
HETATM    5  N   UNL     1      42.987 -17.681   3.743  1.00  0.00    -0.241 N 
HETATM    6  C   UNL     1      42.008 -17.342   4.647  1.00  0.00     0.129 A 
ENDROOT
BRANCH   3   7
HETATM    7  N   UNL     1      42.732 -14.278   3.026  1.00  0.00    -0.291 N 
HETATM    8  C   UNL     1      42.382 -13.791   1.805  1.00  0.00     0.321 C 
HETATM    9  N   UNL     1      42.017 -14.693   0.854  1.00  0.00    -0.343 N 
HETATM   10  O   UNL     1      42.445 -12.582   1.592  1.00  0.00    -0.247 OA
HETATM   11  H   UNL     1      41.853 -15.636   1.206  1.00  0.00     0.164 HD
HETATM   12  H   UNL     1      43.071 -13.569   3.656  1.00  0.00     0.172 HD
BRANCH   9  13
HETATM   13  C   UNL     1      41.533 -14.314  -0.457  1.00  0.00     0.133 C 
BRANCH  13  14
HETATM   14  C   UNL     1      40.979 -15.497  -1.238  1.00  0.00     0.137 C 
BRANCH  14  15
HETATM   15  C   UNL     1      40.761 -15.114  -2.678  1.00  0.00     0.389 C 
HETATM   16  F   UNL     1      39.722 -14.263  -2.818  1.00  0.00    -0.171 F 
HETATM   17  F   UNL     1      41.857 -14.510  -3.186  1.00  0.00    -0.171 F 
HETATM   18  F   UNL     1      40.507 -16.201  -3.439  1.00  0.00    -0.171 F 
ENDBRANCH  14  15
ENDBRANCH  13  14
ENDBRANCH   9  13
ENDBRANCH   3   7
BRANCH   5  19
HETATM   19  C   UNL     1      43.544 -18.959   3.445  1.00  0.00     0.079 A 
HETATM   20  C   UNL     1      44.396 -19.675   4.301  1.00  0.00     0.062 A 
HETATM   21 CL   UNL     1      45.103 -19.058   5.754  1.00  0.00    -0.082 Cl
HETATM   22  C   UNL     1      44.830 -20.960   3.936  1.00  0.00     0.026 A 
HETATM   23  C   UNL     1      44.442 -21.534   2.726  1.00  0.00     0.002 A 
HETATM   24  C   UNL     1      43.629 -20.820   1.858  1.00  0.00     0.002 A 
HETATM   25  C   UNL     1      43.189 -19.542   2.208  1.00  0.00     0.033 A 
ENDBRANCH   5  19
TORSDOF 5
ENDMDL
MODEL 7
REMARK VINA RESULT:      -7.5      4.629      7.545
REMARK  5 active torsions:
REMARK  status: ('A' for Active; 'I' for Inactive)
REMARK    1  A    between atoms: C_3  and  N_4 
REMARK       I    between atoms: N_4  and  C_5 
REMARK       I    between atoms: C_5  and  N_6 
REMARK    2  A    between atoms: N_6  and  C_7 
REMARK    3  A    between atoms: C_7  and  C_8 
REMARK    4  A    between atoms: C_8  and  C_9 
REMARK    5  A    between atoms: N_15  and  C_16 
ROOT
HETATM    1  C   UNL     1      44.701 -18.884   9.431  1.00  0.00     0.054 C 
HETATM    2  C   UNL     1      43.943 -18.331   8.284  1.00  0.00     0.003 A 
HETATM    3  C   UNL     1      43.558 -18.962   7.076  1.00  0.00     0.159 A 
HETATM    4  N   UNL     1      42.908 -18.120   6.268  1.00  0.00    -0.149 NA
HETATM    5  N   UNL     1      42.835 -16.939   6.946  1.00  0.00    -0.241 N 
HETATM    6  C   UNL     1      43.481 -17.039   8.154  1.00  0.00     0.129 A 
ENDROOT
BRANCH   3   7
HETATM    7  N   UNL     1      43.847 -20.270   6.753  1.00  0.00    -0.291 N 
HETATM    8  C   UNL     1      44.325 -20.780   5.586  1.00  0.00     0.321 C 
HETATM    9  N   UNL     1      44.423 -19.930   4.527  1.00  0.00    -0.343 N 
HETATM   10  O   UNL     1      44.608 -21.973   5.514  1.00  0.00    -0.247 OA
HETATM   11  H   UNL     1      44.311 -18.944   4.764  1.00  0.00     0.164 HD
HETATM   12  H   UNL     1      43.721 -20.967   7.469  1.00  0.00     0.172 HD
BRANCH   9  13
HETATM   13  C   UNL     1      44.999 -20.309   3.254  1.00  0.00     0.133 C 
BRANCH  13  14
HETATM   14  C   UNL     1      43.977 -20.299   2.126  1.00  0.00     0.137 C 
BRANCH  14  15
HETATM   15  C   UNL     1      43.595 -21.707   1.756  1.00  0.00     0.389 C 
HETATM   16  F   UNL     1      44.238 -22.125   0.645  1.00  0.00    -0.171 F 
HETATM   17  F   UNL     1      43.900 -22.566   2.754  1.00  0.00    -0.171 F 
HETATM   18  F   UNL     1      42.268 -21.808   1.525  1.00  0.00    -0.171 F 
ENDBRANCH  14  15
ENDBRANCH  13  14
ENDBRANCH   9  13
ENDBRANCH   3   7
BRANCH   5  19
HETATM   19  C   UNL     1      42.223 -15.805   6.334  1.00  0.00     0.079 A 
HETATM   20  C   UNL     1      42.907 -14.638   5.958  1.00  0.00     0.062 A 
HETATM   21 CL   UNL     1      44.547 -14.266   6.362  1.00  0.00    -0.082 Cl
HETATM   22  C   UNL     1      42.217 -13.609   5.297  1.00  0.00     0.026 A 
HETATM   23  C   UNL     1      40.855 -13.719   5.019  1.00  0.00     0.002 A 
HETATM   24  C   UNL     1      40.163 -14.853   5.419  1.00  0.00     0.002 A 
HETATM   25  C   UNL     1      40.836 -15.884   6.076  1.00  0.00     0.033 A 
ENDBRANCH   5  19
TORSDOF 5
ENDMDL
MODEL 8
REMARK VINA RESULT:      -7.4      4.501      5.758
REMARK  5 active torsions:
REMARK  status: ('A' for Active; 'I' for Inactive)
REMARK    1  A    between atoms: C_3  and  N_4 
REMARK       I    between atoms: N_4  and  C_5 
REMARK       I    between atoms: C_5  and  N_6 
REMARK    2  A    between atoms: N_6  and  C_7 
REMARK    3  A    between atoms: C_7  and  C_8 
REMARK    4  A    between atoms: C_8  and  C_9 
REMARK    5  A    between atoms: N_15  and  C_16 
ROOT
HETATM    1  C   UNL     1      41.913 -13.652   4.675  1.00  0.00     0.054 C 
HETATM    2  C   UNL     1      41.976 -15.103   4.378  1.00  0.00     0.003 A 
HETATM    3  C   UNL     1      41.043 -15.920   3.694  1.00  0.00     0.159 A 
HETATM    4  N   UNL     1      41.444 -17.193   3.653  1.00  0.00    -0.149 NA
HETATM    5  N   UNL     1      42.652 -17.222   4.282  1.00  0.00    -0.241 N 
HETATM    6  C   UNL     1      42.978 -15.973   4.754  1.00  0.00     0.129 A 
ENDROOT
BRANCH   3   7
HETATM    7  N   UNL     1      39.852 -15.469   3.167  1.00  0.00    -0.291 N 
HETATM    8  C   UNL     1      39.567 -15.089   1.893  1.00  0.00     0.321 C 
HETATM    9  N   UNL     1      40.606 -15.008   1.019  1.00  0.00    -0.343 N 
HETATM   10  O   UNL     1      38.412 -14.799   1.588  1.00  0.00    -0.247 OA
HETATM   11  H   UNL     1      41.474 -15.428   1.352  1.00  0.00     0.164 HD
HETATM   12  H   UNL     1      39.055 -15.428   3.783  1.00  0.00     0.172 HD
BRANCH   9  13
HETATM   13  C   UNL     1      40.440 -14.707  -0.388  1.00  0.00     0.133 C 
BRANCH  13  14
HETATM   14  C   UNL     1      41.100 -15.743  -1.287  1.00  0.00     0.137 C 
BRANCH  14  15
HETATM   15  C   UNL     1      40.698 -15.520  -2.721  1.00  0.00     0.389 C 
HETATM   16  F   UNL     1      41.747 -15.144  -3.482  1.00  0.00    -0.171 F 
HETATM   17  F   UNL     1      40.185 -16.649  -3.257  1.00  0.00    -0.171 F 
HETATM   18  F   UNL     1      39.753 -14.559  -2.819  1.00  0.00    -0.171 F 
ENDBRANCH  14  15
ENDBRANCH  13  14
ENDBRANCH   9  13
ENDBRANCH   3   7
BRANCH   5  19
HETATM   19  C   UNL     1      43.341 -18.461   4.443  1.00  0.00     0.079 A 
HETATM   20  C   UNL     1      43.981 -19.156   3.404  1.00  0.00     0.062 A 
HETATM   21 CL   UNL     1      43.866 -18.769   1.722  1.00  0.00    -0.082 Cl
HETATM   22  C   UNL     1      44.691 -20.333   3.689  1.00  0.00     0.026 A 
HETATM   23  C   UNL     1      44.761 -20.836   4.988  1.00  0.00     0.002 A 
HETATM   24  C   UNL     1      44.101 -20.175   6.015  1.00  0.00     0.002 A 
HETATM   25  C   UNL     1      43.392 -19.003   5.746  1.00  0.00     0.033 A 
ENDBRANCH   5  19
TORSDOF 5
ENDMDL
MODEL 9
REMARK VINA RESULT:      -7.0      3.745      6.875
REMARK  5 active torsions:
REMARK  status: ('A' for Active; 'I' for Inactive)
REMARK    1  A    between atoms: C_3  and  N_4 
REMARK       I    between atoms: N_4  and  C_5 
REMARK       I    between atoms: C_5  and  N_6 
REMARK    2  A    between atoms: N_6  and  C_7 
REMARK    3  A    between atoms: C_7  and  C_8 
REMARK    4  A    between atoms: C_8  and  C_9 
REMARK    5  A    between atoms: N_15  and  C_16 
ROOT
HETATM    1  C   UNL     1      44.524 -18.974   9.181  1.00  0.00     0.054 C 
HETATM    2  C   UNL     1      43.897 -18.297   8.022  1.00  0.00     0.003 A 
HETATM    3  C   UNL     1      43.789 -18.733   6.679  1.00  0.00     0.159 A 
HETATM    4  N   UNL     1      43.178 -17.824   5.915  1.00  0.00    -0.149 NA
HETATM    5  N   UNL     1      42.854 -16.797   6.750  1.00  0.00    -0.241 N 
HETATM    6  C   UNL     1      43.307 -17.051   8.022  1.00  0.00     0.129 A 
ENDROOT
BRANCH   3   7
HETATM    7  N   UNL     1      44.284 -19.930   6.206  1.00  0.00    -0.291 N 
HETATM    8  C   UNL     1      44.508 -20.317   4.921  1.00  0.00     0.321 C 
HETATM    9  N   UNL     1      44.077 -19.486   3.934  1.00  0.00    -0.343 N 
HETATM   10  O   UNL     1      45.043 -21.401   4.697  1.00  0.00    -0.247 OA
HETATM   11  H   UNL     1      43.800 -18.557   4.254  1.00  0.00     0.164 HD
HETATM   12  H   UNL     1      44.551 -20.626   6.884  1.00  0.00     0.172 HD
BRANCH   9  13
HETATM   13  C   UNL     1      44.328 -19.724   2.528  1.00  0.00     0.133 C 
BRANCH  13  14
HETATM   14  C   UNL     1      43.241 -19.143   1.636  1.00  0.00     0.137 C 
BRANCH  14  15
HETATM   15  C   UNL     1      43.466 -17.668   1.434  1.00  0.00     0.389 C 
HETATM   16  F   UNL     1      44.778 -17.374   1.310  1.00  0.00    -0.171 F 
HETATM   17  F   UNL     1      42.841 -17.234   0.318  1.00  0.00    -0.171 F 
HETATM   18  F   UNL     1      42.982 -16.953   2.474  1.00  0.00    -0.171 F 
ENDBRANCH  14  15
ENDBRANCH  13  14
ENDBRANCH   9  13
ENDBRANCH   3   7
BRANCH   5  19
HETATM   19  C   UNL     1      42.213 -15.633   6.230  1.00  0.00     0.079 A 
HETATM   20  C   UNL     1      42.873 -14.435   5.914  1.00  0.00     0.062 A 
HETATM   21 CL   UNL     1      44.519 -14.069   6.300  1.00  0.00    -0.082 Cl
HETATM   22  C   UNL     1      42.154 -13.374   5.340  1.00  0.00     0.026 A 
HETATM   23  C   UNL     1      40.786 -13.484   5.090  1.00  0.00     0.002 A 
HETATM   24  C   UNL     1      40.119 -14.651   5.432  1.00  0.00     0.002 A 
HETATM   25  C   UNL     1      40.821 -15.714   6.003  1.00  0.00     0.033 A 
ENDBRANCH   5  19
TORSDOF 5
ENDMDL
MODEL 10
REMARK VINA RESULT:      -6.9      3.200      4.506
REMARK  5 active torsions:
REMARK  status: ('A' for Active; 'I' for Inactive)
REMARK    1  A    between atoms: C_3  and  N_4 
REMARK       I    between atoms: N_4  and  C_5 
REMARK       I    between atoms: C_5  and  N_6 
REMARK    2  A    between atoms: N_6  and  C_7 
REMARK    3  A    between atoms: C_7  and  C_8 
REMARK    4  A    between atoms: C_8  and  C_9 
REMARK    5  A    between atoms: N_15  and  C_16 
ROOT
HETATM    1  C   UNL     1      44.336 -14.771   7.365  1.00  0.00     0.054 C 
HETATM    2  C   UNL     1      43.860 -15.974   6.643  1.00  0.00     0.003 A 
HETATM    3  C   UNL     1      42.573 -16.258   6.124  1.00  0.00     0.159 A 
HETATM    4  N   UNL     1      42.528 -17.469   5.562  1.00  0.00    -0.149 NA
HETATM    5  N   UNL     1      43.786 -17.980   5.679  1.00  0.00    -0.241 N 
HETATM    6  C   UNL     1      44.598 -17.103   6.357  1.00  0.00     0.129 A 
ENDROOT
BRANCH   3   7
HETATM    7  N   UNL     1      41.490 -15.411   6.218  1.00  0.00    -0.291 N 
HETATM    8  C   UNL     1      40.627 -15.012   5.245  1.00  0.00     0.321 C 
HETATM    9  N   UNL     1      40.914 -15.378   3.967  1.00  0.00    -0.343 N 
HETATM   10  O   UNL     1      39.658 -14.315   5.540  1.00  0.00    -0.247 OA
HETATM   11  H   UNL     1      41.647 -16.082   3.882  1.00  0.00     0.164 HD
HETATM   12  H   UNL     1      41.267 -15.038   7.126  1.00  0.00     0.172 HD
BRANCH   9  13
HETATM   13  C   UNL     1      40.040 -15.104   2.846  1.00  0.00     0.133 C 
BRANCH  13  14
HETATM   14  C   UNL     1      40.585 -14.015   1.934  1.00  0.00     0.137 C 
BRANCH  14  15
HETATM   15  C   UNL     1      40.104 -12.663   2.391  1.00  0.00     0.389 C 
HETATM   16  F   UNL     1      40.918 -12.134   3.330  1.00  0.00    -0.171 F 
HETATM   17  F   UNL     1      40.053 -11.796   1.357  1.00  0.00    -0.171 F 
HETATM   18  F   UNL     1      38.863 -12.740   2.919  1.00  0.00    -0.171 F 
ENDBRANCH  14  15
ENDBRANCH  13  14
ENDBRANCH   9  13
ENDBRANCH   3   7
BRANCH   5  19
HETATM   19  C   UNL     1      44.066 -19.295   5.203  1.00  0.00     0.079 A 
HETATM   20  C   UNL     1      44.310 -19.619   3.859  1.00  0.00     0.062 A 
HETATM   21 CL   UNL     1      44.098 -18.548   2.517  1.00  0.00    -0.082 Cl
HETATM   22  C   UNL     1      44.647 -20.937   3.511  1.00  0.00     0.026 A 
HETATM   23  C   UNL     1      44.729 -21.938   4.479  1.00  0.00     0.002 A 
HETATM   24  C   UNL     1      44.455 -21.634   5.805  1.00  0.00     0.002 A 
HETATM   25  C   UNL     1      44.119 -20.329   6.165  1.00  0.00     0.033 A 
ENDBRANCH   5  19
TORSDOF 5
ENDMDL
