MODEL 1
REMARK VINA RESULT:      -8.7      0.000      0.000
REMARK  7 active torsions:
REMARK  status: ('A' for Active; 'I' for Inactive)
REMARK    1  A    between atoms: C_2  and  O_3 
REMARK    2  A    between atoms: O_3  and  C_4 
REMARK    3  A    between atoms: C_4  and  C_5 
REMARK    4  A    between atoms: C_6  and  C_7 
REMARK    5  A    between atoms: C_18  and  C_19 
REMARK    6  A    between atoms: C_19  and  N_20 
REMARK    7  A    between atoms: N_20  and  C_21 
ROOT
HETATM    1  C   UNL     1      42.973 -15.713   5.510  1.00  0.00     0.068 A 
HETATM    2  C   UNL     1      42.437 -17.102   5.716  1.00  0.00     0.161 A 
HETATM    3  N   UNL     1      42.635 -17.558   7.079  1.00  0.00    -0.330 N 
HETATM    4  C   UNL     1      43.348 -16.908   8.027  1.00  0.00     0.321 A 
HETATM    5  O   UNL     1      43.540 -17.396   9.134  1.00  0.00    -0.247 OA
HETATM    6  N   UNL     1      43.825 -15.680   7.692  1.00  0.00    -0.310 N 
HETATM    7  C   UNL     1      43.640 -15.050   6.476  1.00  0.00     0.046 A 
HETATM    8  H   UNL     1      42.308 -18.478   7.341  1.00  0.00     0.165 HD
HETATM    9  H   UNL     1      44.330 -15.208   8.434  1.00  0.00     0.170 HD
ENDROOT
BRANCH   7  10
HETATM   10  C   UNL     1      44.191 -13.640   6.387  1.00  0.00     0.177 C 
BRANCH  10  11
HETATM   11  N   UNL     1      45.112 -13.435   7.491  1.00  0.00    -0.384 N 
HETATM   12  H   UNL     1      45.605 -14.265   7.805  1.00  0.00     0.160 HD
BRANCH  11  13
HETATM   13  C   UNL     1      44.842 -12.510   8.496  1.00  0.00     0.029 A 
HETATM   14  C   UNL     1      43.629 -11.810   8.455  1.00  0.00     0.053 A 
HETATM   15  C   UNL     1      43.256 -10.930   9.481  1.00  0.00     0.042 A 
HETATM   16 CL   UNL     1      41.735 -10.121   9.337  1.00  0.00    -0.084 Cl
HETATM   17  C   UNL     1      44.088 -10.730  10.588  1.00  0.00    -0.040 A 
HETATM   18  C   UNL     1      43.714  -9.818  11.722  1.00  0.00     0.050 C 
HETATM   19  C   UNL     1      45.283 -11.453  10.654  1.00  0.00     0.011 A 
HETATM   20  C   UNL     1      45.645 -12.336   9.627  1.00  0.00     0.030 A 
ENDBRANCH  11  13
ENDBRANCH  10  11
ENDBRANCH   7  10
BRANCH   1  21
HETATM   21  C   UNL     1      42.758 -15.108   4.175  1.00  0.00     0.293 C 
HETATM   22  O   UNL     1      43.612 -15.003   3.312  1.00  0.00    -0.259 OA
BRANCH  21  23
HETATM   23  O   UNL     1      41.477 -14.669   4.076  1.00  0.00    -0.318 OA
BRANCH  23  24
HETATM   24  C   UNL     1      40.988 -14.498   2.736  1.00  0.00     0.174 C 
HETATM   25  C   UNL     1      40.170 -15.706   2.323  1.00  0.00     0.034 C 
ENDBRANCH  23  24
ENDBRANCH  21  23
ENDBRANCH   1  21
BRANCH   2  26
HETATM   26  C   UNL     1      43.015 -18.129   4.751  1.00  0.00    -0.031 A 
HETATM   27  C   UNL     1      42.479 -18.302   3.462  1.00  0.00     0.011 A 
HETATM   28  C   UNL     1      43.019 -19.247   2.588  1.00  0.00     0.024 A 
HETATM   29  C   UNL     1      44.095 -20.031   2.994  1.00  0.00     0.034 A 
HETATM   30 CL   UNL     1      44.762 -21.195   1.916  1.00  0.00    -0.084 Cl
HETATM   31  C   UNL     1      44.637 -19.880   4.268  1.00  0.00     0.024 A 
HETATM   32  C   UNL     1      44.100 -18.931   5.143  1.00  0.00     0.011 A 
ENDBRANCH   2  26
TORSDOF 7
ENDMDL
MODEL 2
REMARK VINA RESULT:      -8.3      4.184      8.599
REMARK  7 active torsions:
REMARK  status: ('A' for Active; 'I' for Inactive)
REMARK    1  A    between atoms: C_2  and  O_3 
REMARK    2  A    between atoms: O_3  and  C_4 
REMARK    3  A    between atoms: C_4  and  C_5 
REMARK    4  A    between atoms: C_6  and  C_7 
REMARK    5  A    between atoms: C_18  and  C_19 
REMARK    6  A    between atoms: C_19  and  N_20 
REMARK    7  A    between atoms: N_20  and  C_21 
ROOT
HETATM    1  C   UNL     1      41.556 -16.083   1.947  1.00  0.00     0.068 A 
HETATM    2  C   UNL     1      40.335 -15.267   1.626  1.00  0.00     0.161 A 
HETATM    3  N   UNL     1      40.150 -15.119   0.195  1.00  0.00    -0.330 N 
HETATM    4  C   UNL     1      41.029 -15.512  -0.755  1.00  0.00     0.321 A 
HETATM    5  O   UNL     1      40.840 -15.278  -1.943  1.00  0.00    -0.247 OA
HETATM    6  N   UNL     1      42.123 -16.195  -0.323  1.00  0.00    -0.310 N 
HETATM    7  C   UNL     1      42.403 -16.515   0.991  1.00  0.00     0.046 A 
HETATM    8  H   UNL     1      39.355 -14.594  -0.145  1.00  0.00     0.165 HD
HETATM    9  H   UNL     1      42.746 -16.501  -1.063  1.00  0.00     0.170 HD
ENDROOT
BRANCH   7  10
HETATM   10  C   UNL     1      43.639 -17.369   1.200  1.00  0.00     0.177 C 
BRANCH  10  11
HETATM   11  N   UNL     1      43.237 -18.764   1.220  1.00  0.00    -0.384 N 
HETATM   12  H   UNL     1      42.265 -18.939   0.981  1.00  0.00     0.160 HD
BRANCH  11  13
HETATM   13  C   UNL     1      43.774 -19.659   2.140  1.00  0.00     0.029 A 
HETATM   14  C   UNL     1      44.021 -19.212   3.445  1.00  0.00     0.053 A 
HETATM   15  C   UNL     1      44.479 -20.084   4.443  1.00  0.00     0.042 A 
HETATM   16 CL   UNL     1      44.746 -19.432   6.022  1.00  0.00    -0.084 Cl
HETATM   17  C   UNL     1      44.697 -21.438   4.165  1.00  0.00    -0.040 A 
HETATM   18  C   UNL     1      45.160 -22.411   5.212  1.00  0.00     0.050 C 
HETATM   19  C   UNL     1      44.417 -21.898   2.874  1.00  0.00     0.011 A 
HETATM   20  C   UNL     1      43.954 -21.022   1.884  1.00  0.00     0.030 A 
ENDBRANCH  11  13
ENDBRANCH  10  11
ENDBRANCH   7  10
BRANCH   1  21
HETATM   21  C   UNL     1      41.807 -16.369   3.379  1.00  0.00     0.293 C 
HETATM   22  O   UNL     1      41.187 -17.179   4.046  1.00  0.00    -0.259 OA
BRANCH  21  23
HETATM   23  O   UNL     1      42.810 -15.575   3.832  1.00  0.00    -0.318 OA
BRANCH  23  24
HETATM   24  C   UNL     1      42.559 -14.925   5.089  1.00  0.00     0.174 C 
HETATM   25  C   UNL     1      43.035 -13.486   5.035  1.00  0.00     0.034 C 
ENDBRANCH  23  24
ENDBRANCH  21  23
ENDBRANCH   1  21
BRANCH   2  26
HETATM   26  C   UNL     1      40.329 -13.892   2.282  1.00  0.00    -0.031 A 
HETATM   27  C   UNL     1      39.498 -13.613   3.381  1.00  0.00     0.011 A 
HETATM   28  C   UNL     1      39.502 -12.347   3.973  1.00  0.00     0.024 A 
HETATM   29  C   UNL     1      40.332 -11.350   3.469  1.00  0.00     0.034 A 
HETATM   30 CL   UNL     1      40.339  -9.792   4.198  1.00  0.00    -0.084 Cl
HETATM   31  C   UNL     1      41.159 -11.605   2.377  1.00  0.00     0.024 A 
HETATM   32  C   UNL     1      41.158 -12.872   1.787  1.00  0.00     0.011 A 
ENDBRANCH   2  26
TORSDOF 7
ENDMDL
MODEL 3
REMARK VINA RESULT:      -8.2      2.903      3.924
REMARK  7 active torsions:
REMARK  status: ('A' for Active; 'I' for Inactive)
REMARK    1  A    between atoms: C_2  and  O_3 
REMARK    2  A    between atoms: O_3  and  C_4 
REMARK    3  A    between atoms: C_4  and  C_5 
REMARK    4  A    between atoms: C_6  and  C_7 
REMARK    5  A    between atoms: C_18  and  C_19 
REMARK    6  A    between atoms: C_19  and  N_20 
REMARK    7  A    between atoms: N_20  and  C_21 
ROOT
HETATM    1  C   UNL     1      42.643 -16.004   5.202  1.00  0.00     0.068 A 
HETATM    2  C   UNL     1      42.306 -17.429   5.539  1.00  0.00     0.161 A 
HETATM    3  N   UNL     1      42.611 -17.741   6.923  1.00  0.00    -0.330 N 
HETATM    4  C   UNL     1      43.263 -16.927   7.784  1.00  0.00     0.321 A 
HETATM    5  O   UNL     1      43.558 -17.292   8.916  1.00  0.00    -0.247 OA
HETATM    6  N   UNL     1      43.559 -15.679   7.333  1.00  0.00    -0.310 N 
HETATM    7  C   UNL     1      43.248 -15.182   6.083  1.00  0.00     0.046 A 
HETATM    8  H   UNL     1      42.420 -18.671   7.270  1.00  0.00     0.165 HD
HETATM    9  H   UNL     1      44.021 -15.085   8.013  1.00  0.00     0.170 HD
ENDROOT
BRANCH   7  10
HETATM   10  C   UNL     1      43.601 -13.724   5.859  1.00  0.00     0.177 C 
BRANCH  10  11
HETATM   11  N   UNL     1      42.541 -12.904   6.418  1.00  0.00    -0.384 N 
HETATM   12  H   UNL     1      42.289 -13.116   7.379  1.00  0.00     0.160 HD
BRANCH  11  13
HETATM   13  C   UNL     1      41.485 -12.450   5.632  1.00  0.00     0.029 A 
HETATM   14  C   UNL     1      41.754 -12.049   4.316  1.00  0.00     0.053 A 
HETATM   15  C   UNL     1      40.725 -11.664   3.444  1.00  0.00     0.042 A 
HETATM   16 CL   UNL     1      41.163 -11.193   1.839  1.00  0.00    -0.084 Cl
HETATM   17  C   UNL     1      39.390 -11.678   3.863  1.00  0.00    -0.040 A 
HETATM   18  C   UNL     1      38.257 -11.301   2.952  1.00  0.00     0.050 C 
HETATM   19  C   UNL     1      39.112 -12.113   5.163  1.00  0.00     0.011 A 
HETATM   20  C   UNL     1      40.145 -12.501   6.026  1.00  0.00     0.030 A 
ENDBRANCH  11  13
ENDBRANCH  10  11
ENDBRANCH   7  10
BRANCH   1  21
HETATM   21  C   UNL     1      42.301 -15.546   3.835  1.00  0.00     0.293 C 
HETATM   22  O   UNL     1      43.114 -15.286   2.964  1.00  0.00    -0.259 OA
BRANCH  21  23
HETATM   23  O   UNL     1      40.954 -15.435   3.716  1.00  0.00    -0.318 OA
BRANCH  23  24
HETATM   24  C   UNL     1      40.421 -15.769   2.425  1.00  0.00     0.174 C 
HETATM   25  C   UNL     1      39.211 -14.907   2.122  1.00  0.00     0.034 C 
ENDBRANCH  23  24
ENDBRANCH  21  23
ENDBRANCH   1  21
BRANCH   2  26
HETATM   26  C   UNL     1      42.982 -18.449   4.631  1.00  0.00    -0.031 A 
HETATM   27  C   UNL     1      42.581 -18.614   3.294  1.00  0.00     0.011 A 
HETATM   28  C   UNL     1      43.210 -19.552   2.472  1.00  0.00     0.024 A 
HETATM   29  C   UNL     1      44.242 -20.336   2.980  1.00  0.00     0.034 A 
HETATM   30 CL   UNL     1      45.019 -21.490   1.969  1.00  0.00    -0.084 Cl
HETATM   31  C   UNL     1      44.651 -20.191   4.304  1.00  0.00     0.024 A 
HETATM   32  C   UNL     1      44.025 -19.250   5.126  1.00  0.00     0.011 A 
ENDBRANCH   2  26
TORSDOF 7
ENDMDL
MODEL 4
REMARK VINA RESULT:      -8.1      2.763      7.830
REMARK  7 active torsions:
REMARK  status: ('A' for Active; 'I' for Inactive)
REMARK    1  A    between atoms: C_2  and  O_3 
REMARK    2  A    between atoms: O_3  and  C_4 
REMARK    3  A    between atoms: C_4  and  C_5 
REMARK    4  A    between atoms: C_6  and  C_7 
REMARK    5  A    between atoms: C_18  and  C_19 
REMARK    6  A    between atoms: C_19  and  N_20 
REMARK    7  A    between atoms: N_20  and  C_21 
ROOT
HETATM    1  C   UNL     1      42.901 -15.351   5.111  1.00  0.00     0.068 A 
HETATM    2  C   UNL     1      43.191 -13.878   5.035  1.00  0.00     0.161 A 
HETATM    3  N   UNL     1      43.950 -13.420   6.183  1.00  0.00    -0.330 N 
HETATM    4  C   UNL     1      44.239 -14.161   7.278  1.00  0.00     0.321 A 
HETATM    5  O   UNL     1      44.815 -13.679   8.246  1.00  0.00    -0.247 OA
HETATM    6  N   UNL     1      43.871 -15.469   7.240  1.00  0.00    -0.310 N 
HETATM    7  C   UNL     1      43.236 -16.094   6.185  1.00  0.00     0.046 A 
HETATM    8  H   UNL     1      44.212 -12.445   6.241  1.00  0.00     0.165 HD
HETATM    9  H   UNL     1      44.128 -16.002   8.063  1.00  0.00     0.170 HD
ENDROOT
BRANCH   7  10
HETATM   10  C   UNL     1      43.021 -17.587   6.350  1.00  0.00     0.177 C 
BRANCH  10  11
HETATM   11  N   UNL     1      44.263 -18.268   6.029  1.00  0.00    -0.384 N 
HETATM   12  H   UNL     1      45.109 -17.742   6.223  1.00  0.00     0.160 HD
BRANCH  11  13
HETATM   13  C   UNL     1      44.355 -19.127   4.937  1.00  0.00     0.029 A 
HETATM   14  C   UNL     1      44.599 -20.486   5.172  1.00  0.00     0.053 A 
HETATM   15  C   UNL     1      44.617 -21.419   4.125  1.00  0.00     0.042 A 
HETATM   16 CL   UNL     1      44.921 -23.073   4.523  1.00  0.00    -0.084 Cl
HETATM   17  C   UNL     1      44.382 -21.016   2.805  1.00  0.00    -0.040 A 
HETATM   18  C   UNL     1      44.365 -21.987   1.659  1.00  0.00     0.050 C 
HETATM   19  C   UNL     1      44.101 -19.667   2.569  1.00  0.00     0.011 A 
HETATM   20  C   UNL     1      44.079 -18.743   3.621  1.00  0.00     0.030 A 
ENDBRANCH  11  13
ENDBRANCH  10  11
ENDBRANCH   7  10
BRANCH   1  21
HETATM   21  C   UNL     1      42.197 -15.950   3.953  1.00  0.00     0.293 C 
HETATM   22  O   UNL     1      41.116 -16.511   4.009  1.00  0.00    -0.259 OA
BRANCH  21  23
HETATM   23  O   UNL     1      42.952 -15.801   2.835  1.00  0.00    -0.318 OA
BRANCH  23  24
HETATM   24  C   UNL     1      42.216 -15.604   1.617  1.00  0.00     0.174 C 
HETATM   25  C   UNL     1      42.323 -16.836   0.740  1.00  0.00     0.034 C 
ENDBRANCH  23  24
ENDBRANCH  21  23
ENDBRANCH   1  21
BRANCH   2  26
HETATM   26  C   UNL     1      41.944 -13.017   4.877  1.00  0.00    -0.031 A 
HETATM   27  C   UNL     1      40.954 -12.977   5.875  1.00  0.00     0.011 A 
HETATM   28  C   UNL     1      39.817 -12.182   5.717  1.00  0.00     0.024 A 
HETATM   29  C   UNL     1      39.656 -11.424   4.561  1.00  0.00     0.034 A 
HETATM   30 CL   UNL     1      38.256 -10.443   4.368  1.00  0.00    -0.084 Cl
HETATM   31  C   UNL     1      40.623 -11.454   3.559  1.00  0.00     0.024 A 
HETATM   32  C   UNL     1      41.763 -12.245   3.717  1.00  0.00     0.011 A 
ENDBRANCH   2  26
TORSDOF 7
ENDMDL
MODEL 5
REMARK VINA RESULT:      -8.1      2.901      8.403
REMARK  7 active torsions:
REMARK  status: ('A' for Active; 'I' for Inactive)
REMARK    1  A    between atoms: C_2  and  O_3 
REMARK    2  A    between atoms: O_3  and  C_4 
REMARK    3  A    between atoms: C_4  and  C_5 
REMARK    4  A    between atoms: C_6  and  C_7 
REMARK    5  A    between atoms: C_18  and  C_19 
REMARK    6  A    between atoms: C_19  and  N_20 
REMARK    7  A    between atoms: N_20  and  C_21 
ROOT
HETATM    1  C   UNL     1      41.645 -15.066   4.567  1.00  0.00     0.068 A 
HETATM    2  C   UNL     1      40.217 -14.617   4.702  1.00  0.00     0.161 A 
HETATM    3  N   UNL     1      39.518 -14.657   3.432  1.00  0.00    -0.330 N 
HETATM    4  C   UNL     1      40.089 -14.907   2.231  1.00  0.00     0.321 A 
HETATM    5  O   UNL     1      39.448 -14.843   1.188  1.00  0.00    -0.247 OA
HETATM    6  N   UNL     1      41.405 -15.250   2.244  1.00  0.00    -0.310 N 
HETATM    7  C   UNL     1      42.194 -15.363   3.371  1.00  0.00     0.046 A 
HETATM    8  H   UNL     1      38.546 -14.383   3.397  1.00  0.00     0.165 HD
HETATM    9  H   UNL     1      41.794 -15.459   1.331  1.00  0.00     0.170 HD
ENDROOT
BRANCH   7  10
HETATM   10  C   UNL     1      43.607 -15.855   3.126  1.00  0.00     0.177 C 
BRANCH  10  11
HETATM   11  N   UNL     1      43.536 -17.135   2.442  1.00  0.00    -0.384 N 
HETATM   12  H   UNL     1      42.803 -17.214   1.745  1.00  0.00     0.160 HD
BRANCH  11  13
HETATM   13  C   UNL     1      43.837 -18.324   3.100  1.00  0.00     0.029 A 
HETATM   14  C   UNL     1      44.006 -19.488   2.338  1.00  0.00     0.053 A 
HETATM   15  C   UNL     1      44.395 -20.699   2.927  1.00  0.00     0.042 A 
HETATM   16 CL   UNL     1      44.582 -22.074   1.895  1.00  0.00    -0.084 Cl
HETATM   17  C   UNL     1      44.636 -20.780   4.303  1.00  0.00    -0.040 A 
HETATM   18  C   UNL     1      45.081 -22.051   4.969  1.00  0.00     0.050 C 
HETATM   19  C   UNL     1      44.505 -19.614   5.064  1.00  0.00     0.011 A 
HETATM   20  C   UNL     1      44.122 -18.406   4.466  1.00  0.00     0.030 A 
ENDBRANCH  11  13
ENDBRANCH  10  11
ENDBRANCH   7  10
BRANCH   1  21
HETATM   21  C   UNL     1      42.439 -15.143   5.815  1.00  0.00     0.293 C 
HETATM   22  O   UNL     1      42.393 -16.061   6.615  1.00  0.00    -0.259 OA
BRANCH  21  23
HETATM   23  O   UNL     1      43.199 -14.025   5.939  1.00  0.00    -0.318 OA
BRANCH  23  24
HETATM   24  C   UNL     1      44.530 -14.238   6.438  1.00  0.00     0.174 C 
HETATM   25  C   UNL     1      44.737 -13.451   7.717  1.00  0.00     0.034 C 
ENDBRANCH  23  24
ENDBRANCH  21  23
ENDBRANCH   1  21
BRANCH   2  26
HETATM   26  C   UNL     1      40.068 -13.231   5.317  1.00  0.00    -0.031 A 
HETATM   27  C   UNL     1      39.567 -13.062   6.620  1.00  0.00     0.011 A 
HETATM   28  C   UNL     1      39.436 -11.785   7.171  1.00  0.00     0.024 A 
HETATM   29  C   UNL     1      39.800 -10.667   6.425  1.00  0.00     0.034 A 
HETATM   30 CL   UNL     1      39.640  -9.095   7.105  1.00  0.00    -0.084 Cl
HETATM   31  C   UNL     1      40.293 -10.814   5.131  1.00  0.00     0.024 A 
HETATM   32  C   UNL     1      40.428 -12.091   4.579  1.00  0.00     0.011 A 
ENDBRANCH   2  26
TORSDOF 7
ENDMDL
MODEL 6
REMARK VINA RESULT:      -7.9      5.139      9.336
REMARK  7 active torsions:
REMARK  status: ('A' for Active; 'I' for Inactive)
REMARK    1  A    between atoms: C_2  and  O_3 
REMARK    2  A    between atoms: O_3  and  C_4 
REMARK    3  A    between atoms: C_4  and  C_5 
REMARK    4  A    between atoms: C_6  and  C_7 
REMARK    5  A    between atoms: C_18  and  C_19 
REMARK    6  A    between atoms: C_19  and  N_20 
REMARK    7  A    between atoms: N_20  and  C_21 
ROOT
HETATM    1  C   UNL     1      40.718 -14.036   0.421  1.00  0.00     0.068 A 
HETATM    2  C   UNL     1      40.398 -13.223  -0.802  1.00  0.00     0.161 A 
HETATM    3  N   UNL     1      40.475 -14.019  -2.012  1.00  0.00    -0.330 N 
HETATM    4  C   UNL     1      40.929 -15.291  -2.086  1.00  0.00     0.321 A 
HETATM    5  O   UNL     1      41.042 -15.872  -3.159  1.00  0.00    -0.247 OA
HETATM    6  N   UNL     1      41.238 -15.894  -0.907  1.00  0.00    -0.310 N 
HETATM    7  C   UNL     1      41.123 -15.320   0.344  1.00  0.00     0.046 A 
HETATM    8  H   UNL     1      40.273 -13.582  -2.901  1.00  0.00     0.165 HD
HETATM    9  H   UNL     1      41.547 -16.856  -0.995  1.00  0.00     0.170 HD
ENDROOT
BRANCH   7  10
HETATM   10  C   UNL     1      41.438 -16.237   1.510  1.00  0.00     0.177 C 
BRANCH  10  11
HETATM   11  N   UNL     1      42.586 -17.053   1.155  1.00  0.00    -0.384 N 
HETATM   12  H   UNL     1      42.646 -17.317   0.177  1.00  0.00     0.160 HD
BRANCH  11  13
HETATM   13  C   UNL     1      43.104 -17.996   2.039  1.00  0.00     0.029 A 
HETATM   14  C   UNL     1      43.337 -19.296   1.571  1.00  0.00     0.053 A 
HETATM   15  C   UNL     1      43.937 -20.270   2.383  1.00  0.00     0.042 A 
HETATM   16 CL   UNL     1      44.186 -21.842   1.707  1.00  0.00    -0.084 Cl
HETATM   17  C   UNL     1      44.332 -19.966   3.691  1.00  0.00    -0.040 A 
HETATM   18  C   UNL     1      45.003 -20.971   4.583  1.00  0.00     0.050 C 
HETATM   19  C   UNL     1      44.136 -18.660   4.151  1.00  0.00     0.011 A 
HETATM   20  C   UNL     1      43.541 -17.692   3.331  1.00  0.00     0.030 A 
ENDBRANCH  11  13
ENDBRANCH  10  11
ENDBRANCH   7  10
BRANCH   1  21
HETATM   21  C   UNL     1      40.596 -13.348   1.727  1.00  0.00     0.293 C 
HETATM   22  O   UNL     1      39.557 -13.216   2.350  1.00  0.00    -0.259 OA
BRANCH  21  23
HETATM   23  O   UNL     1      41.809 -12.870   2.105  1.00  0.00    -0.318 OA
BRANCH  23  24
HETATM   24  C   UNL     1      42.175 -13.130   3.469  1.00  0.00     0.174 C 
HETATM   25  C   UNL     1      43.499 -13.867   3.521  1.00  0.00     0.034 C 
ENDBRANCH  23  24
ENDBRANCH  21  23
ENDBRANCH   1  21
BRANCH   2  26
HETATM   26  C   UNL     1      41.269 -11.982  -0.957  1.00  0.00    -0.031 A 
HETATM   27  C   UNL     1      42.624 -12.084  -1.320  1.00  0.00     0.011 A 
HETATM   28  C   UNL     1      43.411 -10.938  -1.459  1.00  0.00     0.024 A 
HETATM   29  C   UNL     1      42.853  -9.683  -1.233  1.00  0.00     0.034 A 
HETATM   30 CL   UNL     1      43.822  -8.272  -1.406  1.00  0.00    -0.084 Cl
HETATM   31  C   UNL     1      41.515  -9.562  -0.866  1.00  0.00     0.024 A 
HETATM   32  C   UNL     1      40.725 -10.707  -0.731  1.00  0.00     0.011 A 
ENDBRANCH   2  26
TORSDOF 7
ENDMDL
MODEL 7
REMARK VINA RESULT:      -7.9      4.278      7.246
REMARK  7 active torsions:
REMARK  status: ('A' for Active; 'I' for Inactive)
REMARK    1  A    between atoms: C_2  and  O_3 
REMARK    2  A    between atoms: O_3  and  C_4 
REMARK    3  A    between atoms: C_4  and  C_5 
REMARK    4  A    between atoms: C_6  and  C_7 
REMARK    5  A    between atoms: C_18  and  C_19 
REMARK    6  A    between atoms: C_19  and  N_20 
REMARK    7  A    between atoms: N_20  and  C_21 
ROOT
HETATM    1  C   UNL     1      41.655 -13.889   4.236  1.00  0.00     0.068 A 
HETATM    2  C   UNL     1      40.819 -12.750   3.724  1.00  0.00     0.161 A 
HETATM    3  N   UNL     1      39.858 -12.301   4.715  1.00  0.00    -0.330 N 
HETATM    4  C   UNL     1      39.608 -12.910   5.897  1.00  0.00     0.321 A 
HETATM    5  O   UNL     1      38.722 -12.520   6.647  1.00  0.00    -0.247 OA
HETATM    6  N   UNL     1      40.403 -13.967   6.214  1.00  0.00    -0.310 N 
HETATM    7  C   UNL     1      41.433 -14.459   5.437  1.00  0.00     0.046 A 
HETATM    8  H   UNL     1      39.241 -11.533   4.488  1.00  0.00     0.165 HD
HETATM    9  H   UNL     1      40.209 -14.381   7.119  1.00  0.00     0.170 HD
ENDROOT
BRANCH   7  10
HETATM   10  C   UNL     1      42.234 -15.586   6.062  1.00  0.00     0.177 C 
BRANCH  10  11
HETATM   11  N   UNL     1      41.691 -16.850   5.594  1.00  0.00    -0.384 N 
HETATM   12  H   UNL     1      40.769 -17.084   5.948  1.00  0.00     0.160 HD
BRANCH  11  13
HETATM   13  C   UNL     1      42.514 -17.948   5.359  1.00  0.00     0.029 A 
HETATM   14  C   UNL     1      42.699 -18.376   4.038  1.00  0.00     0.053 A 
HETATM   15  C   UNL     1      43.582 -19.419   3.723  1.00  0.00     0.042 A 
HETATM   16 CL   UNL     1      43.742 -19.867   2.061  1.00  0.00    -0.084 Cl
HETATM   17  C   UNL     1      44.316 -20.062   4.727  1.00  0.00    -0.040 A 
HETATM   18  C   UNL     1      45.292 -21.164   4.429  1.00  0.00     0.050 C 
HETATM   19  C   UNL     1      44.164 -19.614   6.043  1.00  0.00     0.011 A 
HETATM   20  C   UNL     1      43.284 -18.567   6.348  1.00  0.00     0.030 A 
ENDBRANCH  11  13
ENDBRANCH  10  11
ENDBRANCH   7  10
BRANCH   1  21
HETATM   21  C   UNL     1      42.727 -14.381   3.340  1.00  0.00     0.293 C 
HETATM   22  O   UNL     1      43.794 -13.821   3.157  1.00  0.00    -0.259 OA
BRANCH  21  23
HETATM   23  O   UNL     1      42.326 -15.531   2.741  1.00  0.00    -0.318 OA
BRANCH  23  24
HETATM   24  C   UNL     1      42.437 -15.549   1.308  1.00  0.00     0.174 C 
HETATM   25  C   UNL     1      41.467 -16.558   0.724  1.00  0.00     0.034 C 
ENDBRANCH  23  24
ENDBRANCH  21  23
ENDBRANCH   1  21
BRANCH   2  26
HETATM   26  C   UNL     1      40.094 -13.060   2.421  1.00  0.00    -0.031 A 
HETATM   27  C   UNL     1      39.105 -14.057   2.357  1.00  0.00     0.011 A 
HETATM   28  C   UNL     1      38.447 -14.331   1.155  1.00  0.00     0.024 A 
HETATM   29  C   UNL     1      38.776 -13.615   0.007  1.00  0.00     0.034 A 
HETATM   30 CL   UNL     1      37.965 -13.951  -1.473  1.00  0.00    -0.084 Cl
HETATM   31  C   UNL     1      39.757 -12.628   0.049  1.00  0.00     0.024 A 
HETATM   32  C   UNL     1      40.413 -12.350   1.251  1.00  0.00     0.011 A 
ENDBRANCH   2  26
TORSDOF 7
ENDMDL
MODEL 8
REMARK VINA RESULT:      -7.7      5.173      8.642
REMARK  7 active torsions:
REMARK  status: ('A' for Active; 'I' for Inactive)
REMARK    1  A    between atoms: C_2  and  O_3 
REMARK    2  A    between atoms: O_3  and  C_4 
REMARK    3  A    between atoms: C_4  and  C_5 
REMARK    4  A    between atoms: C_6  and  C_7 
REMARK    5  A    between atoms: C_18  and  C_19 
REMARK    6  A    between atoms: C_19  and  N_20 
REMARK    7  A    between atoms: N_20  and  C_21 
ROOT
HETATM    1  C   UNL     1      40.652 -15.620   1.276  1.00  0.00     0.068 A 
HETATM    2  C   UNL     1      40.177 -15.365   2.678  1.00  0.00     0.161 A 
HETATM    3  N   UNL     1      39.360 -14.168   2.759  1.00  0.00    -0.330 N 
HETATM    4  C   UNL     1      39.164 -13.283   1.754  1.00  0.00     0.321 A 
HETATM    5  O   UNL     1      38.527 -12.250   1.923  1.00  0.00    -0.247 OA
HETATM    6  N   UNL     1      39.696 -13.610   0.547  1.00  0.00    -0.310 N 
HETATM    7  C   UNL     1      40.410 -14.758   0.267  1.00  0.00     0.046 A 
HETATM    8  H   UNL     1      38.976 -13.896   3.654  1.00  0.00     0.165 HD
HETATM    9  H   UNL     1      39.506 -12.940  -0.191  1.00  0.00     0.170 HD
ENDROOT
BRANCH   7  10
HETATM   10  C   UNL     1      40.813 -14.934  -1.185  1.00  0.00     0.177 C 
BRANCH  10  11
HETATM   11  N   UNL     1      42.065 -14.231  -1.403  1.00  0.00    -0.384 N 
HETATM   12  H   UNL     1      42.740 -14.302  -0.647  1.00  0.00     0.160 HD
BRANCH  11  13
HETATM   13  C   UNL     1      42.108 -13.028  -2.102  1.00  0.00     0.029 A 
HETATM   14  C   UNL     1      42.791 -11.945  -1.533  1.00  0.00     0.053 A 
HETATM   15  C   UNL     1      42.946 -10.734  -2.222  1.00  0.00     0.042 A 
HETATM   16 CL   UNL     1      43.812  -9.463  -1.432  1.00  0.00    -0.084 Cl
HETATM   17  C   UNL     1      42.426 -10.573  -3.511  1.00  0.00    -0.040 A 
HETATM   18  C   UNL     1      42.595  -9.302  -4.294  1.00  0.00     0.050 C 
HETATM   19  C   UNL     1      41.776 -11.662  -4.100  1.00  0.00     0.011 A 
HETATM   20  C   UNL     1      41.630 -12.872  -3.407  1.00  0.00     0.030 A 
ENDBRANCH  11  13
ENDBRANCH  10  11
ENDBRANCH   7  10
BRANCH   1  21
HETATM   21  C   UNL     1      41.431 -16.860   1.053  1.00  0.00     0.293 C 
HETATM   22  O   UNL     1      40.965 -17.987   1.058  1.00  0.00    -0.259 OA
BRANCH  21  23
HETATM   23  O   UNL     1      42.740 -16.549   0.871  1.00  0.00    -0.318 OA
BRANCH  23  24
HETATM   24  C   UNL     1      43.666 -17.621   1.109  1.00  0.00     0.174 C 
HETATM   25  C   UNL     1      44.017 -17.689   2.582  1.00  0.00     0.034 C 
ENDBRANCH  23  24
ENDBRANCH  21  23
ENDBRANCH   1  21
BRANCH   2  26
HETATM   26  C   UNL     1      41.304 -15.278   3.699  1.00  0.00    -0.031 A 
HETATM   27  C   UNL     1      42.317 -14.310   3.586  1.00  0.00     0.011 A 
HETATM   28  C   UNL     1      43.344 -14.241   4.530  1.00  0.00     0.024 A 
HETATM   29  C   UNL     1      43.370 -15.141   5.592  1.00  0.00     0.034 A 
HETATM   30 CL   UNL     1      44.634 -15.055   6.756  1.00  0.00    -0.084 Cl
HETATM   31  C   UNL     1      42.378 -16.110   5.719  1.00  0.00     0.024 A 
HETATM   32  C   UNL     1      41.348 -16.178   4.778  1.00  0.00     0.011 A 
ENDBRANCH   2  26
TORSDOF 7
ENDMDL
MODEL 9
REMARK VINA RESULT:      -7.7      2.152      2.831
REMARK  7 active torsions:
REMARK  status: ('A' for Active; 'I' for Inactive)
REMARK    1  A    between atoms: C_2  and  O_3 
REMARK    2  A    between atoms: O_3  and  C_4 
REMARK    3  A    between atoms: C_4  and  C_5 
REMARK    4  A    between atoms: C_6  and  C_7 
REMARK    5  A    between atoms: C_18  and  C_19 
REMARK    6  A    between atoms: C_19  and  N_20 
REMARK    7  A    between atoms: N_20  and  C_21 
ROOT
HETATM    1  C   UNL     1      42.605 -15.962   4.652  1.00  0.00     0.068 A 
HETATM    2  C   UNL     1      42.177 -17.358   5.009  1.00  0.00     0.161 A 
HETATM    3  N   UNL     1      42.353 -17.628   6.424  1.00  0.00    -0.330 N 
HETATM    4  C   UNL     1      42.970 -16.809   7.307  1.00  0.00     0.321 A 
HETATM    5  O   UNL     1      43.154 -17.143   8.472  1.00  0.00    -0.247 OA
HETATM    6  N   UNL     1      43.358 -15.594   6.839  1.00  0.00    -0.310 N 
HETATM    7  C   UNL     1      43.174 -15.133   5.550  1.00  0.00     0.046 A 
HETATM    8  H   UNL     1      42.093 -18.535   6.787  1.00  0.00     0.165 HD
HETATM    9  H   UNL     1      43.790 -14.994   7.534  1.00  0.00     0.170 HD
ENDROOT
BRANCH   7  10
HETATM   10  C   UNL     1      43.610 -13.701   5.305  1.00  0.00     0.177 C 
BRANCH  10  11
HETATM   11  N   UNL     1      42.436 -12.913   4.976  1.00  0.00    -0.384 N 
HETATM   12  H   UNL     1      42.541 -12.288   4.183  1.00  0.00     0.160 HD
BRANCH  11  13
HETATM   13  C   UNL     1      41.576 -12.447   5.967  1.00  0.00     0.029 A 
HETATM   14  C   UNL     1      42.027 -11.436   6.825  1.00  0.00     0.053 A 
HETATM   15  C   UNL     1      41.184 -10.861   7.787  1.00  0.00     0.042 A 
HETATM   16 CL   UNL     1      41.838  -9.615   8.792  1.00  0.00    -0.084 Cl
HETATM   17  C   UNL     1      39.854 -11.280   7.913  1.00  0.00    -0.040 A 
HETATM   18  C   UNL     1      38.910 -10.671   8.911  1.00  0.00     0.050 C 
HETATM   19  C   UNL     1      39.387 -12.262   7.035  1.00  0.00     0.011 A 
HETATM   20  C   UNL     1      40.234 -12.827   6.072  1.00  0.00     0.030 A 
ENDBRANCH  11  13
ENDBRANCH  10  11
ENDBRANCH   7  10
BRANCH   1  21
HETATM   21  C   UNL     1      42.398 -15.543   3.246  1.00  0.00     0.293 C 
HETATM   22  O   UNL     1      43.248 -15.587   2.373  1.00  0.00    -0.259 OA
BRANCH  21  23
HETATM   23  O   UNL     1      41.131 -15.081   3.091  1.00  0.00    -0.318 OA
BRANCH  23  24
HETATM   24  C   UNL     1      40.299 -15.850   2.207  1.00  0.00     0.174 C 
HETATM   25  C   UNL     1      39.033 -15.081   1.884  1.00  0.00     0.034 C 
ENDBRANCH  23  24
ENDBRANCH  21  23
ENDBRANCH   1  21
BRANCH   2  26
HETATM   26  C   UNL     1      42.878 -18.440   4.198  1.00  0.00    -0.031 A 
HETATM   27  C   UNL     1      43.959 -19.164   4.729  1.00  0.00     0.011 A 
HETATM   28  C   UNL     1      44.592 -20.153   3.973  1.00  0.00     0.024 A 
HETATM   29  C   UNL     1      44.154 -20.425   2.680  1.00  0.00     0.034 A 
HETATM   30 CL   UNL     1      44.932 -21.645   1.750  1.00  0.00    -0.084 Cl
HETATM   31  C   UNL     1      43.087 -19.715   2.134  1.00  0.00     0.024 A 
HETATM   32  C   UNL     1      42.450 -18.727   2.890  1.00  0.00     0.011 A 
ENDBRANCH   2  26
TORSDOF 7
ENDMDL
MODEL 10
REMARK VINA RESULT:      -7.6      4.745      8.341
REMARK  7 active torsions:
REMARK  status: ('A' for Active; 'I' for Inactive)
REMARK    1  A    between atoms: C_2  and  O_3 
REMARK    2  A    between atoms: O_3  and  C_4 
REMARK    3  A    between atoms: C_4  and  C_5 
REMARK    4  A    between atoms: C_6  and  C_7 
REMARK    5  A    between atoms: C_18  and  C_19 
REMARK    6  A    between atoms: C_19  and  N_20 
REMARK    7  A    between atoms: N_20  and  C_21 
ROOT
HETATM    1  C   UNL     1      41.799 -16.704   1.593  1.00  0.00     0.068 A 
HETATM    2  C   UNL     1      41.142 -16.695   2.944  1.00  0.00     0.161 A 
HETATM    3  N   UNL     1      39.866 -16.004   2.916  1.00  0.00    -0.330 N 
HETATM    4  C   UNL     1      39.375 -15.307   1.865  1.00  0.00     0.321 A 
HETATM    5  O   UNL     1      38.325 -14.680   1.944  1.00  0.00    -0.247 OA
HETATM    6  N   UNL     1      40.098 -15.354   0.715  1.00  0.00    -0.310 N 
HETATM    7  C   UNL     1      41.279 -16.049   0.536  1.00  0.00     0.046 A 
HETATM    8  H   UNL     1      39.325 -15.938   3.767  1.00  0.00     0.165 HD
HETATM    9  H   UNL     1      39.688 -14.846  -0.061  1.00  0.00     0.170 HD
ENDROOT
BRANCH   7  10
HETATM   10  C   UNL     1      41.839 -16.020  -0.873  1.00  0.00     0.177 C 
BRANCH  10  11
HETATM   11  N   UNL     1      41.181 -14.955  -1.609  1.00  0.00    -0.384 N 
HETATM   12  H   UNL     1      40.647 -15.253  -2.419  1.00  0.00     0.160 HD
BRANCH  11  13
HETATM   13  C   UNL     1      41.760 -13.695  -1.732  1.00  0.00     0.029 A 
HETATM   14  C   UNL     1      41.887 -13.138  -3.011  1.00  0.00     0.053 A 
HETATM   15  C   UNL     1      42.380 -11.839  -3.198  1.00  0.00     0.042 A 
HETATM   16 CL   UNL     1      42.491 -11.243  -4.817  1.00  0.00    -0.084 Cl
HETATM   17  C   UNL     1      42.756 -11.052  -2.103  1.00  0.00    -0.040 A 
HETATM   18  C   UNL     1      43.262  -9.646  -2.257  1.00  0.00     0.050 C 
HETATM   19  C   UNL     1      42.596 -11.589  -0.821  1.00  0.00     0.011 A 
HETATM   20  C   UNL     1      42.097 -12.886  -0.643  1.00  0.00     0.030 A 
ENDBRANCH  11  13
ENDBRANCH  10  11
ENDBRANCH   7  10
BRANCH   1  21
HETATM   21  C   UNL     1      43.074 -17.451   1.479  1.00  0.00     0.293 C 
HETATM   22  O   UNL     1      44.177 -16.938   1.398  1.00  0.00    -0.259 OA
BRANCH  21  23
HETATM   23  O   UNL     1      42.819 -18.784   1.452  1.00  0.00    -0.318 OA
BRANCH  23  24
HETATM   24  C   UNL     1      43.559 -19.571   2.399  1.00  0.00     0.174 C 
HETATM   25  C   UNL     1      43.728 -20.986   1.880  1.00  0.00     0.034 C 
ENDBRANCH  23  24
ENDBRANCH  21  23
ENDBRANCH   1  21
BRANCH   2  26
HETATM   26  C   UNL     1      42.013 -16.102   4.044  1.00  0.00    -0.031 A 
HETATM   27  C   UNL     1      42.389 -16.862   5.165  1.00  0.00     0.011 A 
HETATM   28  C   UNL     1      43.189 -16.306   6.166  1.00  0.00     0.024 A 
HETATM   29  C   UNL     1      43.615 -14.985   6.058  1.00  0.00     0.034 A 
HETATM   30 CL   UNL     1      44.601 -14.300   7.290  1.00  0.00    -0.084 Cl
HETATM   31  C   UNL     1      43.248 -14.214   4.958  1.00  0.00     0.024 A 
HETATM   32  C   UNL     1      42.452 -14.770   3.954  1.00  0.00     0.011 A 
ENDBRANCH   2  26
TORSDOF 7
ENDMDL
