MODEL 1
REMARK VINA RESULT:      -7.0      0.000      0.000
REMARK  6 active torsions:
REMARK  status: ('A' for Active; 'I' for Inactive)
REMARK    1  A    between atoms: N_2  and  C_5 
REMARK    2  A    between atoms: C_5  and  C_6 
REMARK    3  A    between atoms: C_6  and  C_7 
REMARK    4  A    between atoms: C_7  and  C_8 
REMARK    5  A    between atoms: C_12  and  N_13 
REMARK       I    between atoms: N_13  and  C_14 
REMARK    6  A    between atoms: C_14  and  C_15 
ROOT
HETATM    1  C   UNL     1      39.714 -14.433   1.989  1.00  0.00     0.079 A 
HETATM    2  N   UNL     1      39.509 -14.511   3.317  1.00  0.00    -0.176 NA
HETATM    3  N   UNL     1      40.275 -15.572   3.686  1.00  0.00    -0.261 N 
HETATM    4  H   UNL     1      40.339 -15.846   4.666  1.00  0.00     0.191 HD
HETATM    5  C   UNL     1      40.894 -16.201   2.633  1.00  0.00     0.147 A 
HETATM    6  C   UNL     1      40.556 -15.469   1.517  1.00  0.00     0.116 A 
HETATM    7  C   UNL     1      40.966 -15.716   0.176  1.00  0.00     0.105 C 
HETATM    8  N   UNL     1      41.278 -15.917  -0.922  1.00  0.00    -0.191 NA
ENDROOT
BRANCH   1   9
HETATM    9  C   UNL     1      39.065 -13.328   1.222  1.00  0.00     0.064 C 
BRANCH   9  10
HETATM   10  C   UNL     1      37.923 -13.786   0.307  1.00  0.00     0.033 C 
BRANCH  10  11
HETATM   11  C   UNL     1      38.030 -13.439  -1.180  1.00  0.00     0.232 C 
BRANCH  11  12
HETATM   12  N   UNL     1      38.391 -14.626  -2.003  1.00  0.00    -0.079 N 
HETATM   13  C   UNL     1      39.038 -14.309  -3.299  1.00  0.00     0.266 C 
HETATM   14  H   UNL     1      37.580 -15.236  -2.159  1.00  0.00     0.276 HD
HETATM   15  H   UNL     1      39.068 -15.182  -1.435  1.00  0.00     0.276 HD
ENDBRANCH  11  12
ENDBRANCH  10  11
ENDBRANCH   9  10
ENDBRANCH   1   9
BRANCH   5  16
HETATM   16  N   UNL     1      41.684 -17.332   2.770  1.00  0.00    -0.306 N 
HETATM   17  C   UNL     1      42.865 -17.323   3.494  1.00  0.00     0.259 C 
HETATM   18  O   UNL     1      43.285 -16.302   4.042  1.00  0.00    -0.267 OA
HETATM   19  H   UNL     1      41.380 -18.197   2.328  1.00  0.00     0.170 HD
BRANCH  17  20
HETATM   20  C   UNL     1      43.603 -18.586   3.582  1.00  0.00     0.063 A 
HETATM   21  C   UNL     1      44.422 -19.039   4.601  1.00  0.00     0.091 A 
HETATM   22 CL   UNL     1      44.840 -18.267   6.087  1.00  0.00    -0.075 Cl
HETATM   23  S   UNL     1      45.108 -20.570   4.318  1.00  0.00    -0.065 SA
HETATM   24  C   UNL     1      44.341 -20.675   2.820  1.00  0.00     0.077 A 
HETATM   25 CL   UNL     1      44.567 -22.061   1.835  1.00  0.00    -0.076 Cl
HETATM   26  C   UNL     1      43.574 -19.578   2.528  1.00  0.00     0.050 A 
ENDBRANCH  17  20
ENDBRANCH   5  16
TORSDOF 6
ENDMDL
MODEL 2
REMARK VINA RESULT:      -6.9      1.261      2.257
REMARK  6 active torsions:
REMARK  status: ('A' for Active; 'I' for Inactive)
REMARK    1  A    between atoms: N_2  and  C_5 
REMARK    2  A    between atoms: C_5  and  C_6 
REMARK    3  A    between atoms: C_6  and  C_7 
REMARK    4  A    between atoms: C_7  and  C_8 
REMARK    5  A    between atoms: C_12  and  N_13 
REMARK       I    between atoms: N_13  and  C_14 
REMARK    6  A    between atoms: C_14  and  C_15 
ROOT
HETATM    1  C   UNL     1      40.451 -14.774  -0.061  1.00  0.00     0.079 A 
HETATM    2  N   UNL     1      41.102 -15.379  -1.071  1.00  0.00    -0.176 NA
HETATM    3  N   UNL     1      41.665 -16.460  -0.472  1.00  0.00    -0.261 N 
HETATM    4  H   UNL     1      42.202 -17.132  -1.019  1.00  0.00     0.191 HD
HETATM    5  C   UNL     1      41.449 -16.518   0.884  1.00  0.00     0.147 A 
HETATM    6  C   UNL     1      40.649 -15.437   1.175  1.00  0.00     0.116 A 
HETATM    7  C   UNL     1      40.139 -15.069   2.453  1.00  0.00     0.105 C 
HETATM    8  N   UNL     1      39.733 -14.750   3.490  1.00  0.00    -0.191 NA
ENDROOT
BRANCH   1   9
HETATM    9  C   UNL     1      39.648 -13.548  -0.350  1.00  0.00     0.064 C 
BRANCH   9  10
HETATM   10  C   UNL     1      38.235 -13.832  -0.872  1.00  0.00     0.033 C 
BRANCH  10  11
HETATM   11  C   UNL     1      38.042 -13.879  -2.389  1.00  0.00     0.232 C 
BRANCH  11  12
HETATM   12  N   UNL     1      37.617 -15.228  -2.854  1.00  0.00    -0.079 N 
HETATM   13  C   UNL     1      38.436 -15.792  -3.954  1.00  0.00     0.266 C 
HETATM   14  H   UNL     1      36.625 -15.241  -3.118  1.00  0.00     0.276 HD
HETATM   15  H   UNL     1      37.707 -15.865  -2.031  1.00  0.00     0.276 HD
ENDBRANCH  11  12
ENDBRANCH  10  11
ENDBRANCH   9  10
ENDBRANCH   1   9
BRANCH   5  16
HETATM   16  N   UNL     1      41.970 -17.507   1.705  1.00  0.00    -0.306 N 
HETATM   17  C   UNL     1      43.334 -17.693   1.860  1.00  0.00     0.259 C 
HETATM   18  O   UNL     1      44.158 -17.000   1.260  1.00  0.00    -0.267 OA
HETATM   19  H   UNL     1      41.326 -18.109   2.214  1.00  0.00     0.170 HD
BRANCH  17  20
HETATM   20  C   UNL     1      43.762 -18.759   2.770  1.00  0.00     0.063 A 
HETATM   21  C   UNL     1      44.052 -18.677   4.120  1.00  0.00     0.091 A 
HETATM   22 CL   UNL     1      44.008 -17.301   5.162  1.00  0.00    -0.075 Cl
HETATM   23  S   UNL     1      44.527 -20.151   4.824  1.00  0.00    -0.065 SA
HETATM   24  C   UNL     1      44.369 -20.948   3.346  1.00  0.00     0.077 A 
HETATM   25 CL   UNL     1      44.710 -22.625   3.233  1.00  0.00    -0.076 Cl
HETATM   26  C   UNL     1      43.963 -20.123   2.329  1.00  0.00     0.050 A 
ENDBRANCH  17  20
ENDBRANCH   5  16
TORSDOF 6
ENDMDL
MODEL 3
REMARK VINA RESULT:      -6.7      3.924      5.603
REMARK  6 active torsions:
REMARK  status: ('A' for Active; 'I' for Inactive)
REMARK    1  A    between atoms: N_2  and  C_5 
REMARK    2  A    between atoms: C_5  and  C_6 
REMARK    3  A    between atoms: C_6  and  C_7 
REMARK    4  A    between atoms: C_7  and  C_8 
REMARK    5  A    between atoms: C_12  and  N_13 
REMARK       I    between atoms: N_13  and  C_14 
REMARK    6  A    between atoms: C_14  and  C_15 
ROOT
HETATM    1  C   UNL     1      40.829 -13.675   5.633  1.00  0.00     0.079 A 
HETATM    2  N   UNL     1      39.742 -14.257   5.094  1.00  0.00    -0.176 NA
HETATM    3  N   UNL     1      40.162 -15.526   4.847  1.00  0.00    -0.261 N 
HETATM    4  H   UNL     1      39.519 -16.216   4.460  1.00  0.00     0.191 HD
HETATM    5  C   UNL     1      41.486 -15.740   5.145  1.00  0.00     0.147 A 
HETATM    6  C   UNL     1      41.940 -14.552   5.672  1.00  0.00     0.116 A 
HETATM    7  C   UNL     1      43.254 -14.274   6.148  1.00  0.00     0.105 C 
HETATM    8  N   UNL     1      44.323 -14.030   6.521  1.00  0.00    -0.191 NA
ENDROOT
BRANCH   1   9
HETATM    9  C   UNL     1      40.735 -12.258   6.096  1.00  0.00     0.064 C 
BRANCH   9  10
HETATM   10  C   UNL     1      39.552 -11.980   7.030  1.00  0.00     0.033 C 
BRANCH  10  11
HETATM   11  C   UNL     1      39.794 -11.037   8.211  1.00  0.00     0.232 C 
BRANCH  11  12
HETATM   12  N   UNL     1      39.511 -11.697   9.515  1.00  0.00    -0.079 N 
HETATM   13  C   UNL     1      40.188 -11.081  10.683  1.00  0.00     0.266 C 
HETATM   14  H   UNL     1      39.719 -12.701   9.483  1.00  0.00     0.276 HD
HETATM   15  H   UNL     1      38.480 -11.619   9.667  1.00  0.00     0.276 HD
ENDBRANCH  11  12
ENDBRANCH  10  11
ENDBRANCH   9  10
ENDBRANCH   1   9
BRANCH   5  16
HETATM   16  N   UNL     1      42.139 -16.943   4.928  1.00  0.00    -0.306 N 
HETATM   17  C   UNL     1      42.913 -17.168   3.801  1.00  0.00     0.259 C 
HETATM   18  O   UNL     1      43.047 -16.315   2.922  1.00  0.00    -0.267 OA
HETATM   19  H   UNL     1      42.051 -17.680   5.625  1.00  0.00     0.170 HD
BRANCH  17  20
HETATM   20  C   UNL     1      43.570 -18.474   3.693  1.00  0.00     0.063 A 
HETATM   21  C   UNL     1      44.472 -19.062   4.562  1.00  0.00     0.091 A 
HETATM   22 CL   UNL     1      45.116 -18.449   6.042  1.00  0.00    -0.075 Cl
HETATM   23  S   UNL     1      45.015 -20.598   4.073  1.00  0.00    -0.065 SA
HETATM   24  C   UNL     1      44.069 -20.526   2.679  1.00  0.00     0.077 A 
HETATM   25 CL   UNL     1      44.081 -21.830   1.565  1.00  0.00    -0.076 Cl
HETATM   26  C   UNL     1      43.348 -19.366   2.574  1.00  0.00     0.050 A 
ENDBRANCH  17  20
ENDBRANCH   5  16
TORSDOF 6
ENDMDL
MODEL 4
REMARK VINA RESULT:      -6.7      1.839      3.073
REMARK  6 active torsions:
REMARK  status: ('A' for Active; 'I' for Inactive)
REMARK    1  A    between atoms: N_2  and  C_5 
REMARK    2  A    between atoms: C_5  and  C_6 
REMARK    3  A    between atoms: C_6  and  C_7 
REMARK    4  A    between atoms: C_7  and  C_8 
REMARK    5  A    between atoms: C_12  and  N_13 
REMARK       I    between atoms: N_13  and  C_14 
REMARK    6  A    between atoms: C_14  and  C_15 
ROOT
HETATM    1  C   UNL     1      40.895 -14.380  -0.679  1.00  0.00     0.079 A 
HETATM    2  N   UNL     1      40.742 -15.528  -1.365  1.00  0.00    -0.176 NA
HETATM    3  N   UNL     1      41.401 -16.436  -0.599  1.00  0.00    -0.261 N 
HETATM    4  H   UNL     1      41.421 -17.420  -0.866  1.00  0.00     0.191 HD
HETATM    5  C   UNL     1      42.017 -15.890   0.501  1.00  0.00     0.147 A 
HETATM    6  C   UNL     1      41.691 -14.553   0.480  1.00  0.00     0.116 A 
HETATM    7  C   UNL     1      42.082 -13.562   1.425  1.00  0.00     0.105 C 
HETATM    8  N   UNL     1      42.409 -12.742   2.176  1.00  0.00    -0.191 NA
ENDROOT
BRANCH   1   9
HETATM    9  C   UNL     1      40.245 -13.138  -1.194  1.00  0.00     0.064 C 
BRANCH   9  10
HETATM   10  C   UNL     1      38.713 -13.186  -1.196  1.00  0.00     0.033 C 
BRANCH  10  11
HETATM   11  C   UNL     1      38.022 -13.541  -2.515  1.00  0.00     0.232 C 
BRANCH  11  12
HETATM   12  N   UNL     1      37.765 -15.003  -2.631  1.00  0.00    -0.079 N 
HETATM   13  C   UNL     1      38.173 -15.604  -3.924  1.00  0.00     0.266 C 
HETATM   14  H   UNL     1      36.782 -15.229  -2.438  1.00  0.00     0.276 HD
HETATM   15  H   UNL     1      38.323 -15.461  -1.876  1.00  0.00     0.276 HD
ENDBRANCH  11  12
ENDBRANCH  10  11
ENDBRANCH   9  10
ENDBRANCH   1   9
BRANCH   5  16
HETATM   16  N   UNL     1      42.784 -16.621   1.396  1.00  0.00    -0.306 N 
HETATM   17  C   UNL     1      42.219 -17.327   2.446  1.00  0.00     0.259 C 
HETATM   18  O   UNL     1      41.004 -17.328   2.651  1.00  0.00    -0.267 OA
HETATM   19  H   UNL     1      43.794 -16.644   1.270  1.00  0.00     0.170 HD
BRANCH  17  20
HETATM   20  C   UNL     1      43.132 -18.077   3.313  1.00  0.00     0.063 A 
HETATM   21  C   UNL     1      43.622 -19.360   3.147  1.00  0.00     0.091 A 
HETATM   22 CL   UNL     1      43.314 -20.488   1.877  1.00  0.00    -0.075 Cl
HETATM   23  S   UNL     1      44.661 -19.878   4.390  1.00  0.00    -0.065 SA
HETATM   24  C   UNL     1      44.486 -18.407   5.197  1.00  0.00     0.077 A 
HETATM   25 CL   UNL     1      45.304 -18.138   6.680  1.00  0.00    -0.076 Cl
HETATM   26  C   UNL     1      43.659 -17.530   4.546  1.00  0.00     0.050 A 
ENDBRANCH  17  20
ENDBRANCH   5  16
TORSDOF 6
ENDMDL
MODEL 5
REMARK VINA RESULT:      -6.6      1.719      2.027
REMARK  6 active torsions:
REMARK  status: ('A' for Active; 'I' for Inactive)
REMARK    1  A    between atoms: N_2  and  C_5 
REMARK    2  A    between atoms: C_5  and  C_6 
REMARK    3  A    between atoms: C_6  and  C_7 
REMARK    4  A    between atoms: C_7  and  C_8 
REMARK    5  A    between atoms: C_12  and  N_13 
REMARK       I    between atoms: N_13  and  C_14 
REMARK    6  A    between atoms: C_14  and  C_15 
ROOT
HETATM    1  C   UNL     1      42.143 -13.319   1.729  1.00  0.00     0.079 A 
HETATM    2  N   UNL     1      42.818 -12.993   2.847  1.00  0.00    -0.176 NA
HETATM    3  N   UNL     1      43.443 -14.153   3.180  1.00  0.00    -0.261 N 
HETATM    4  H   UNL     1      44.065 -14.191   3.986  1.00  0.00     0.191 HD
HETATM    5  C   UNL     1      43.131 -15.207   2.355  1.00  0.00     0.147 A 
HETATM    6  C   UNL     1      42.296 -14.686   1.393  1.00  0.00     0.116 A 
HETATM    7  C   UNL     1      41.711 -15.386   0.299  1.00  0.00     0.105 C 
HETATM    8  N   UNL     1      41.214 -15.947  -0.585  1.00  0.00    -0.191 NA
ENDROOT
BRANCH   1   9
HETATM    9  C   UNL     1      41.361 -12.261   1.022  1.00  0.00     0.064 C 
BRANCH   9  10
HETATM   10  C   UNL     1      39.844 -12.479   1.049  1.00  0.00     0.033 C 
BRANCH  10  11
HETATM   11  C   UNL     1      39.174 -12.928  -0.251  1.00  0.00     0.232 C 
BRANCH  11  12
HETATM   12  N   UNL     1      38.480 -14.236  -0.096  1.00  0.00    -0.079 N 
HETATM   13  C   UNL     1      38.120 -14.586   1.300  1.00  0.00     0.266 C 
HETATM   14  H   UNL     1      39.019 -15.001  -0.517  1.00  0.00     0.276 HD
HETATM   15  H   UNL     1      37.594 -14.166  -0.646  1.00  0.00     0.276 HD
ENDBRANCH  11  12
ENDBRANCH  10  11
ENDBRANCH   9  10
ENDBRANCH   1   9
BRANCH   5  16
HETATM   16  N   UNL     1      43.614 -16.494   2.535  1.00  0.00    -0.306 N 
HETATM   17  C   UNL     1      43.304 -17.247   3.656  1.00  0.00     0.259 C 
HETATM   18  O   UNL     1      42.595 -16.805   4.562  1.00  0.00    -0.267 OA
HETATM   19  H   UNL     1      44.209 -16.898   1.815  1.00  0.00     0.170 HD
BRANCH  17  20
HETATM   20  C   UNL     1      43.859 -18.602   3.723  1.00  0.00     0.063 A 
HETATM   21  C   UNL     1      44.533 -19.209   4.769  1.00  0.00     0.091 A 
HETATM   22 CL   UNL     1      44.939 -18.568   6.320  1.00  0.00    -0.075 Cl
HETATM   23  S   UNL     1      45.029 -20.804   4.449  1.00  0.00    -0.065 SA
HETATM   24  C   UNL     1      44.367 -20.736   2.899  1.00  0.00     0.077 A 
HETATM   25 CL   UNL     1      44.479 -22.093   1.857  1.00  0.00    -0.076 Cl
HETATM   26  C   UNL     1      43.777 -19.532   2.617  1.00  0.00     0.050 A 
ENDBRANCH  17  20
ENDBRANCH   5  16
TORSDOF 6
ENDMDL
MODEL 6
REMARK VINA RESULT:      -6.5      3.126      4.062
REMARK  6 active torsions:
REMARK  status: ('A' for Active; 'I' for Inactive)
REMARK    1  A    between atoms: N_2  and  C_5 
REMARK    2  A    between atoms: C_5  and  C_6 
REMARK    3  A    between atoms: C_6  and  C_7 
REMARK    4  A    between atoms: C_7  and  C_8 
REMARK    5  A    between atoms: C_12  and  N_13 
REMARK       I    between atoms: N_13  and  C_14 
REMARK    6  A    between atoms: C_14  and  C_15 
ROOT
HETATM    1  C   UNL     1      41.025 -13.643   5.495  1.00  0.00     0.079 A 
HETATM    2  N   UNL     1      39.927 -14.193   4.945  1.00  0.00    -0.176 NA
HETATM    3  N   UNL     1      40.307 -15.477   4.717  1.00  0.00    -0.261 N 
HETATM    4  H   UNL     1      39.646 -16.149   4.327  1.00  0.00     0.191 HD
HETATM    5  C   UNL     1      41.618 -15.734   5.038  1.00  0.00     0.147 A 
HETATM    6  C   UNL     1      42.105 -14.557   5.560  1.00  0.00     0.116 A 
HETATM    7  C   UNL     1      43.420 -14.319   6.053  1.00  0.00     0.105 C 
HETATM    8  N   UNL     1      44.492 -14.108   6.440  1.00  0.00    -0.191 NA
ENDROOT
BRANCH   1   9
HETATM    9  C   UNL     1      40.974 -12.218   5.942  1.00  0.00     0.064 C 
BRANCH   9  10
HETATM   10  C   UNL     1      39.555 -11.654   6.076  1.00  0.00     0.033 C 
BRANCH  10  11
HETATM   11  C   UNL     1      39.056 -10.731   4.961  1.00  0.00     0.232 C 
BRANCH  11  12
HETATM   12  N   UNL     1      38.316 -11.480   3.909  1.00  0.00    -0.079 N 
HETATM   13  C   UNL     1      38.994 -11.534   2.591  1.00  0.00     0.266 C 
HETATM   14  H   UNL     1      37.361 -11.123   3.794  1.00  0.00     0.276 HD
HETATM   15  H   UNL     1      38.220 -12.460   4.259  1.00  0.00     0.276 HD
ENDBRANCH  11  12
ENDBRANCH  10  11
ENDBRANCH   9  10
ENDBRANCH   1   9
BRANCH   5  16
HETATM   16  N   UNL     1      42.233 -16.961   4.843  1.00  0.00    -0.306 N 
HETATM   17  C   UNL     1      43.019 -17.223   3.732  1.00  0.00     0.259 C 
HETATM   18  O   UNL     1      43.199 -16.382   2.849  1.00  0.00    -0.267 OA
HETATM   19  H   UNL     1      42.106 -17.688   5.543  1.00  0.00     0.170 HD
BRANCH  17  20
HETATM   20  C   UNL     1      43.632 -18.552   3.648  1.00  0.00     0.063 A 
HETATM   21  C   UNL     1      44.469 -19.176   4.554  1.00  0.00     0.091 A 
HETATM   22 CL   UNL     1      45.066 -18.594   6.066  1.00  0.00    -0.075 Cl
HETATM   23  S   UNL     1      44.978 -20.729   4.081  1.00  0.00    -0.065 SA
HETATM   24  C   UNL     1      44.102 -20.616   2.645  1.00  0.00     0.077 A 
HETATM   25 CL   UNL     1      44.119 -21.915   1.525  1.00  0.00    -0.076 Cl
HETATM   26  C   UNL     1      43.430 -19.429   2.514  1.00  0.00     0.050 A 
ENDBRANCH  17  20
ENDBRANCH   5  16
TORSDOF 6
ENDMDL
MODEL 7
REMARK VINA RESULT:      -6.2      4.468      7.859
REMARK  6 active torsions:
REMARK  status: ('A' for Active; 'I' for Inactive)
REMARK    1  A    between atoms: N_2  and  C_5 
REMARK    2  A    between atoms: C_5  and  C_6 
REMARK    3  A    between atoms: C_6  and  C_7 
REMARK    4  A    between atoms: C_7  and  C_8 
REMARK    5  A    between atoms: C_12  and  N_13 
REMARK       I    between atoms: N_13  and  C_14 
REMARK    6  A    between atoms: C_14  and  C_15 
ROOT
HETATM    1  C   UNL     1      42.529 -18.267   4.419  1.00  0.00     0.079 A 
HETATM    2  N   UNL     1      41.527 -18.023   5.284  1.00  0.00    -0.176 NA
HETATM    3  N   UNL     1      40.633 -17.330   4.531  1.00  0.00    -0.261 N 
HETATM    4  H   UNL     1      39.741 -17.036   4.930  1.00  0.00     0.191 HD
HETATM    5  C   UNL     1      41.065 -17.072   3.253  1.00  0.00     0.147 A 
HETATM    6  C   UNL     1      42.293 -17.685   3.150  1.00  0.00     0.116 A 
HETATM    7  C   UNL     1      43.141 -17.715   2.006  1.00  0.00     0.105 C 
HETATM    8  N   UNL     1      43.848 -17.731   1.087  1.00  0.00    -0.191 NA
ENDROOT
BRANCH   1   9
HETATM    9  C   UNL     1      43.699 -19.075   4.878  1.00  0.00     0.064 C 
BRANCH   9  10
HETATM   10  C   UNL     1      44.520 -18.414   5.991  1.00  0.00     0.033 C 
BRANCH  10  11
HETATM   11  C   UNL     1      44.210 -18.824   7.432  1.00  0.00     0.232 C 
BRANCH  11  12
HETATM   12  N   UNL     1      43.285 -17.865   8.096  1.00  0.00    -0.079 N 
HETATM   13  C   UNL     1      43.513 -16.441   7.749  1.00  0.00     0.266 C 
HETATM   14  H   UNL     1      43.293 -17.979   9.116  1.00  0.00     0.276 HD
HETATM   15  H   UNL     1      42.322 -18.120   7.782  1.00  0.00     0.276 HD
ENDBRANCH  11  12
ENDBRANCH  10  11
ENDBRANCH   9  10
ENDBRANCH   1   9
BRANCH   5  16
HETATM   16  N   UNL     1      40.337 -16.340   2.327  1.00  0.00    -0.306 N 
HETATM   17  C   UNL     1      40.216 -14.962   2.409  1.00  0.00     0.259 C 
HETATM   18  O   UNL     1      40.734 -14.316   3.322  1.00  0.00    -0.267 OA
HETATM   19  H   UNL     1      39.886 -16.833   1.560  1.00  0.00     0.170 HD
BRANCH  17  20
HETATM   20  C   UNL     1      39.437 -14.298   1.360  1.00  0.00     0.063 A 
HETATM   21  C   UNL     1      39.643 -14.311  -0.008  1.00  0.00     0.091 A 
HETATM   22 CL   UNL     1      40.879 -15.103  -0.916  1.00  0.00    -0.075 Cl
HETATM   23  S   UNL     1      38.512 -13.399  -0.893  1.00  0.00    -0.065 SA
HETATM   24  C   UNL     1      37.713 -12.950   0.523  1.00  0.00     0.077 A 
HETATM   25 CL   UNL     1      36.336 -11.931   0.445  1.00  0.00    -0.076 Cl
HETATM   26  C   UNL     1      38.282 -13.476   1.653  1.00  0.00     0.050 A 
ENDBRANCH  17  20
ENDBRANCH   5  16
TORSDOF 6
ENDMDL
MODEL 8
REMARK VINA RESULT:      -6.2      1.732      2.132
REMARK  6 active torsions:
REMARK  status: ('A' for Active; 'I' for Inactive)
REMARK    1  A    between atoms: N_2  and  C_5 
REMARK    2  A    between atoms: C_5  and  C_6 
REMARK    3  A    between atoms: C_6  and  C_7 
REMARK    4  A    between atoms: C_7  and  C_8 
REMARK    5  A    between atoms: C_12  and  N_13 
REMARK       I    between atoms: N_13  and  C_14 
REMARK    6  A    between atoms: C_14  and  C_15 
ROOT
HETATM    1  C   UNL     1      39.481 -14.141   2.436  1.00  0.00     0.079 A 
HETATM    2  N   UNL     1      38.731 -15.053   1.790  1.00  0.00    -0.176 NA
HETATM    3  N   UNL     1      39.374 -16.221   2.051  1.00  0.00    -0.261 N 
HETATM    4  H   UNL     1      38.999 -17.104   1.706  1.00  0.00     0.191 HD
HETATM    5  C   UNL     1      40.532 -16.068   2.773  1.00  0.00     0.147 A 
HETATM    6  C   UNL     1      40.618 -14.722   3.049  1.00  0.00     0.116 A 
HETATM    7  C   UNL     1      41.641 -14.064   3.790  1.00  0.00     0.105 C 
HETATM    8  N   UNL     1      42.477 -13.514   4.375  1.00  0.00    -0.191 NA
ENDROOT
BRANCH   1   9
HETATM    9  C   UNL     1      39.049 -12.711   2.425  1.00  0.00     0.064 C 
BRANCH   9  10
HETATM   10  C   UNL     1      38.515 -12.227   1.073  1.00  0.00     0.033 C 
BRANCH  10  11
HETATM   11  C   UNL     1      39.522 -12.085  -0.072  1.00  0.00     0.232 C 
BRANCH  11  12
HETATM   12  N   UNL     1      39.090 -12.828  -1.287  1.00  0.00    -0.079 N 
HETATM   13  C   UNL     1      39.374 -12.140  -2.570  1.00  0.00     0.266 C 
HETATM   14  H   UNL     1      38.096 -13.081  -1.241  1.00  0.00     0.276 HD
HETATM   15  H   UNL     1      39.620 -13.729  -1.284  1.00  0.00     0.276 HD
ENDBRANCH  11  12
ENDBRANCH  10  11
ENDBRANCH   9  10
ENDBRANCH   1   9
BRANCH   5  16
HETATM   16  N   UNL     1      41.373 -17.117   3.112  1.00  0.00    -0.306 N 
HETATM   17  C   UNL     1      42.287 -17.647   2.215  1.00  0.00     0.259 C 
HETATM   18  O   UNL     1      42.388 -17.224   1.062  1.00  0.00    -0.267 OA
HETATM   19  H   UNL     1      41.320 -17.503   4.052  1.00  0.00     0.170 HD
BRANCH  17  20
HETATM   20  C   UNL     1      43.135 -18.742   2.696  1.00  0.00     0.063 A 
HETATM   21  C   UNL     1      43.861 -18.820   3.870  1.00  0.00     0.091 A 
HETATM   22 CL   UNL     1      44.009 -17.659   5.139  1.00  0.00    -0.075 Cl
HETATM   23  S   UNL     1      44.732 -20.269   4.059  1.00  0.00    -0.065 SA
HETATM   24  C   UNL     1      44.173 -20.839   2.572  1.00  0.00     0.077 A 
HETATM   25 CL   UNL     1      44.662 -22.381   2.005  1.00  0.00    -0.076 Cl
HETATM   26  C   UNL     1      43.340 -19.957   1.935  1.00  0.00     0.050 A 
ENDBRANCH  17  20
ENDBRANCH   5  16
TORSDOF 6
ENDMDL
MODEL 9
REMARK VINA RESULT:      -6.2      4.387      7.273
REMARK  6 active torsions:
REMARK  status: ('A' for Active; 'I' for Inactive)
REMARK    1  A    between atoms: N_2  and  C_5 
REMARK    2  A    between atoms: C_5  and  C_6 
REMARK    3  A    between atoms: C_6  and  C_7 
REMARK    4  A    between atoms: C_7  and  C_8 
REMARK    5  A    between atoms: C_12  and  N_13 
REMARK       I    between atoms: N_13  and  C_14 
REMARK    6  A    between atoms: C_14  and  C_15 
ROOT
HETATM    1  C   UNL     1      42.142 -17.940   4.953  1.00  0.00     0.079 A 
HETATM    2  N   UNL     1      41.118 -17.248   5.486  1.00  0.00    -0.176 NA
HETATM    3  N   UNL     1      40.526 -16.687   4.399  1.00  0.00    -0.261 N 
HETATM    4  H   UNL     1      39.684 -16.122   4.505  1.00  0.00     0.191 HD
HETATM    5  C   UNL     1      41.178 -16.944   3.218  1.00  0.00     0.147 A 
HETATM    6  C   UNL     1      42.227 -17.771   3.549  1.00  0.00     0.116 A 
HETATM    7  C   UNL     1      43.193 -18.327   2.661  1.00  0.00     0.105 C 
HETATM    8  N   UNL     1      43.994 -18.770   1.952  1.00  0.00    -0.191 NA
ENDROOT
BRANCH   1   9
HETATM    9  C   UNL     1      43.012 -18.754   5.854  1.00  0.00     0.064 C 
BRANCH   9  10
HETATM   10  C   UNL     1      43.480 -18.012   7.111  1.00  0.00     0.033 C 
BRANCH  10  11
HETATM   11  C   UNL     1      44.246 -16.702   6.911  1.00  0.00     0.232 C 
BRANCH  11  12
HETATM   12  N   UNL     1      43.389 -15.513   7.168  1.00  0.00    -0.079 N 
HETATM   13  C   UNL     1      43.389 -14.501   6.084  1.00  0.00     0.266 C 
HETATM   14  H   UNL     1      43.624 -15.065   8.061  1.00  0.00     0.276 HD
HETATM   15  H   UNL     1      42.412 -15.870   7.271  1.00  0.00     0.276 HD
ENDBRANCH  11  12
ENDBRANCH  10  11
ENDBRANCH   9  10
ENDBRANCH   1   9
BRANCH   5  16
HETATM   16  N   UNL     1      40.779 -16.434   1.991  1.00  0.00    -0.306 N 
HETATM   17  C   UNL     1      40.729 -15.072   1.742  1.00  0.00     0.259 C 
HETATM   18  O   UNL     1      41.019 -14.241   2.604  1.00  0.00    -0.267 OA
HETATM   19  H   UNL     1      40.524 -17.083   1.251  1.00  0.00     0.170 HD
BRANCH  17  20
HETATM   20  C   UNL     1      40.310 -14.655   0.401  1.00  0.00     0.063 A 
HETATM   21  C   UNL     1      39.059 -14.247  -0.026  1.00  0.00     0.091 A 
HETATM   22 CL   UNL     1      37.595 -14.102   0.877  1.00  0.00    -0.075 Cl
HETATM   23  S   UNL     1      38.979 -13.849  -1.678  1.00  0.00    -0.065 SA
HETATM   24  C   UNL     1      40.612 -14.217  -1.881  1.00  0.00     0.077 A 
HETATM   25 CL   UNL     1      41.343 -14.055  -3.424  1.00  0.00    -0.076 Cl
HETATM   26  C   UNL     1      41.220 -14.633  -0.726  1.00  0.00     0.050 A 
ENDBRANCH  17  20
ENDBRANCH   5  16
TORSDOF 6
ENDMDL
MODEL 10
REMARK VINA RESULT:      -6.1      4.371      7.397
REMARK  6 active torsions:
REMARK  status: ('A' for Active; 'I' for Inactive)
REMARK    1  A    between atoms: N_2  and  C_5 
REMARK    2  A    between atoms: C_5  and  C_6 
REMARK    3  A    between atoms: C_6  and  C_7 
REMARK    4  A    between atoms: C_7  and  C_8 
REMARK    5  A    between atoms: C_12  and  N_13 
REMARK       I    between atoms: N_13  and  C_14 
REMARK    6  A    between atoms: C_14  and  C_15 
ROOT
HETATM    1  C   UNL     1      42.575 -17.508   4.488  1.00  0.00     0.079 A 
HETATM    2  N   UNL     1      41.401 -17.229   5.085  1.00  0.00    -0.176 NA
HETATM    3  N   UNL     1      40.633 -16.779   4.059  1.00  0.00    -0.261 N 
HETATM    4  H   UNL     1      39.659 -16.520   4.219  1.00  0.00     0.191 HD
HETATM    5  C   UNL     1      41.298 -16.699   2.860  1.00  0.00     0.147 A 
HETATM    6  C   UNL     1      42.563 -17.182   3.110  1.00  0.00     0.116 A 
HETATM    7  C   UNL     1      43.628 -17.315   2.173  1.00  0.00     0.105 C 
HETATM    8  N   UNL     1      44.508 -17.411   1.425  1.00  0.00    -0.191 NA
ENDROOT
BRANCH   1   9
HETATM    9  C   UNL     1      43.681 -18.091   5.304  1.00  0.00     0.064 C 
BRANCH   9  10
HETATM   10  C   UNL     1      43.788 -19.618   5.216  1.00  0.00     0.033 C 
BRANCH  10  11
HETATM   11  C   UNL     1      44.897 -20.197   4.335  1.00  0.00     0.232 C 
BRANCH  11  12
HETATM   12  N   UNL     1      44.428 -20.449   2.945  1.00  0.00    -0.079 N 
HETATM   13  C   UNL     1      44.398 -21.878   2.549  1.00  0.00     0.266 C 
HETATM   14  H   UNL     1      44.971 -19.910   2.260  1.00  0.00     0.276 HD
HETATM   15  H   UNL     1      43.451 -20.083   2.893  1.00  0.00     0.276 HD
ENDBRANCH  11  12
ENDBRANCH  10  11
ENDBRANCH   9  10
ENDBRANCH   1   9
BRANCH   5  16
HETATM   16  N   UNL     1      40.725 -16.221   1.691  1.00  0.00    -0.306 N 
HETATM   17  C   UNL     1      40.499 -14.870   1.481  1.00  0.00     0.259 C 
HETATM   18  O   UNL     1      40.780 -14.023   2.330  1.00  0.00    -0.267 OA
HETATM   19  H   UNL     1      40.470 -16.886   0.965  1.00  0.00     0.170 HD
BRANCH  17  20
HETATM   20  C   UNL     1      39.905 -14.486   0.197  1.00  0.00     0.063 A 
HETATM   21  C   UNL     1      38.665 -13.923  -0.046  1.00  0.00     0.091 A 
HETATM   22 CL   UNL     1      37.423 -13.497   1.075  1.00  0.00    -0.075 Cl
HETATM   23  S   UNL     1      38.341 -13.630  -1.690  1.00  0.00    -0.065 SA
HETATM   24  C   UNL     1      39.844 -14.255  -2.134  1.00  0.00     0.077 A 
HETATM   25 CL   UNL     1      40.297 -14.310  -3.787  1.00  0.00    -0.076 Cl
HETATM   26  C   UNL     1      40.588 -14.679  -1.065  1.00  0.00     0.050 A 
ENDBRANCH  17  20
ENDBRANCH   5  16
TORSDOF 6
ENDMDL
