MODEL 1
REMARK VINA RESULT:     -10.0      0.000      0.000
REMARK  7 active torsions:
REMARK  status: ('A' for Active; 'I' for Inactive)
REMARK    1  A    between atoms: C_4  and  C_5 
REMARK    2  A    between atoms: C_5  and  N_6 
REMARK    3  A    between atoms: N_6  and  C_7 
REMARK    4  A    between atoms: C_11  and  N_12 
REMARK       I    between atoms: N_12  and  C_13 
REMARK    5  A    between atoms: C_13  and  C_14 
REMARK    6  A    between atoms: C_17  and  C_18 
REMARK    7  A    between atoms: C_18  and  C_19 
ROOT
HETATM    1  N   UNL     1      43.412 -13.568   7.002  1.00  0.00    -0.323 N 
HETATM    2  C   UNL     1      44.563 -13.150   7.648  1.00  0.00     0.256 C 
HETATM    3  O   UNL     1      45.705 -13.506   7.381  1.00  0.00    -0.267 OA
HETATM    4  H   UNL     1      42.531 -13.198   7.328  1.00  0.00     0.169 HD
ENDROOT
BRANCH   1   5
HETATM    5  C   UNL     1      43.304 -14.552   5.995  1.00  0.00     0.036 A 
HETATM    6  C   UNL     1      43.018 -15.895   6.232  1.00  0.00     0.055 A 
HETATM    7  C   UNL     1      42.842 -16.777   5.158  1.00  0.00     0.057 A 
HETATM    8  C   UNL     1      42.936 -16.341   3.820  1.00  0.00     0.030 A 
HETATM    9 CL   UNL     1      42.431 -18.424   5.511  1.00  0.00    -0.082 Cl
HETATM   10  C   UNL     1      43.302 -15.008   3.603  1.00  0.00     0.027 A 
HETATM   11  C   UNL     1      43.464 -14.122   4.673  1.00  0.00     0.031 A 
BRANCH   8  12
HETATM   12  N   UNL     1      42.752 -17.238   2.749  1.00  0.00    -0.287 NA
HETATM   13  H   UNL     1      42.104 -16.843   2.063  1.00  0.00     0.128 HD
BRANCH  12  14
HETATM   14  C   UNL     1      43.954 -17.787   2.131  1.00  0.00     0.131 C 
BRANCH  14  15
HETATM   15  C   UNL     1      44.075 -19.259   2.443  1.00  0.00    -0.045 A 
HETATM   16  C   UNL     1      43.365 -20.200   1.679  1.00  0.00     0.008 A 
HETATM   17  C   UNL     1      43.482 -21.564   1.945  1.00  0.00     0.001 A 
HETATM   18  C   UNL     1      44.305 -22.003   2.980  1.00  0.00     0.000 A 
HETATM   19  C   UNL     1      45.005 -21.078   3.754  1.00  0.00     0.001 A 
HETATM   20  C   UNL     1      44.887 -19.711   3.492  1.00  0.00     0.008 A 
ENDBRANCH  14  15
ENDBRANCH  12  14
ENDBRANCH   8  12
ENDBRANCH   1   5
BRANCH   2  21
HETATM   21  C   UNL     1      44.365 -12.212   8.801  1.00  0.00     0.032 A 
HETATM   22  C   UNL     1      43.245 -11.383   8.939  1.00  0.00     0.017 A 
HETATM   23  C   UNL     1      43.097 -10.580  10.076  1.00  0.00     0.008 A 
HETATM   24  C   UNL     1      44.068 -10.578  11.085  1.00  0.00    -0.057 A 
HETATM   25  C   UNL     1      45.213 -11.365  10.918  1.00  0.00     0.008 A 
HETATM   26  C   UNL     1      45.358 -12.177   9.790  1.00  0.00     0.017 A 
BRANCH  24  27
HETATM   27  C   UNL     1      43.885  -9.746  12.336  1.00  0.00     0.053 C 
BRANCH  27  28
HETATM   28  C   UNL     1      42.497  -9.815  12.988  1.00  0.00     0.091 C 
HETATM   29  C   UNL     1      41.792  -8.483  12.953  1.00  0.00     0.229 C 
HETATM   30  O   UNL     1      41.471  -7.874  11.945  1.00  0.00    -0.273 OA
HETATM   31  N   UNL     1      41.610  -8.047  14.224  1.00  0.00    -0.297 N 
HETATM   32  C   UNL     1      42.054  -8.921  15.159  1.00  0.00     0.225 C 
HETATM   33  H   UNL     1      41.225  -7.143  14.449  1.00  0.00     0.171 HD
HETATM   34  O   UNL     1      42.054  -8.735  16.364  1.00  0.00    -0.273 OA
HETATM   35  C   UNL     1      42.492 -10.183  14.473  1.00  0.00     0.117 C 
ENDBRANCH  27  28
ENDBRANCH  24  27
ENDBRANCH   2  21
TORSDOF 7
ENDMDL
MODEL 2
REMARK VINA RESULT:      -9.6      3.656     11.903
REMARK  7 active torsions:
REMARK  status: ('A' for Active; 'I' for Inactive)
REMARK    1  A    between atoms: C_4  and  C_5 
REMARK    2  A    between atoms: C_5  and  N_6 
REMARK    3  A    between atoms: N_6  and  C_7 
REMARK    4  A    between atoms: C_11  and  N_12 
REMARK       I    between atoms: N_12  and  C_13 
REMARK    5  A    between atoms: C_13  and  C_14 
REMARK    6  A    between atoms: C_17  and  C_18 
REMARK    7  A    between atoms: C_18  and  C_19 
ROOT
HETATM    1  N   UNL     1      43.923 -14.387   6.090  1.00  0.00    -0.323 N 
HETATM    2  C   UNL     1      43.312 -14.381   4.847  1.00  0.00     0.256 C 
HETATM    3  O   UNL     1      42.796 -13.409   4.306  1.00  0.00    -0.267 OA
HETATM    4  H   UNL     1      44.306 -15.261   6.419  1.00  0.00     0.169 HD
ENDROOT
BRANCH   1   5
HETATM    5  C   UNL     1      43.982 -13.327   7.021  1.00  0.00     0.036 A 
HETATM    6  C   UNL     1      42.948 -12.420   7.250  1.00  0.00     0.055 A 
HETATM    7  C   UNL     1      43.069 -11.457   8.260  1.00  0.00     0.057 A 
HETATM    8  C   UNL     1      44.217 -11.380   9.075  1.00  0.00     0.030 A 
HETATM    9 CL   UNL     1      41.729 -10.392   8.538  1.00  0.00    -0.082 Cl
HETATM   10  C   UNL     1      45.275 -12.246   8.779  1.00  0.00     0.027 A 
HETATM   11  C   UNL     1      45.153 -13.218   7.780  1.00  0.00     0.031 A 
BRANCH   8  12
HETATM   12  N   UNL     1      44.323 -10.409  10.091  1.00  0.00    -0.287 NA
HETATM   13  H   UNL     1      43.512  -9.788  10.075  1.00  0.00     0.128 HD
BRANCH  12  14
HETATM   14  C   UNL     1      44.634 -10.888  11.434  1.00  0.00     0.131 C 
BRANCH  14  15
HETATM   15  C   UNL     1      43.494 -10.579  12.376  1.00  0.00    -0.045 A 
HETATM   16  C   UNL     1      42.313 -11.337  12.321  1.00  0.00     0.008 A 
HETATM   17  C   UNL     1      41.260 -11.073  13.196  1.00  0.00     0.001 A 
HETATM   18  C   UNL     1      41.373 -10.047  14.132  1.00  0.00     0.000 A 
HETATM   19  C   UNL     1      42.536  -9.279  14.187  1.00  0.00     0.001 A 
HETATM   20  C   UNL     1      43.590  -9.539  13.310  1.00  0.00     0.008 A 
ENDBRANCH  14  15
ENDBRANCH  12  14
ENDBRANCH   8  12
ENDBRANCH   1   5
BRANCH   2  21
HETATM   21  C   UNL     1      43.253 -15.701   4.138  1.00  0.00     0.032 A 
HETATM   22  C   UNL     1      43.647 -15.882   2.807  1.00  0.00     0.017 A 
HETATM   23  C   UNL     1      43.625 -17.157   2.231  1.00  0.00     0.008 A 
HETATM   24  C   UNL     1      43.197 -18.270   2.967  1.00  0.00    -0.057 A 
HETATM   25  C   UNL     1      42.751 -18.077   4.279  1.00  0.00     0.008 A 
HETATM   26  C   UNL     1      42.783 -16.806   4.861  1.00  0.00     0.017 A 
BRANCH  24  27
HETATM   27  C   UNL     1      43.217 -19.656   2.360  1.00  0.00     0.053 C 
BRANCH  27  28
HETATM   28  C   UNL     1      44.513 -20.455   2.563  1.00  0.00     0.091 C 
HETATM   29  C   UNL     1      44.326 -21.917   2.245  1.00  0.00     0.229 C 
HETATM   30  O   UNL     1      44.018 -22.375   1.157  1.00  0.00    -0.273 OA
HETATM   31  N   UNL     1      44.514 -22.641   3.376  1.00  0.00    -0.297 N 
HETATM   32  C   UNL     1      44.855 -21.885   4.447  1.00  0.00     0.225 C 
HETATM   33  H   UNL     1      44.368 -23.637   3.426  1.00  0.00     0.171 HD
HETATM   34  O   UNL     1      45.020 -22.294   5.583  1.00  0.00    -0.273 OA
HETATM   35  C   UNL     1      45.054 -20.467   3.993  1.00  0.00     0.117 C 
ENDBRANCH  27  28
ENDBRANCH  24  27
ENDBRANCH   2  21
TORSDOF 7
ENDMDL
MODEL 3
REMARK VINA RESULT:      -9.5      1.529      2.150
REMARK  7 active torsions:
REMARK  status: ('A' for Active; 'I' for Inactive)
REMARK    1  A    between atoms: C_4  and  C_5 
REMARK    2  A    between atoms: C_5  and  N_6 
REMARK    3  A    between atoms: N_6  and  C_7 
REMARK    4  A    between atoms: C_11  and  N_12 
REMARK       I    between atoms: N_12  and  C_13 
REMARK    5  A    between atoms: C_13  and  C_14 
REMARK    6  A    between atoms: C_17  and  C_18 
REMARK    7  A    between atoms: C_18  and  C_19 
ROOT
HETATM    1  N   UNL     1      43.157 -13.925   6.865  1.00  0.00    -0.323 N 
HETATM    2  C   UNL     1      44.355 -13.437   7.359  1.00  0.00     0.256 C 
HETATM    3  O   UNL     1      45.472 -13.722   6.943  1.00  0.00    -0.267 OA
HETATM    4  H   UNL     1      42.305 -13.608   7.305  1.00  0.00     0.169 HD
ENDROOT
BRANCH   1   5
HETATM    5  C   UNL     1      42.979 -14.913   5.872  1.00  0.00     0.036 A 
HETATM    6  C   UNL     1      42.929 -14.656   4.504  1.00  0.00     0.055 A 
HETATM    7  C   UNL     1      42.839 -15.717   3.592  1.00  0.00     0.057 A 
HETATM    8  C   UNL     1      42.808 -17.059   4.021  1.00  0.00     0.030 A 
HETATM    9 CL   UNL     1      42.839 -15.340   1.900  1.00  0.00    -0.082 Cl
HETATM   10  C   UNL     1      42.780 -17.294   5.399  1.00  0.00     0.027 A 
HETATM   11  C   UNL     1      42.883 -16.239   6.312  1.00  0.00     0.031 A 
BRANCH   8  12
HETATM   12  N   UNL     1      42.723 -18.116   3.092  1.00  0.00    -0.287 NA
HETATM   13  H   UNL     1      42.027 -17.904   2.375  1.00  0.00     0.128 HD
BRANCH  12  14
HETATM   14  C   UNL     1      43.977 -18.603   2.527  1.00  0.00     0.131 C 
BRANCH  14  15
HETATM   15  C   UNL     1      44.262 -20.003   3.017  1.00  0.00    -0.045 A 
HETATM   16  C   UNL     1      44.679 -20.213   4.342  1.00  0.00     0.008 A 
HETATM   17  C   UNL     1      44.929 -21.502   4.811  1.00  0.00     0.001 A 
HETATM   18  C   UNL     1      44.770 -22.595   3.962  1.00  0.00     0.000 A 
HETATM   19  C   UNL     1      44.369 -22.399   2.641  1.00  0.00     0.001 A 
HETATM   20  C   UNL     1      44.121 -21.109   2.167  1.00  0.00     0.008 A 
ENDBRANCH  14  15
ENDBRANCH  12  14
ENDBRANCH   8  12
ENDBRANCH   1   5
BRANCH   2  21
HETATM   21  C   UNL     1      44.252 -12.512   8.535  1.00  0.00     0.032 A 
HETATM   22  C   UNL     1      43.424 -11.384   8.560  1.00  0.00     0.017 A 
HETATM   23  C   UNL     1      43.330 -10.602   9.718  1.00  0.00     0.008 A 
HETATM   24  C   UNL     1      44.070 -10.924  10.863  1.00  0.00    -0.057 A 
HETATM   25  C   UNL     1      44.939 -12.020  10.816  1.00  0.00     0.008 A 
HETATM   26  C   UNL     1      45.025 -12.809   9.666  1.00  0.00     0.017 A 
BRANCH  24  27
HETATM   27  C   UNL     1      43.933 -10.107  12.130  1.00  0.00     0.053 C 
BRANCH  27  28
HETATM   28  C   UNL     1      42.505  -9.676  12.496  1.00  0.00     0.091 C 
HETATM   29  C   UNL     1      42.271  -9.715  13.984  1.00  0.00     0.229 C 
HETATM   30  O   UNL     1      42.864  -9.047  14.816  1.00  0.00    -0.273 OA
HETATM   31  N   UNL     1      41.322 -10.646  14.257  1.00  0.00    -0.297 N 
HETATM   32  C   UNL     1      40.821 -11.240  13.148  1.00  0.00     0.225 C 
HETATM   33  H   UNL     1      41.053 -10.902  15.193  1.00  0.00     0.171 HD
HETATM   34  O   UNL     1      40.003 -12.144  13.133  1.00  0.00    -0.273 OA
HETATM   35  C   UNL     1      41.393 -10.563  11.935  1.00  0.00     0.117 C 
ENDBRANCH  27  28
ENDBRANCH  24  27
ENDBRANCH   2  21
TORSDOF 7
ENDMDL
MODEL 4
REMARK VINA RESULT:      -9.0      2.829      3.481
REMARK  7 active torsions:
REMARK  status: ('A' for Active; 'I' for Inactive)
REMARK    1  A    between atoms: C_4  and  C_5 
REMARK    2  A    between atoms: C_5  and  N_6 
REMARK    3  A    between atoms: N_6  and  C_7 
REMARK    4  A    between atoms: C_11  and  N_12 
REMARK       I    between atoms: N_12  and  C_13 
REMARK    5  A    between atoms: C_13  and  C_14 
REMARK    6  A    between atoms: C_17  and  C_18 
REMARK    7  A    between atoms: C_18  and  C_19 
ROOT
HETATM    1  N   UNL     1      41.034 -13.744   6.245  1.00  0.00    -0.323 N 
HETATM    2  C   UNL     1      40.039 -12.782   6.304  1.00  0.00     0.256 C 
HETATM    3  O   UNL     1      39.076 -12.699   5.550  1.00  0.00    -0.267 OA
HETATM    4  H   UNL     1      41.775 -13.693   6.927  1.00  0.00     0.169 HD
ENDROOT
BRANCH   1   5
HETATM    5  C   UNL     1      41.202 -14.743   5.261  1.00  0.00     0.036 A 
HETATM    6  C   UNL     1      41.322 -14.493   3.896  1.00  0.00     0.055 A 
HETATM    7  C   UNL     1      41.577 -15.546   3.007  1.00  0.00     0.057 A 
HETATM    8  C   UNL     1      41.729 -16.873   3.458  1.00  0.00     0.030 A 
HETATM    9 CL   UNL     1      41.774 -15.168   1.327  1.00  0.00    -0.082 Cl
HETATM   10  C   UNL     1      41.527 -17.116   4.821  1.00  0.00     0.027 A 
HETATM   11  C   UNL     1      41.286 -16.065   5.713  1.00  0.00     0.031 A 
BRANCH   8  12
HETATM   12  N   UNL     1      41.991 -17.922   2.554  1.00  0.00    -0.287 NA
HETATM   13  H   UNL     1      41.382 -17.847   1.737  1.00  0.00     0.128 HD
BRANCH  12  14
HETATM   14  C   UNL     1      43.385 -18.153   2.193  1.00  0.00     0.131 C 
BRANCH  14  15
HETATM   15  C   UNL     1      43.821 -19.527   2.643  1.00  0.00    -0.045 A 
HETATM   16  C   UNL     1      44.403 -19.700   3.909  1.00  0.00     0.008 A 
HETATM   17  C   UNL     1      44.795 -20.966   4.343  1.00  0.00     0.001 A 
HETATM   18  C   UNL     1      44.613 -22.072   3.516  1.00  0.00     0.000 A 
HETATM   19  C   UNL     1      44.048 -21.911   2.251  1.00  0.00     0.001 A 
HETATM   20  C   UNL     1      43.659 -20.644   1.813  1.00  0.00     0.008 A 
ENDBRANCH  14  15
ENDBRANCH  12  14
ENDBRANCH   8  12
ENDBRANCH   1   5
BRANCH   2  21
HETATM   21  C   UNL     1      40.200 -11.735   7.366  1.00  0.00     0.032 A 
HETATM   22  C   UNL     1      39.263 -11.514   8.381  1.00  0.00     0.017 A 
HETATM   23  C   UNL     1      39.512 -10.562   9.377  1.00  0.00     0.008 A 
HETATM   24  C   UNL     1      40.691  -9.807   9.369  1.00  0.00    -0.057 A 
HETATM   25  C   UNL     1      41.601  -9.991   8.321  1.00  0.00     0.008 A 
HETATM   26  C   UNL     1      41.360 -10.949   7.333  1.00  0.00     0.017 A 
BRANCH  24  27
HETATM   27  C   UNL     1      40.982  -8.812  10.471  1.00  0.00     0.053 C 
BRANCH  27  28
HETATM   28  C   UNL     1      41.408  -9.412  11.819  1.00  0.00     0.091 C 
HETATM   29  C   UNL     1      42.404 -10.531  11.645  1.00  0.00     0.229 C 
HETATM   30  O   UNL     1      43.516 -10.424  11.154  1.00  0.00    -0.273 OA
HETATM   31  N   UNL     1      41.849 -11.687  12.086  1.00  0.00    -0.297 N 
HETATM   32  C   UNL     1      40.603 -11.525  12.592  1.00  0.00     0.225 C 
HETATM   33  H   UNL     1      42.300 -12.584  12.001  1.00  0.00     0.171 HD
HETATM   34  O   UNL     1      39.878 -12.418  12.996  1.00  0.00    -0.273 OA
HETATM   35  C   UNL     1      40.283 -10.058  12.629  1.00  0.00     0.117 C 
ENDBRANCH  27  28
ENDBRANCH  24  27
ENDBRANCH   2  21
TORSDOF 7
ENDMDL
MODEL 5
REMARK VINA RESULT:      -8.7      2.185      2.520
REMARK  7 active torsions:
REMARK  status: ('A' for Active; 'I' for Inactive)
REMARK    1  A    between atoms: C_4  and  C_5 
REMARK    2  A    between atoms: C_5  and  N_6 
REMARK    3  A    between atoms: N_6  and  C_7 
REMARK    4  A    between atoms: C_11  and  N_12 
REMARK       I    between atoms: N_12  and  C_13 
REMARK    5  A    between atoms: C_13  and  C_14 
REMARK    6  A    between atoms: C_17  and  C_18 
REMARK    7  A    between atoms: C_18  and  C_19 
ROOT
HETATM    1  N   UNL     1      41.638 -12.818   6.600  1.00  0.00    -0.323 N 
HETATM    2  C   UNL     1      41.645 -11.435   6.538  1.00  0.00     0.256 C 
HETATM    3  O   UNL     1      41.644 -10.763   5.513  1.00  0.00    -0.267 OA
HETATM    4  H   UNL     1      41.644 -13.246   7.514  1.00  0.00     0.169 HD
ENDROOT
BRANCH   1   5
HETATM    5  C   UNL     1      41.736 -13.725   5.522  1.00  0.00     0.036 A 
HETATM    6  C   UNL     1      40.705 -13.996   4.625  1.00  0.00     0.055 A 
HETATM    7  C   UNL     1      40.929 -14.845   3.533  1.00  0.00     0.057 A 
HETATM    8  C   UNL     1      42.188 -15.435   3.301  1.00  0.00     0.030 A 
HETATM    9 CL   UNL     1      39.626 -15.101   2.417  1.00  0.00    -0.082 Cl
HETATM   10  C   UNL     1      43.187 -15.215   4.254  1.00  0.00     0.027 A 
HETATM   11  C   UNL     1      42.971 -14.357   5.339  1.00  0.00     0.031 A 
BRANCH   8  12
HETATM   12  N   UNL     1      42.400 -16.283   2.195  1.00  0.00    -0.287 NA
HETATM   13  H   UNL     1      43.394 -16.315   1.958  1.00  0.00     0.128 HD
BRANCH  12  14
HETATM   14  C   UNL     1      41.796 -17.609   2.251  1.00  0.00     0.131 C 
BRANCH  14  15
HETATM   15  C   UNL     1      42.815 -18.629   2.701  1.00  0.00    -0.045 A 
HETATM   16  C   UNL     1      43.250 -19.626   1.813  1.00  0.00     0.008 A 
HETATM   17  C   UNL     1      44.203 -20.564   2.210  1.00  0.00     0.001 A 
HETATM   18  C   UNL     1      44.728 -20.518   3.500  1.00  0.00     0.000 A 
HETATM   19  C   UNL     1      44.294 -19.542   4.395  1.00  0.00     0.001 A 
HETATM   20  C   UNL     1      43.337 -18.604   4.001  1.00  0.00     0.008 A 
ENDBRANCH  14  15
ENDBRANCH  12  14
ENDBRANCH   8  12
ENDBRANCH   1   5
BRANCH   2  21
HETATM   21  C   UNL     1      41.702 -10.719   7.855  1.00  0.00     0.032 A 
HETATM   22  C   UNL     1      40.708  -9.839   8.300  1.00  0.00     0.017 A 
HETATM   23  C   UNL     1      40.797  -9.257   9.570  1.00  0.00     0.008 A 
HETATM   24  C   UNL     1      41.884  -9.530  10.410  1.00  0.00    -0.057 A 
HETATM   25  C   UNL     1      42.904 -10.366   9.940  1.00  0.00     0.008 A 
HETATM   26  C   UNL     1      42.811 -10.958   8.678  1.00  0.00     0.017 A 
BRANCH  24  27
HETATM   27  C   UNL     1      41.957  -8.938  11.800  1.00  0.00     0.053 C 
BRANCH  27  28
HETATM   28  C   UNL     1      42.590  -9.833  12.876  1.00  0.00     0.091 C 
HETATM   29  C   UNL     1      41.567 -10.716  13.544  1.00  0.00     0.229 C 
HETATM   30  O   UNL     1      40.895 -11.572  12.991  1.00  0.00    -0.273 OA
HETATM   31  N   UNL     1      41.482 -10.377  14.855  1.00  0.00    -0.297 N 
HETATM   32  C   UNL     1      42.346  -9.398  15.213  1.00  0.00     0.225 C 
HETATM   33  H   UNL     1      40.809 -10.781  15.488  1.00  0.00     0.171 HD
HETATM   34  O   UNL     1      42.421  -8.883  16.315  1.00  0.00    -0.273 OA
HETATM   35  C   UNL     1      43.238  -9.090  14.044  1.00  0.00     0.117 C 
ENDBRANCH  27  28
ENDBRANCH  24  27
ENDBRANCH   2  21
TORSDOF 7
ENDMDL
MODEL 6
REMARK VINA RESULT:      -8.7      8.214     12.648
REMARK  7 active torsions:
REMARK  status: ('A' for Active; 'I' for Inactive)
REMARK    1  A    between atoms: C_4  and  C_5 
REMARK    2  A    between atoms: C_5  and  N_6 
REMARK    3  A    between atoms: N_6  and  C_7 
REMARK    4  A    between atoms: C_11  and  N_12 
REMARK       I    between atoms: N_12  and  C_13 
REMARK    5  A    between atoms: C_13  and  C_14 
REMARK    6  A    between atoms: C_17  and  C_18 
REMARK    7  A    between atoms: C_18  and  C_19 
ROOT
HETATM    1  N   UNL     1      39.875 -15.377   0.378  1.00  0.00    -0.323 N 
HETATM    2  C   UNL     1      40.320 -14.373  -0.466  1.00  0.00     0.256 C 
HETATM    3  O   UNL     1      41.459 -13.923  -0.508  1.00  0.00    -0.267 OA
HETATM    4  H   UNL     1      38.907 -15.651   0.311  1.00  0.00     0.169 HD
ENDROOT
BRANCH   1   5
HETATM    5  C   UNL     1      40.597 -16.002   1.419  1.00  0.00     0.036 A 
HETATM    6  C   UNL     1      40.524 -15.633   2.761  1.00  0.00     0.055 A 
HETATM    7  C   UNL     1      41.209 -16.375   3.732  1.00  0.00     0.057 A 
HETATM    8  C   UNL     1      41.975 -17.508   3.392  1.00  0.00     0.030 A 
HETATM    9 CL   UNL     1      41.037 -15.904   5.392  1.00  0.00    -0.082 Cl
HETATM   10  C   UNL     1      42.100 -17.817   2.034  1.00  0.00     0.027 A 
HETATM   11  C   UNL     1      41.406 -17.087   1.062  1.00  0.00     0.031 A 
BRANCH   8  12
HETATM   12  N   UNL     1      42.655 -18.249   4.381  1.00  0.00    -0.287 NA
HETATM   13  H   UNL     1      42.134 -19.097   4.610  1.00  0.00     0.128 HD
BRANCH  12  14
HETATM   14  C   UNL     1      44.073 -18.507   4.155  1.00  0.00     0.131 C 
BRANCH  14  15
HETATM   15  C   UNL     1      44.311 -19.986   3.966  1.00  0.00    -0.045 A 
HETATM   16  C   UNL     1      44.660 -20.788   5.065  1.00  0.00     0.008 A 
HETATM   17  C   UNL     1      44.866 -22.158   4.907  1.00  0.00     0.001 A 
HETATM   18  C   UNL     1      44.730 -22.741   3.649  1.00  0.00     0.000 A 
HETATM   19  C   UNL     1      44.396 -21.954   2.548  1.00  0.00     0.001 A 
HETATM   20  C   UNL     1      44.193 -20.581   2.702  1.00  0.00     0.008 A 
ENDBRANCH  14  15
ENDBRANCH  12  14
ENDBRANCH   8  12
ENDBRANCH   1   5
BRANCH   2  21
HETATM   21  C   UNL     1      39.286 -13.771  -1.371  1.00  0.00     0.032 A 
HETATM   22  C   UNL     1      38.527 -12.645  -1.034  1.00  0.00     0.017 A 
HETATM   23  C   UNL     1      37.625 -12.099  -1.956  1.00  0.00     0.008 A 
HETATM   24  C   UNL     1      37.456 -12.676  -3.221  1.00  0.00    -0.057 A 
HETATM   25  C   UNL     1      38.176 -13.834  -3.534  1.00  0.00     0.008 A 
HETATM   26  C   UNL     1      39.085 -14.373  -2.621  1.00  0.00     0.017 A 
BRANCH  24  27
HETATM   27  C   UNL     1      36.517 -12.059  -4.235  1.00  0.00     0.053 C 
BRANCH  27  28
HETATM   28  C   UNL     1      35.177 -12.782  -4.432  1.00  0.00     0.091 C 
HETATM   29  C   UNL     1      35.115 -13.500  -5.756  1.00  0.00     0.229 C 
HETATM   30  O   UNL     1      35.848 -14.411  -6.107  1.00  0.00    -0.273 OA
HETATM   31  N   UNL     1      34.140 -12.941  -6.515  1.00  0.00    -0.297 N 
HETATM   32  C   UNL     1      33.470 -11.949  -5.881  1.00  0.00     0.225 C 
HETATM   33  H   UNL     1      33.962 -13.206  -7.471  1.00  0.00     0.171 HD
HETATM   34  O   UNL     1      32.592 -11.258  -6.370  1.00  0.00    -0.273 OA
HETATM   35  C   UNL     1      33.945 -11.877  -4.458  1.00  0.00     0.117 C 
ENDBRANCH  27  28
ENDBRANCH  24  27
ENDBRANCH   2  21
TORSDOF 7
ENDMDL
MODEL 7
REMARK VINA RESULT:      -8.6      3.754     11.730
REMARK  7 active torsions:
REMARK  status: ('A' for Active; 'I' for Inactive)
REMARK    1  A    between atoms: C_4  and  C_5 
REMARK    2  A    between atoms: C_5  and  N_6 
REMARK    3  A    between atoms: N_6  and  C_7 
REMARK    4  A    between atoms: C_11  and  N_12 
REMARK       I    between atoms: N_12  and  C_13 
REMARK    5  A    between atoms: C_13  and  C_14 
REMARK    6  A    between atoms: C_17  and  C_18 
REMARK    7  A    between atoms: C_18  and  C_19 
ROOT
HETATM    1  N   UNL     1      42.547 -14.052   5.432  1.00  0.00    -0.323 N 
HETATM    2  C   UNL     1      41.895 -15.269   5.534  1.00  0.00     0.256 C 
HETATM    3  O   UNL     1      41.040 -15.558   6.364  1.00  0.00    -0.267 OA
HETATM    4  H   UNL     1      43.235 -13.949   4.701  1.00  0.00     0.169 HD
ENDROOT
BRANCH   1   5
HETATM    5  C   UNL     1      42.445 -12.949   6.309  1.00  0.00     0.036 A 
HETATM    6  C   UNL     1      43.308 -12.709   7.377  1.00  0.00     0.055 A 
HETATM    7  C   UNL     1      43.179 -11.538   8.135  1.00  0.00     0.057 A 
HETATM    8  C   UNL     1      42.195 -10.572   7.843  1.00  0.00     0.030 A 
HETATM    9 CL   UNL     1      44.316 -11.266   9.416  1.00  0.00    -0.082 Cl
HETATM   10  C   UNL     1      41.289 -10.867   6.818  1.00  0.00     0.027 A 
HETATM   11  C   UNL     1      41.423 -12.029   6.050  1.00  0.00     0.031 A 
BRANCH   8  12
HETATM   12  N   UNL     1      42.080  -9.396   8.611  1.00  0.00    -0.287 NA
HETATM   13  H   UNL     1      42.045  -8.576   8.001  1.00  0.00     0.128 HD
BRANCH  12  14
HETATM   14  C   UNL     1      41.044  -9.375   9.638  1.00  0.00     0.131 C 
BRANCH  14  15
HETATM   15  C   UNL     1      41.629  -9.754  10.977  1.00  0.00    -0.045 A 
HETATM   16  C   UNL     1      41.263 -10.966  11.586  1.00  0.00     0.008 A 
HETATM   17  C   UNL     1      41.808 -11.335  12.815  1.00  0.00     0.001 A 
HETATM   18  C   UNL     1      42.721 -10.497  13.451  1.00  0.00     0.000 A 
HETATM   19  C   UNL     1      43.082  -9.286  12.864  1.00  0.00     0.001 A 
HETATM   20  C   UNL     1      42.535  -8.911  11.635  1.00  0.00     0.008 A 
ENDBRANCH  14  15
ENDBRANCH  12  14
ENDBRANCH   8  12
ENDBRANCH   1   5
BRANCH   2  21
HETATM   21  C   UNL     1      42.320 -16.325   4.558  1.00  0.00     0.032 A 
HETATM   22  C   UNL     1      43.217 -16.091   3.509  1.00  0.00     0.017 A 
HETATM   23  C   UNL     1      43.619 -17.142   2.676  1.00  0.00     0.008 A 
HETATM   24  C   UNL     1      43.122 -18.438   2.866  1.00  0.00    -0.057 A 
HETATM   25  C   UNL     1      42.183 -18.657   3.879  1.00  0.00     0.008 A 
HETATM   26  C   UNL     1      41.790 -17.612   4.720  1.00  0.00     0.017 A 
BRANCH  24  27
HETATM   27  C   UNL     1      43.592 -19.584   1.995  1.00  0.00     0.053 C 
BRANCH  27  28
HETATM   28  C   UNL     1      44.769 -20.403   2.545  1.00  0.00     0.091 C 
HETATM   29  C   UNL     1      44.535 -21.885   2.405  1.00  0.00     0.229 C 
HETATM   30  O   UNL     1      44.393 -22.487   1.353  1.00  0.00    -0.273 OA
HETATM   31  N   UNL     1      44.465 -22.439   3.642  1.00  0.00    -0.297 N 
HETATM   32  C   UNL     1      44.665 -21.547   4.641  1.00  0.00     0.225 C 
HETATM   33  H   UNL     1      44.240 -23.408   3.801  1.00  0.00     0.171 HD
HETATM   34  O   UNL     1      44.596 -21.787   5.834  1.00  0.00    -0.273 OA
HETATM   35  C   UNL     1      45.045 -20.224   4.039  1.00  0.00     0.117 C 
ENDBRANCH  27  28
ENDBRANCH  24  27
ENDBRANCH   2  21
TORSDOF 7
ENDMDL
MODEL 8
REMARK VINA RESULT:      -8.3      7.228     10.923
REMARK  7 active torsions:
REMARK  status: ('A' for Active; 'I' for Inactive)
REMARK    1  A    between atoms: C_4  and  C_5 
REMARK    2  A    between atoms: C_5  and  N_6 
REMARK    3  A    between atoms: N_6  and  C_7 
REMARK    4  A    between atoms: C_11  and  N_12 
REMARK       I    between atoms: N_12  and  C_13 
REMARK    5  A    between atoms: C_13  and  C_14 
REMARK    6  A    between atoms: C_17  and  C_18 
REMARK    7  A    between atoms: C_18  and  C_19 
ROOT
HETATM    1  N   UNL     1      41.331 -15.932  -0.338  1.00  0.00    -0.323 N 
HETATM    2  C   UNL     1      41.962 -15.664   0.865  1.00  0.00     0.256 C 
HETATM    3  O   UNL     1      42.098 -14.556   1.372  1.00  0.00    -0.267 OA
HETATM    4  H   UNL     1      41.292 -16.894  -0.642  1.00  0.00     0.169 HD
ENDROOT
BRANCH   1   5
HETATM    5  C   UNL     1      40.819 -14.998  -1.264  1.00  0.00     0.036 A 
HETATM    6  C   UNL     1      39.862 -14.031  -0.962  1.00  0.00     0.055 A 
HETATM    7  C   UNL     1      39.484 -13.090  -1.929  1.00  0.00     0.057 A 
HETATM    8  C   UNL     1      40.058 -13.081  -3.216  1.00  0.00     0.030 A 
HETATM    9 CL   UNL     1      38.330 -11.876  -1.479  1.00  0.00    -0.082 Cl
HETATM   10  C   UNL     1      40.958 -14.105  -3.526  1.00  0.00     0.027 A 
HETATM   11  C   UNL     1      41.348 -15.039  -2.560  1.00  0.00     0.031 A 
BRANCH   8  12
HETATM   12  N   UNL     1      39.672 -12.124  -4.177  1.00  0.00    -0.287 NA
HETATM   13  H   UNL     1      38.839 -11.623  -3.864  1.00  0.00     0.128 HD
BRANCH  12  14
HETATM   14  C   UNL     1      40.711 -11.228  -4.673  1.00  0.00     0.131 C 
BRANCH  14  15
HETATM   15  C   UNL     1      41.284 -10.414  -3.537  1.00  0.00    -0.045 A 
HETATM   16  C   UNL     1      40.514  -9.404  -2.939  1.00  0.00     0.008 A 
HETATM   17  C   UNL     1      41.026  -8.656  -1.878  1.00  0.00     0.001 A 
HETATM   18  C   UNL     1      42.312  -8.907  -1.407  1.00  0.00     0.000 A 
HETATM   19  C   UNL     1      43.091  -9.899  -2.001  1.00  0.00     0.001 A 
HETATM   20  C   UNL     1      42.583 -10.647  -3.065  1.00  0.00     0.008 A 
ENDBRANCH  14  15
ENDBRANCH  12  14
ENDBRANCH   8  12
ENDBRANCH   1   5
BRANCH   2  21
HETATM   21  C   UNL     1      42.560 -16.844   1.571  1.00  0.00     0.032 A 
HETATM   22  C   UNL     1      43.775 -17.432   1.199  1.00  0.00     0.017 A 
HETATM   23  C   UNL     1      44.304 -18.492   1.945  1.00  0.00     0.008 A 
HETATM   24  C   UNL     1      43.625 -18.991   3.064  1.00  0.00    -0.057 A 
HETATM   25  C   UNL     1      42.385 -18.438   3.400  1.00  0.00     0.008 A 
HETATM   26  C   UNL     1      41.860 -17.372   2.664  1.00  0.00     0.017 A 
BRANCH  24  27
HETATM   27  C   UNL     1      44.220 -20.105   3.898  1.00  0.00     0.053 C 
BRANCH  27  28
HETATM   28  C   UNL     1      44.808 -19.684   5.253  1.00  0.00     0.091 C 
HETATM   29  C   UNL     1      43.990 -20.208   6.407  1.00  0.00     0.229 C 
HETATM   30  O   UNL     1      43.799 -21.385   6.668  1.00  0.00    -0.273 OA
HETATM   31  N   UNL     1      43.464 -19.158   7.086  1.00  0.00    -0.297 N 
HETATM   32  C   UNL     1      43.840 -17.956   6.589  1.00  0.00     0.225 C 
HETATM   33  H   UNL     1      42.820 -19.264   7.854  1.00  0.00     0.171 HD
HETATM   34  O   UNL     1      43.457 -16.870   6.989  1.00  0.00    -0.273 OA
HETATM   35  C   UNL     1      44.854 -18.177   5.504  1.00  0.00     0.117 C 
ENDBRANCH  27  28
ENDBRANCH  24  27
ENDBRANCH   2  21
TORSDOF 7
ENDMDL
MODEL 9
REMARK VINA RESULT:      -8.3      8.644     13.055
REMARK  7 active torsions:
REMARK  status: ('A' for Active; 'I' for Inactive)
REMARK    1  A    between atoms: C_4  and  C_5 
REMARK    2  A    between atoms: C_5  and  N_6 
REMARK    3  A    between atoms: N_6  and  C_7 
REMARK    4  A    between atoms: C_11  and  N_12 
REMARK       I    between atoms: N_12  and  C_13 
REMARK    5  A    between atoms: C_13  and  C_14 
REMARK    6  A    between atoms: C_17  and  C_18 
REMARK    7  A    between atoms: C_18  and  C_19 
ROOT
HETATM    1  N   UNL     1      39.960 -14.807  -0.021  1.00  0.00    -0.323 N 
HETATM    2  C   UNL     1      38.712 -14.218   0.096  1.00  0.00     0.256 C 
HETATM    3  O   UNL     1      38.050 -14.138   1.124  1.00  0.00    -0.267 OA
HETATM    4  H   UNL     1      40.394 -14.807  -0.932  1.00  0.00     0.169 HD
ENDROOT
BRANCH   1   5
HETATM    5  C   UNL     1      40.669 -15.516   0.974  1.00  0.00     0.036 A 
HETATM    6  C   UNL     1      40.938 -15.027   2.250  1.00  0.00     0.055 A 
HETATM    7  C   UNL     1      41.571 -15.843   3.197  1.00  0.00     0.057 A 
HETATM    8  C   UNL     1      41.941 -17.170   2.899  1.00  0.00     0.030 A 
HETATM    9 CL   UNL     1      41.829 -15.201   4.787  1.00  0.00    -0.082 Cl
HETATM   10  C   UNL     1      41.735 -17.617   1.590  1.00  0.00     0.027 A 
HETATM   11  C   UNL     1      41.091 -16.810   0.646  1.00  0.00     0.031 A 
BRANCH   8  12
HETATM   12  N   UNL     1      42.572 -17.983   3.863  1.00  0.00    -0.287 NA
HETATM   13  H   UNL     1      42.018 -18.824   4.036  1.00  0.00     0.128 HD
BRANCH  12  14
HETATM   14  C   UNL     1      43.986 -18.277   3.657  1.00  0.00     0.131 C 
BRANCH  14  15
HETATM   15  C   UNL     1      44.202 -19.769   3.573  1.00  0.00    -0.045 A 
HETATM   16  C   UNL     1      43.949 -20.448   2.369  1.00  0.00     0.008 A 
HETATM   17  C   UNL     1      44.160 -21.824   2.273  1.00  0.00     0.001 A 
HETATM   18  C   UNL     1      44.622 -22.536   3.378  1.00  0.00     0.000 A 
HETATM   19  C   UNL     1      44.864 -21.875   4.581  1.00  0.00     0.001 A 
HETATM   20  C   UNL     1      44.650 -20.499   4.682  1.00  0.00     0.008 A 
ENDBRANCH  14  15
ENDBRANCH  12  14
ENDBRANCH   8  12
ENDBRANCH   1   5
BRANCH   2  21
HETATM   21  C   UNL     1      38.121 -13.678  -1.172  1.00  0.00     0.032 A 
HETATM   22  C   UNL     1      38.103 -14.385  -2.380  1.00  0.00     0.017 A 
HETATM   23  C   UNL     1      37.475 -13.842  -3.507  1.00  0.00     0.008 A 
HETATM   24  C   UNL     1      36.868 -12.580  -3.453  1.00  0.00    -0.057 A 
HETATM   25  C   UNL     1      36.937 -11.852  -2.260  1.00  0.00     0.008 A 
HETATM   26  C   UNL     1      37.552 -12.397  -1.130  1.00  0.00     0.017 A 
BRANCH  24  27
HETATM   27  C   UNL     1      36.149 -12.014  -4.658  1.00  0.00     0.053 C 
BRANCH  27  28
HETATM   28  C   UNL     1      34.859 -12.739  -5.068  1.00  0.00     0.091 C 
HETATM   29  C   UNL     1      35.025 -13.493  -6.363  1.00  0.00     0.229 C 
HETATM   30  O   UNL     1      35.802 -14.415  -6.554  1.00  0.00    -0.273 OA
HETATM   31  N   UNL     1      34.203 -12.953  -7.296  1.00  0.00    -0.297 N 
HETATM   32  C   UNL     1      33.440 -11.941  -6.817  1.00  0.00     0.225 C 
HETATM   33  H   UNL     1      34.195 -13.244  -8.261  1.00  0.00     0.171 HD
HETATM   34  O   UNL     1      32.667 -11.262  -7.471  1.00  0.00    -0.273 OA
HETATM   35  C   UNL     1      33.657 -11.831  -5.335  1.00  0.00     0.117 C 
ENDBRANCH  27  28
ENDBRANCH  24  27
ENDBRANCH   2  21
TORSDOF 7
ENDMDL
MODEL 10
REMARK VINA RESULT:      -8.2      2.663      3.443
REMARK  7 active torsions:
REMARK  status: ('A' for Active; 'I' for Inactive)
REMARK    1  A    between atoms: C_4  and  C_5 
REMARK    2  A    between atoms: C_5  and  N_6 
REMARK    3  A    between atoms: N_6  and  C_7 
REMARK    4  A    between atoms: C_11  and  N_12 
REMARK       I    between atoms: N_12  and  C_13 
REMARK    5  A    between atoms: C_13  and  C_14 
REMARK    6  A    between atoms: C_17  and  C_18 
REMARK    7  A    between atoms: C_18  and  C_19 
ROOT
HETATM    1  N   UNL     1      40.707 -12.404   6.809  1.00  0.00    -0.323 N 
HETATM    2  C   UNL     1      41.304 -11.155   6.761  1.00  0.00     0.256 C 
HETATM    3  O   UNL     1      41.734 -10.604   5.754  1.00  0.00    -0.267 OA
HETATM    4  H   UNL     1      40.400 -12.742   7.709  1.00  0.00     0.169 HD
ENDROOT
BRANCH   1   5
HETATM    5  C   UNL     1      40.569 -13.329   5.751  1.00  0.00     0.036 A 
HETATM    6  C   UNL     1      40.957 -14.666   5.818  1.00  0.00     0.055 A 
HETATM    7  C   UNL     1      40.696 -15.528   4.744  1.00  0.00     0.057 A 
HETATM    8  C   UNL     1      40.032 -15.083   3.583  1.00  0.00     0.030 A 
HETATM    9 CL   UNL     1      41.150 -17.194   4.906  1.00  0.00    -0.082 Cl
HETATM   10  C   UNL     1      39.721 -13.722   3.502  1.00  0.00     0.027 A 
HETATM   11  C   UNL     1      39.968 -12.861   4.577  1.00  0.00     0.031 A 
BRANCH   8  12
HETATM   12  N   UNL     1      39.771 -15.962   2.513  1.00  0.00    -0.287 NA
HETATM   13  H   UNL     1      38.781 -15.928   2.260  1.00  0.00     0.128 HD
BRANCH  12  14
HETATM   14  C   UNL     1      40.649 -15.872   1.352  1.00  0.00     0.131 C 
BRANCH  14  15
HETATM   15  C   UNL     1      41.842 -16.780   1.527  1.00  0.00    -0.045 A 
HETATM   16  C   UNL     1      41.657 -18.167   1.647  1.00  0.00     0.008 A 
HETATM   17  C   UNL     1      42.752 -19.019   1.792  1.00  0.00     0.001 A 
HETATM   18  C   UNL     1      44.042 -18.495   1.824  1.00  0.00     0.000 A 
HETATM   19  C   UNL     1      44.238 -17.118   1.719  1.00  0.00     0.001 A 
HETATM   20  C   UNL     1      43.144 -16.263   1.577  1.00  0.00     0.008 A 
ENDBRANCH  14  15
ENDBRANCH  12  14
ENDBRANCH   8  12
ENDBRANCH   1   5
BRANCH   2  21
HETATM   21  C   UNL     1      41.465 -10.454   8.076  1.00  0.00     0.032 A 
HETATM   22  C   UNL     1      42.511 -10.716   8.969  1.00  0.00     0.017 A 
HETATM   23  C   UNL     1      42.634  -9.975  10.150  1.00  0.00     0.008 A 
HETATM   24  C   UNL     1      41.709  -8.972  10.467  1.00  0.00    -0.057 A 
HETATM   25  C   UNL     1      40.633  -8.750   9.600  1.00  0.00     0.008 A 
HETATM   26  C   UNL     1      40.516  -9.480   8.415  1.00  0.00     0.017 A 
BRANCH  24  27
HETATM   27  C   UNL     1      41.868  -8.139  11.721  1.00  0.00     0.053 C 
BRANCH  27  28
HETATM   28  C   UNL     1      41.358  -8.781  13.019  1.00  0.00     0.091 C 
HETATM   29  C   UNL     1      42.404  -9.656  13.662  1.00  0.00     0.229 C 
HETATM   30  O   UNL     1      43.488  -9.280  14.078  1.00  0.00    -0.273 OA
HETATM   31  N   UNL     1      41.965 -10.939  13.665  1.00  0.00    -0.297 N 
HETATM   32  C   UNL     1      40.721 -11.080  13.148  1.00  0.00     0.225 C 
HETATM   33  H   UNL     1      42.527 -11.715  13.978  1.00  0.00     0.171 HD
HETATM   34  O   UNL     1      40.132 -12.136  12.990  1.00  0.00    -0.273 OA
HETATM   35  C   UNL     1      40.161  -9.718  12.856  1.00  0.00     0.117 C 
ENDBRANCH  27  28
ENDBRANCH  24  27
ENDBRANCH   2  21
TORSDOF 7
ENDMDL
