MODEL 1
REMARK VINA RESULT:      -8.9      0.000      0.000
REMARK  6 active torsions:
REMARK  status: ('A' for Active; 'I' for Inactive)
REMARK    1  A    between atoms: O_2  and  C_3 
REMARK    2  A    between atoms: C_4  and  C_5 
REMARK    3  A    between atoms: C_5  and  N_6 
REMARK       I    between atoms: N_6  and  C_7 
REMARK    4  A    between atoms: C_7  and  C_8 
REMARK    5  A    between atoms: C_8  and  O_9 
REMARK    6  A    between atoms: N_10  and  C_11 
ROOT
HETATM    1  C   UNL     1      41.254 -16.026   2.388  1.00  0.00     0.256 C 
HETATM    2  N   UNL     1      41.095 -15.216   3.612  1.00  0.00    -0.254 N 
HETATM    3  C   UNL     1      40.443 -13.992   3.574  1.00  0.00     0.330 C 
HETATM    4  O   UNL     1      40.095 -13.338   4.558  1.00  0.00    -0.246 OA
HETATM    5  N   UNL     1      40.123 -13.470   2.359  1.00  0.00    -0.308 N 
HETATM    6  C   UNL     1      40.393 -14.041   1.130  1.00  0.00     0.048 A 
HETATM    7  C   UNL     1      40.961 -15.304   1.087  1.00  0.00     0.034 A 
HETATM    8  C   UNL     1      40.076 -13.341  -0.037  1.00  0.00     0.030 A 
HETATM    9  C   UNL     1      40.336 -13.914  -1.280  1.00  0.00     0.002 A 
HETATM   10  C   UNL     1      40.898 -15.185  -1.349  1.00  0.00     0.001 A 
HETATM   11  C   UNL     1      41.199 -15.879  -0.176  1.00  0.00     0.015 A 
HETATM   12  H   UNL     1      39.679 -12.563   2.407  1.00  0.00     0.170 HD
ENDROOT
BRANCH   1  13
HETATM   13  C   UNL     1      42.741 -16.592   2.307  1.00  0.00     0.279 C 
HETATM   14  N   UNL     1      42.802 -17.978   2.389  1.00  0.00    -0.352 N 
HETATM   15  H   UNL     1      41.943 -18.454   2.651  1.00  0.00     0.162 HD
HETATM   16  O   UNL     1      43.736 -15.883   2.164  1.00  0.00    -0.268 OA
BRANCH  14  17
HETATM   17  C   UNL     1      44.056 -18.697   2.452  1.00  0.00     0.164 C 
BRANCH  17  18
HETATM   18  C   UNL     1      44.208 -19.590   3.666  1.00  0.00    -0.007 A 
HETATM   19  C   UNL     1      44.647 -20.917   3.477  1.00  0.00     0.076 A 
HETATM   20  C   UNL     1      44.782 -21.774   4.576  1.00  0.00     0.037 A 
HETATM   21  C   UNL     1      44.477 -21.326   5.861  1.00  0.00     0.003 A 
HETATM   22  C   UNL     1      44.045 -20.019   6.058  1.00  0.00     0.001 A 
HETATM   23  C   UNL     1      43.913 -19.156   4.970  1.00  0.00     0.011 A 
BRANCH  19  24
HETATM   24  O   UNL     1      44.937 -21.269   2.183  1.00  0.00    -0.355 OA
HETATM   25  C   UNL     1      43.959 -22.031   1.483  1.00  0.00     0.210 C 
ENDBRANCH  19  24
ENDBRANCH  17  18
ENDBRANCH  14  17
ENDBRANCH   1  13
BRANCH   1  26
HETATM   26  O   UNL     1      40.281 -17.074   2.458  1.00  0.00    -0.359 OA
HETATM   27  H   UNL     1      40.672 -17.695   3.098  1.00  0.00     0.213 HD
ENDBRANCH   1  26
BRANCH   2  28
HETATM   28  C   UNL     1      41.637 -15.700   4.869  1.00  0.00     0.043 A 
HETATM   29  C   UNL     1      41.000 -16.697   5.628  1.00  0.00     0.031 A 
HETATM   30  C   UNL     1      41.561 -17.177   6.820  1.00  0.00     0.026 A 
HETATM   31  C   UNL     1      42.775 -16.673   7.271  1.00  0.00     0.034 A 
HETATM   32 CL   UNL     1      43.465 -17.270   8.728  1.00  0.00    -0.084 Cl
HETATM   33  C   UNL     1      43.429 -15.691   6.542  1.00  0.00     0.026 A 
HETATM   34  C   UNL     1      42.864 -15.212   5.354  1.00  0.00     0.031 A 
ENDBRANCH   2  28
TORSDOF 6
ENDMDL
MODEL 2
REMARK VINA RESULT:      -8.9      0.957      1.669
REMARK  6 active torsions:
REMARK  status: ('A' for Active; 'I' for Inactive)
REMARK    1  A    between atoms: O_2  and  C_3 
REMARK    2  A    between atoms: C_4  and  C_5 
REMARK    3  A    between atoms: C_5  and  N_6 
REMARK       I    between atoms: N_6  and  C_7 
REMARK    4  A    between atoms: C_7  and  C_8 
REMARK    5  A    between atoms: C_8  and  O_9 
REMARK    6  A    between atoms: N_10  and  C_11 
ROOT
HETATM    1  C   UNL     1      41.231 -16.223   2.153  1.00  0.00     0.256 C 
HETATM    2  N   UNL     1      40.937 -15.441   3.370  1.00  0.00    -0.254 N 
HETATM    3  C   UNL     1      40.142 -14.305   3.309  1.00  0.00     0.330 C 
HETATM    4  O   UNL     1      39.686 -13.700   4.281  1.00  0.00    -0.246 OA
HETATM    5  N   UNL     1      39.802 -13.822   2.084  1.00  0.00    -0.308 N 
HETATM    6  C   UNL     1      40.179 -14.353   0.865  1.00  0.00     0.048 A 
HETATM    7  C   UNL     1      40.896 -15.538   0.842  1.00  0.00     0.034 A 
HETATM    8  C   UNL     1      39.818 -13.694  -0.313  1.00  0.00     0.030 A 
HETATM    9  C   UNL     1      40.185 -14.228  -1.546  1.00  0.00     0.002 A 
HETATM   10  C   UNL     1      40.899 -15.421  -1.595  1.00  0.00     0.001 A 
HETATM   11  C   UNL     1      41.243 -16.077  -0.411  1.00  0.00     0.015 A 
HETATM   12  H   UNL     1      39.250 -12.975   2.116  1.00  0.00     0.170 HD
ENDROOT
BRANCH   1  13
HETATM   13  C   UNL     1      42.778 -16.605   2.121  1.00  0.00     0.279 C 
HETATM   14  N   UNL     1      43.000 -17.976   2.086  1.00  0.00    -0.352 N 
HETATM   15  H   UNL     1      42.192 -18.569   2.248  1.00  0.00     0.162 HD
HETATM   16  O   UNL     1      43.688 -15.776   2.107  1.00  0.00    -0.268 OA
BRANCH  14  17
HETATM   17  C   UNL     1      44.326 -18.549   2.169  1.00  0.00     0.164 C 
BRANCH  17  18
HETATM   18  C   UNL     1      44.397 -19.860   2.925  1.00  0.00    -0.007 A 
HETATM   19  C   UNL     1      44.578 -19.825   4.324  1.00  0.00     0.076 A 
HETATM   20  C   UNL     1      44.666 -21.018   5.050  1.00  0.00     0.037 A 
HETATM   21  C   UNL     1      44.584 -22.249   4.397  1.00  0.00     0.003 A 
HETATM   22  C   UNL     1      44.404 -22.294   3.019  1.00  0.00     0.001 A 
HETATM   23  C   UNL     1      44.309 -21.110   2.288  1.00  0.00     0.011 A 
BRANCH  19  24
HETATM   24  O   UNL     1      44.636 -18.574   4.884  1.00  0.00    -0.355 OA
HETATM   25  C   UNL     1      45.451 -18.417   6.040  1.00  0.00     0.210 C 
ENDBRANCH  19  24
ENDBRANCH  17  18
ENDBRANCH  14  17
ENDBRANCH   1  13
BRANCH   1  26
HETATM   26  O   UNL     1      40.391 -17.381   2.193  1.00  0.00    -0.359 OA
HETATM   27  H   UNL     1      40.990 -18.077   2.515  1.00  0.00     0.213 HD
ENDBRANCH   1  26
BRANCH   2  28
HETATM   28  C   UNL     1      41.492 -15.859   4.644  1.00  0.00     0.043 A 
HETATM   29  C   UNL     1      41.081 -17.036   5.295  1.00  0.00     0.031 A 
HETATM   30  C   UNL     1      41.658 -17.441   6.506  1.00  0.00     0.026 A 
HETATM   31  C   UNL     1      42.663 -16.679   7.087  1.00  0.00     0.034 A 
HETATM   32 CL   UNL     1      43.377 -17.182   8.569  1.00  0.00    -0.084 Cl
HETATM   33  C   UNL     1      43.093 -15.514   6.469  1.00  0.00     0.026 A 
HETATM   34  C   UNL     1      42.512 -15.111   5.260  1.00  0.00     0.031 A 
ENDBRANCH   2  28
TORSDOF 6
ENDMDL
MODEL 3
REMARK VINA RESULT:      -8.8      2.470      6.615
REMARK  6 active torsions:
REMARK  status: ('A' for Active; 'I' for Inactive)
REMARK    1  A    between atoms: O_2  and  C_3 
REMARK    2  A    between atoms: C_4  and  C_5 
REMARK    3  A    between atoms: C_5  and  N_6 
REMARK       I    between atoms: N_6  and  C_7 
REMARK    4  A    between atoms: C_7  and  C_8 
REMARK    5  A    between atoms: C_8  and  O_9 
REMARK    6  A    between atoms: N_10  and  C_11 
ROOT
HETATM    1  C   UNL     1      43.620 -17.889   2.709  1.00  0.00     0.256 C 
HETATM    2  N   UNL     1      43.688 -17.175   3.999  1.00  0.00    -0.254 N 
HETATM    3  C   UNL     1      44.231 -17.784   5.121  1.00  0.00     0.330 C 
HETATM    4  O   UNL     1      44.505 -17.216   6.179  1.00  0.00    -0.246 OA
HETATM    5  N   UNL     1      44.523 -19.111   5.055  1.00  0.00    -0.308 N 
HETATM    6  C   UNL     1      44.323 -19.937   3.966  1.00  0.00     0.048 A 
HETATM    7  C   UNL     1      43.869 -19.383   2.779  1.00  0.00     0.034 A 
HETATM    8  C   UNL     1      44.596 -21.302   4.079  1.00  0.00     0.030 A 
HETATM    9  C   UNL     1      44.407 -22.139   2.981  1.00  0.00     0.002 A 
HETATM   10  C   UNL     1      43.960 -21.606   1.777  1.00  0.00     0.001 A 
HETATM   11  C   UNL     1      43.702 -20.238   1.673  1.00  0.00     0.015 A 
HETATM   12  H   UNL     1      44.885 -19.494   5.918  1.00  0.00     0.170 HD
ENDROOT
BRANCH   1  13
HETATM   13  C   UNL     1      42.190 -17.664   2.044  1.00  0.00     0.279 C 
HETATM   14  N   UNL     1      42.237 -16.862   0.910  1.00  0.00    -0.352 N 
HETATM   15  H   UNL     1      43.115 -16.385   0.729  1.00  0.00     0.162 HD
HETATM   16  O   UNL     1      41.150 -18.164   2.472  1.00  0.00    -0.268 OA
BRANCH  14  17
HETATM   17  C   UNL     1      41.043 -16.433   0.215  1.00  0.00     0.164 C 
BRANCH  17  18
HETATM   18  C   UNL     1      40.444 -15.141   0.732  1.00  0.00    -0.007 A 
HETATM   19  C   UNL     1      40.913 -13.920   0.203  1.00  0.00     0.076 A 
HETATM   20  C   UNL     1      40.393 -12.707   0.671  1.00  0.00     0.037 A 
HETATM   21  C   UNL     1      39.417 -12.696   1.667  1.00  0.00     0.003 A 
HETATM   22  C   UNL     1      38.946 -13.894   2.193  1.00  0.00     0.001 A 
HETATM   23  C   UNL     1      39.454 -15.108   1.729  1.00  0.00     0.011 A 
BRANCH  19  24
HETATM   24  O   UNL     1      41.864 -14.024  -0.781  1.00  0.00    -0.355 OA
HETATM   25  C   UNL     1      42.255 -12.823  -1.436  1.00  0.00     0.210 C 
ENDBRANCH  19  24
ENDBRANCH  17  18
ENDBRANCH  14  17
ENDBRANCH   1  13
BRANCH   1  26
HETATM   26  O   UNL     1      44.680 -17.374   1.896  1.00  0.00    -0.359 OA
HETATM   27  H   UNL     1      45.278 -18.136   1.804  1.00  0.00     0.213 HD
ENDBRANCH   1  26
BRANCH   2  28
HETATM   28  C   UNL     1      43.171 -15.822   4.099  1.00  0.00     0.043 A 
HETATM   29  C   UNL     1      43.714 -14.753   3.365  1.00  0.00     0.031 A 
HETATM   30  C   UNL     1      43.174 -13.461   3.447  1.00  0.00     0.026 A 
HETATM   31  C   UNL     1      42.075 -13.217   4.261  1.00  0.00     0.034 A 
HETATM   32 CL   UNL     1      41.409 -11.634   4.353  1.00  0.00    -0.084 Cl
HETATM   33  C   UNL     1      41.514 -14.252   4.994  1.00  0.00     0.026 A 
HETATM   34  C   UNL     1      42.059 -15.540   4.912  1.00  0.00     0.031 A 
ENDBRANCH   2  28
TORSDOF 6
ENDMDL
MODEL 4
REMARK VINA RESULT:      -8.5      2.640      6.916
REMARK  6 active torsions:
REMARK  status: ('A' for Active; 'I' for Inactive)
REMARK    1  A    between atoms: O_2  and  C_3 
REMARK    2  A    between atoms: C_4  and  C_5 
REMARK    3  A    between atoms: C_5  and  N_6 
REMARK       I    between atoms: N_6  and  C_7 
REMARK    4  A    between atoms: C_7  and  C_8 
REMARK    5  A    between atoms: C_8  and  O_9 
REMARK    6  A    between atoms: N_10  and  C_11 
ROOT
HETATM    1  C   UNL     1      43.403 -17.548   2.282  1.00  0.00     0.256 C 
HETATM    2  N   UNL     1      43.191 -16.755   3.508  1.00  0.00    -0.254 N 
HETATM    3  C   UNL     1      43.565 -17.251   4.749  1.00  0.00     0.330 C 
HETATM    4  O   UNL     1      43.607 -16.600   5.795  1.00  0.00    -0.246 OA
HETATM    5  N   UNL     1      43.952 -18.552   4.832  1.00  0.00    -0.308 N 
HETATM    6  C   UNL     1      44.005 -19.455   3.788  1.00  0.00     0.048 A 
HETATM    7  C   UNL     1      43.735 -19.011   2.503  1.00  0.00     0.034 A 
HETATM    8  C   UNL     1      44.345 -20.786   4.046  1.00  0.00     0.030 A 
HETATM    9  C   UNL     1      44.411 -21.699   2.996  1.00  0.00     0.002 A 
HETATM   10  C   UNL     1      44.151 -21.276   1.697  1.00  0.00     0.001 A 
HETATM   11  C   UNL     1      43.825 -19.941   1.450  1.00  0.00     0.015 A 
HETATM   12  H   UNL     1      44.179 -18.853   5.771  1.00  0.00     0.170 HD
ENDROOT
BRANCH   1  13
HETATM   13  C   UNL     1      42.102 -17.477   1.365  1.00  0.00     0.279 C 
HETATM   14  N   UNL     1      42.272 -16.676   0.241  1.00  0.00    -0.352 N 
HETATM   15  H   UNL     1      43.114 -16.110   0.212  1.00  0.00     0.162 HD
HETATM   16  O   UNL     1      41.059 -18.083   1.607  1.00  0.00    -0.268 OA
BRANCH  14  17
HETATM   17  C   UNL     1      41.187 -16.377  -0.668  1.00  0.00     0.164 C 
BRANCH  17  18
HETATM   18  C   UNL     1      41.266 -15.008  -1.312  1.00  0.00    -0.007 A 
HETATM   19  C   UNL     1      40.983 -14.892  -2.689  1.00  0.00     0.076 A 
HETATM   20  C   UNL     1      41.064 -13.645  -3.319  1.00  0.00     0.037 A 
HETATM   21  C   UNL     1      41.430 -12.511  -2.594  1.00  0.00     0.003 A 
HETATM   22  C   UNL     1      41.709 -12.614  -1.235  1.00  0.00     0.001 A 
HETATM   23  C   UNL     1      41.626 -13.852  -0.598  1.00  0.00     0.011 A 
BRANCH  19  24
HETATM   24  O   UNL     1      40.619 -16.055  -3.321  1.00  0.00    -0.355 OA
HETATM   25  C   UNL     1      39.336 -16.085  -3.936  1.00  0.00     0.210 C 
ENDBRANCH  19  24
ENDBRANCH  17  18
ENDBRANCH  14  17
ENDBRANCH   1  13
BRANCH   1  26
HETATM   26  O   UNL     1      44.554 -17.001   1.630  1.00  0.00    -0.359 OA
HETATM   27  H   UNL     1      45.139 -17.772   1.531  1.00  0.00     0.213 HD
ENDBRANCH   1  26
BRANCH   2  28
HETATM   28  C   UNL     1      42.575 -15.443   3.418  1.00  0.00     0.043 A 
HETATM   29  C   UNL     1      43.289 -14.303   3.008  1.00  0.00     0.031 A 
HETATM   30  C   UNL     1      42.665 -13.053   2.890  1.00  0.00     0.026 A 
HETATM   31  C   UNL     1      41.312 -12.922   3.174  1.00  0.00     0.034 A 
HETATM   32 CL   UNL     1      40.546 -11.390   3.020  1.00  0.00    -0.084 Cl
HETATM   33  C   UNL     1      40.579 -14.028   3.578  1.00  0.00     0.026 A 
HETATM   34  C   UNL     1      41.207 -15.275   3.698  1.00  0.00     0.031 A 
ENDBRANCH   2  28
TORSDOF 6
ENDMDL
MODEL 5
REMARK VINA RESULT:      -8.3      2.442      6.730
REMARK  6 active torsions:
REMARK  status: ('A' for Active; 'I' for Inactive)
REMARK    1  A    between atoms: O_2  and  C_3 
REMARK    2  A    between atoms: C_4  and  C_5 
REMARK    3  A    between atoms: C_5  and  N_6 
REMARK       I    between atoms: N_6  and  C_7 
REMARK    4  A    between atoms: C_7  and  C_8 
REMARK    5  A    between atoms: C_8  and  O_9 
REMARK    6  A    between atoms: N_10  and  C_11 
ROOT
HETATM    1  C   UNL     1      42.972 -16.438   3.417  1.00  0.00     0.256 C 
HETATM    2  N   UNL     1      42.666 -15.880   4.749  1.00  0.00    -0.254 N 
HETATM    3  C   UNL     1      43.119 -16.505   5.902  1.00  0.00     0.330 C 
HETATM    4  O   UNL     1      43.082 -16.024   7.036  1.00  0.00    -0.246 OA
HETATM    5  N   UNL     1      43.682 -17.737   5.787  1.00  0.00    -0.308 N 
HETATM    6  C   UNL     1      43.848 -18.452   4.616  1.00  0.00     0.048 A 
HETATM    7  C   UNL     1      43.505 -17.857   3.413  1.00  0.00     0.034 A 
HETATM    8  C   UNL     1      44.370 -19.747   4.670  1.00  0.00     0.030 A 
HETATM    9  C   UNL     1      44.550 -20.470   3.493  1.00  0.00     0.002 A 
HETATM   10  C   UNL     1      44.221 -19.892   2.271  1.00  0.00     0.001 A 
HETATM   11  C   UNL     1      43.711 -18.592   2.230  1.00  0.00     0.015 A 
HETATM   12  H   UNL     1      43.958 -18.145   6.670  1.00  0.00     0.170 HD
ENDROOT
BRANCH   1  13
HETATM   13  C   UNL     1      41.664 -16.405   2.508  1.00  0.00     0.279 C 
HETATM   14  N   UNL     1      41.789 -15.569   1.404  1.00  0.00    -0.352 N 
HETATM   15  H   UNL     1      42.603 -14.962   1.386  1.00  0.00     0.162 HD
HETATM   16  O   UNL     1      40.653 -17.067   2.739  1.00  0.00    -0.268 OA
BRANCH  14  17
HETATM   17  C   UNL     1      40.685 -15.299   0.508  1.00  0.00     0.164 C 
BRANCH  17  18
HETATM   18  C   UNL     1      41.089 -14.695  -0.821  1.00  0.00    -0.007 A 
HETATM   19  C   UNL     1      41.776 -13.463  -0.823  1.00  0.00     0.076 A 
HETATM   20  C   UNL     1      42.147 -12.869  -2.035  1.00  0.00     0.037 A 
HETATM   21  C   UNL     1      41.836 -13.485  -3.247  1.00  0.00     0.003 A 
HETATM   22  C   UNL     1      41.161 -14.701  -3.256  1.00  0.00     0.001 A 
HETATM   23  C   UNL     1      40.791 -15.303  -2.053  1.00  0.00     0.011 A 
BRANCH  19  24
HETATM   24  O   UNL     1      42.052 -12.935   0.413  1.00  0.00    -0.355 OA
HETATM   25  C   UNL     1      41.567 -11.624   0.682  1.00  0.00     0.210 C 
ENDBRANCH  19  24
ENDBRANCH  17  18
ENDBRANCH  14  17
ENDBRANCH   1  13
BRANCH   1  26
HETATM   26  O   UNL     1      44.029 -15.643   2.870  1.00  0.00    -0.359 OA
HETATM   27  H   UNL     1      43.720 -15.456   1.966  1.00  0.00     0.213 HD
ENDBRANCH   1  26
BRANCH   2  28
HETATM   28  C   UNL     1      41.875 -14.667   4.855  1.00  0.00     0.043 A 
HETATM   29  C   UNL     1      40.545 -14.674   5.313  1.00  0.00     0.031 A 
HETATM   30  C   UNL     1      39.812 -13.487   5.445  1.00  0.00     0.026 A 
HETATM   31  C   UNL     1      40.398 -12.268   5.127  1.00  0.00     0.034 A 
HETATM   32 CL   UNL     1      39.499 -10.812   5.299  1.00  0.00    -0.084 Cl
HETATM   33  C   UNL     1      41.709 -12.228   4.676  1.00  0.00     0.026 A 
HETATM   34  C   UNL     1      42.437 -13.417   4.542  1.00  0.00     0.031 A 
ENDBRANCH   2  28
TORSDOF 6
ENDMDL
MODEL 6
REMARK VINA RESULT:      -8.0      2.933      7.301
REMARK  6 active torsions:
REMARK  status: ('A' for Active; 'I' for Inactive)
REMARK    1  A    between atoms: O_2  and  C_3 
REMARK    2  A    between atoms: C_4  and  C_5 
REMARK    3  A    between atoms: C_5  and  N_6 
REMARK       I    between atoms: N_6  and  C_7 
REMARK    4  A    between atoms: C_7  and  C_8 
REMARK    5  A    between atoms: C_8  and  O_9 
REMARK    6  A    between atoms: N_10  and  C_11 
ROOT
HETATM    1  C   UNL     1      42.177 -16.075   2.232  1.00  0.00     0.256 C 
HETATM    2  N   UNL     1      41.132 -15.518   3.112  1.00  0.00    -0.254 N 
HETATM    3  C   UNL     1      41.005 -15.950   4.425  1.00  0.00     0.330 C 
HETATM    4  O   UNL     1      40.301 -15.419   5.286  1.00  0.00    -0.246 OA
HETATM    5  N   UNL     1      41.735 -17.026   4.822  1.00  0.00    -0.308 N 
HETATM    6  C   UNL     1      42.604 -17.757   4.035  1.00  0.00     0.048 A 
HETATM    7  C   UNL     1      42.853 -17.333   2.739  1.00  0.00     0.034 A 
HETATM    8  C   UNL     1      43.222 -18.893   4.565  1.00  0.00     0.030 A 
HETATM    9  C   UNL     1      44.107 -19.629   3.780  1.00  0.00     0.002 A 
HETATM   10  C   UNL     1      44.380 -19.219   2.479  1.00  0.00     0.001 A 
HETATM   11  C   UNL     1      43.766 -18.075   1.965  1.00  0.00     0.015 A 
HETATM   12  H   UNL     1      41.568 -17.304   5.780  1.00  0.00     0.170 HD
ENDROOT
BRANCH   1  13
HETATM   13  C   UNL     1      41.556 -16.399   0.800  1.00  0.00     0.279 C 
HETATM   14  N   UNL     1      41.821 -15.413  -0.144  1.00  0.00    -0.352 N 
HETATM   15  H   UNL     1      42.220 -14.547   0.206  1.00  0.00     0.162 HD
HETATM   16  O   UNL     1      40.927 -17.423   0.543  1.00  0.00    -0.268 OA
BRANCH  14  17
HETATM   17  C   UNL     1      41.258 -15.445  -1.476  1.00  0.00     0.164 C 
BRANCH  17  18
HETATM   18  C   UNL     1      40.249 -14.351  -1.758  1.00  0.00    -0.007 A 
HETATM   19  C   UNL     1      40.645 -13.007  -1.590  1.00  0.00     0.076 A 
HETATM   20  C   UNL     1      39.731 -11.973  -1.825  1.00  0.00     0.037 A 
HETATM   21  C   UNL     1      38.425 -12.261  -2.219  1.00  0.00     0.003 A 
HETATM   22  C   UNL     1      38.025 -13.582  -2.390  1.00  0.00     0.001 A 
HETATM   23  C   UNL     1      38.930 -14.620  -2.163  1.00  0.00     0.011 A 
BRANCH  19  24
HETATM   24  O   UNL     1      41.950 -12.814  -1.213  1.00  0.00    -0.355 OA
HETATM   25  C   UNL     1      42.207 -11.777  -0.273  1.00  0.00     0.210 C 
ENDBRANCH  19  24
ENDBRANCH  17  18
ENDBRANCH  14  17
ENDBRANCH   1  13
BRANCH   1  26
HETATM   26  O   UNL     1      43.219 -15.096   2.159  1.00  0.00    -0.359 OA
HETATM   27  H   UNL     1      43.780 -15.425   1.435  1.00  0.00     0.213 HD
ENDBRANCH   1  26
BRANCH   2  28
HETATM   28  C   UNL     1      40.219 -14.513   2.598  1.00  0.00     0.043 A 
HETATM   29  C   UNL     1      39.021 -14.850   1.942  1.00  0.00     0.031 A 
HETATM   30  C   UNL     1      38.134 -13.864   1.488  1.00  0.00     0.026 A 
HETATM   31  C   UNL     1      38.427 -12.520   1.687  1.00  0.00     0.034 A 
HETATM   32 CL   UNL     1      37.334 -11.312   1.136  1.00  0.00    -0.084 Cl
HETATM   33  C   UNL     1      39.599 -12.156   2.333  1.00  0.00     0.026 A 
HETATM   34  C   UNL     1      40.483 -13.145   2.783  1.00  0.00     0.031 A 
ENDBRANCH   2  28
TORSDOF 6
ENDMDL
MODEL 7
REMARK VINA RESULT:      -7.9      2.427      6.170
REMARK  6 active torsions:
REMARK  status: ('A' for Active; 'I' for Inactive)
REMARK    1  A    between atoms: O_2  and  C_3 
REMARK    2  A    between atoms: C_4  and  C_5 
REMARK    3  A    between atoms: C_5  and  N_6 
REMARK       I    between atoms: N_6  and  C_7 
REMARK    4  A    between atoms: C_7  and  C_8 
REMARK    5  A    between atoms: C_8  and  O_9 
REMARK    6  A    between atoms: N_10  and  C_11 
ROOT
HETATM    1  C   UNL     1      41.342 -15.649   5.445  1.00  0.00     0.256 C 
HETATM    2  N   UNL     1      42.722 -15.965   5.861  1.00  0.00    -0.254 N 
HETATM    3  C   UNL     1      43.530 -14.994   6.436  1.00  0.00     0.330 C 
HETATM    4  O   UNL     1      44.614 -15.201   6.984  1.00  0.00    -0.246 OA
HETATM    5  N   UNL     1      43.092 -13.707   6.432  1.00  0.00    -0.308 N 
HETATM    6  C   UNL     1      41.902 -13.252   5.897  1.00  0.00     0.048 A 
HETATM    7  C   UNL     1      41.001 -14.173   5.387  1.00  0.00     0.034 A 
HETATM    8  C   UNL     1      41.627 -11.882   5.896  1.00  0.00     0.030 A 
HETATM    9  C   UNL     1      40.425 -11.418   5.367  1.00  0.00     0.002 A 
HETATM   10  C   UNL     1      39.501 -12.323   4.856  1.00  0.00     0.001 A 
HETATM   11  C   UNL     1      39.781 -13.691   4.874  1.00  0.00     0.015 A 
HETATM   12  H   UNL     1      43.745 -13.051   6.838  1.00  0.00     0.170 HD
ENDROOT
BRANCH   1  13
HETATM   13  C   UNL     1      41.059 -16.272   4.005  1.00  0.00     0.279 C 
HETATM   14  N   UNL     1      41.475 -15.450   2.965  1.00  0.00    -0.352 N 
HETATM   15  H   UNL     1      41.750 -14.505   3.217  1.00  0.00     0.162 HD
HETATM   16  O   UNL     1      40.545 -17.375   3.826  1.00  0.00    -0.268 OA
BRANCH  14  17
HETATM   17  C   UNL     1      41.213 -15.763   1.577  1.00  0.00     0.164 C 
BRANCH  17  18
HETATM   18  C   UNL     1      40.043 -15.014   0.974  1.00  0.00    -0.007 A 
HETATM   19  C   UNL     1      40.229 -14.351  -0.257  1.00  0.00     0.076 A 
HETATM   20  C   UNL     1      39.173 -13.635  -0.834  1.00  0.00     0.037 A 
HETATM   21  C   UNL     1      37.935 -13.566  -0.195  1.00  0.00     0.003 A 
HETATM   22  C   UNL     1      37.741 -14.218   1.018  1.00  0.00     0.001 A 
HETATM   23  C   UNL     1      38.786 -14.939   1.598  1.00  0.00     0.011 A 
BRANCH  19  24
HETATM   24  O   UNL     1      41.473 -14.481  -0.822  1.00  0.00    -0.355 OA
HETATM   25  C   UNL     1      42.007 -13.342  -1.485  1.00  0.00     0.210 C 
ENDBRANCH  19  24
ENDBRANCH  17  18
ENDBRANCH  14  17
ENDBRANCH   1  13
BRANCH   1  26
HETATM   26  O   UNL     1      40.475 -16.192   6.447  1.00  0.00    -0.359 OA
HETATM   27  H   UNL     1      41.096 -16.550   7.105  1.00  0.00     0.213 HD
ENDBRANCH   1  26
BRANCH   2  28
HETATM   28  C   UNL     1      43.246 -17.304   5.657  1.00  0.00     0.043 A 
HETATM   29  C   UNL     1      43.915 -17.679   4.479  1.00  0.00     0.031 A 
HETATM   30  C   UNL     1      44.447 -18.966   4.320  1.00  0.00     0.026 A 
HETATM   31  C   UNL     1      44.325 -19.901   5.340  1.00  0.00     0.034 A 
HETATM   32 CL   UNL     1      44.986 -21.477   5.146  1.00  0.00    -0.084 Cl
HETATM   33  C   UNL     1      43.673 -19.561   6.516  1.00  0.00     0.026 A 
HETATM   34  C   UNL     1      43.140 -18.274   6.670  1.00  0.00     0.031 A 
ENDBRANCH   2  28
TORSDOF 6
ENDMDL
MODEL 8
REMARK VINA RESULT:      -7.9      3.252      6.058
REMARK  6 active torsions:
REMARK  status: ('A' for Active; 'I' for Inactive)
REMARK    1  A    between atoms: O_2  and  C_3 
REMARK    2  A    between atoms: C_4  and  C_5 
REMARK    3  A    between atoms: C_5  and  N_6 
REMARK       I    between atoms: N_6  and  C_7 
REMARK    4  A    between atoms: C_7  and  C_8 
REMARK    5  A    between atoms: C_8  and  O_9 
REMARK    6  A    between atoms: N_10  and  C_11 
ROOT
HETATM    1  C   UNL     1      40.565 -16.020   2.064  1.00  0.00     0.256 C 
HETATM    2  N   UNL     1      40.473 -15.050   0.956  1.00  0.00    -0.254 N 
HETATM    3  C   UNL     1      41.227 -15.217  -0.197  1.00  0.00     0.330 C 
HETATM    4  O   UNL     1      41.084 -14.580  -1.242  1.00  0.00    -0.246 OA
HETATM    5  N   UNL     1      42.188 -16.179  -0.205  1.00  0.00    -0.308 N 
HETATM    6  C   UNL     1      42.504 -17.024   0.842  1.00  0.00     0.048 A 
HETATM    7  C   UNL     1      41.736 -16.981   1.994  1.00  0.00     0.034 A 
HETATM    8  C   UNL     1      43.577 -17.910   0.711  1.00  0.00     0.030 A 
HETATM    9  C   UNL     1      43.895 -18.771   1.758  1.00  0.00     0.002 A 
HETATM   10  C   UNL     1      43.133 -18.753   2.922  1.00  0.00     0.001 A 
HETATM   11  C   UNL     1      42.056 -17.871   3.036  1.00  0.00     0.015 A 
HETATM   12  H   UNL     1      42.719 -16.221  -1.065  1.00  0.00     0.170 HD
ENDROOT
BRANCH   1  13
HETATM   13  C   UNL     1      40.655 -15.242   3.452  1.00  0.00     0.279 C 
HETATM   14  N   UNL     1      41.955 -14.882   3.791  1.00  0.00    -0.352 N 
HETATM   15  H   UNL     1      42.697 -15.283   3.226  1.00  0.00     0.162 HD
HETATM   16  O   UNL     1      39.679 -14.965   4.147  1.00  0.00    -0.268 OA
BRANCH  14  17
HETATM   17  C   UNL     1      42.283 -14.271   5.060  1.00  0.00     0.164 C 
BRANCH  17  18
HETATM   18  C   UNL     1      42.665 -15.251   6.149  1.00  0.00    -0.007 A 
HETATM   19  C   UNL     1      43.831 -15.002   6.904  1.00  0.00     0.076 A 
HETATM   20  C   UNL     1      44.222 -15.898   7.906  1.00  0.00     0.037 A 
HETATM   21  C   UNL     1      43.469 -17.043   8.162  1.00  0.00     0.003 A 
HETATM   22  C   UNL     1      42.317 -17.297   7.426  1.00  0.00     0.001 A 
HETATM   23  C   UNL     1      41.916 -16.408   6.428  1.00  0.00     0.011 A 
BRANCH  19  24
HETATM   24  O   UNL     1      44.504 -13.847   6.594  1.00  0.00    -0.355 OA
HETATM   25  C   UNL     1      45.307 -13.270   7.618  1.00  0.00     0.210 C 
ENDBRANCH  19  24
ENDBRANCH  17  18
ENDBRANCH  14  17
ENDBRANCH   1  13
BRANCH   1  26
HETATM   26  O   UNL     1      39.399 -16.848   1.986  1.00  0.00    -0.359 OA
HETATM   27  H   UNL     1      39.246 -16.923   1.027  1.00  0.00     0.213 HD
ENDBRANCH   1  26
BRANCH   2  28
HETATM   28  C   UNL     1      39.591 -13.903   1.075  1.00  0.00     0.043 A 
HETATM   29  C   UNL     1      40.060 -12.629   1.438  1.00  0.00     0.031 A 
HETATM   30  C   UNL     1      39.197 -11.526   1.510  1.00  0.00     0.026 A 
HETATM   31  C   UNL     1      37.848 -11.677   1.212  1.00  0.00     0.034 A 
HETATM   32 CL   UNL     1      36.793 -10.321   1.291  1.00  0.00    -0.084 Cl
HETATM   33  C   UNL     1      37.356 -12.922   0.847  1.00  0.00     0.026 A 
HETATM   34  C   UNL     1      38.221 -14.021   0.780  1.00  0.00     0.031 A 
ENDBRANCH   2  28
TORSDOF 6
ENDMDL
MODEL 9
REMARK VINA RESULT:      -7.8      3.201      6.396
REMARK  6 active torsions:
REMARK  status: ('A' for Active; 'I' for Inactive)
REMARK    1  A    between atoms: O_2  and  C_3 
REMARK    2  A    between atoms: C_4  and  C_5 
REMARK    3  A    between atoms: C_5  and  N_6 
REMARK       I    between atoms: N_6  and  C_7 
REMARK    4  A    between atoms: C_7  and  C_8 
REMARK    5  A    between atoms: C_8  and  O_9 
REMARK    6  A    between atoms: N_10  and  C_11 
ROOT
HETATM    1  C   UNL     1      41.079 -13.499   5.763  1.00  0.00     0.256 C 
HETATM    2  N   UNL     1      42.457 -14.027   5.780  1.00  0.00    -0.254 N 
HETATM    3  C   UNL     1      43.421 -13.470   6.609  1.00  0.00     0.330 C 
HETATM    4  O   UNL     1      44.532 -13.951   6.835  1.00  0.00    -0.246 OA
HETATM    5  N   UNL     1      43.121 -12.313   7.258  1.00  0.00    -0.308 N 
HETATM    6  C   UNL     1      41.932 -11.614   7.171  1.00  0.00     0.048 A 
HETATM    7  C   UNL     1      40.888 -12.154   6.436  1.00  0.00     0.034 A 
HETATM    8  C   UNL     1      41.803 -10.391   7.836  1.00  0.00     0.030 A 
HETATM    9  C   UNL     1      40.604  -9.686   7.761  1.00  0.00     0.002 A 
HETATM   10  C   UNL     1      39.539 -10.211   7.036  1.00  0.00     0.001 A 
HETATM   11  C   UNL     1      39.676 -11.440   6.387  1.00  0.00     0.015 A 
HETATM   12  H   UNL     1      43.880 -11.948   7.817  1.00  0.00     0.170 HD
ENDROOT
BRANCH   1  13
HETATM   13  C   UNL     1      40.573 -13.367   4.258  1.00  0.00     0.279 C 
HETATM   14  N   UNL     1      39.618 -14.319   3.919  1.00  0.00    -0.352 N 
HETATM   15  H   UNL     1      39.473 -15.071   4.585  1.00  0.00     0.162 HD
HETATM   16  O   UNL     1      40.966 -12.501   3.478  1.00  0.00    -0.268 OA
BRANCH  14  17
HETATM   17  C   UNL     1      39.105 -14.457   2.573  1.00  0.00     0.164 C 
BRANCH  17  18
HETATM   18  C   UNL     1      39.959 -15.312   1.660  1.00  0.00    -0.007 A 
HETATM   19  C   UNL     1      40.542 -14.712   0.524  1.00  0.00     0.076 A 
HETATM   20  C   UNL     1      41.323 -15.478  -0.350  1.00  0.00     0.037 A 
HETATM   21  C   UNL     1      41.524 -16.837  -0.109  1.00  0.00     0.003 A 
HETATM   22  C   UNL     1      40.956 -17.437   1.009  1.00  0.00     0.001 A 
HETATM   23  C   UNL     1      40.181 -16.681   1.889  1.00  0.00     0.011 A 
BRANCH  19  24
HETATM   24  O   UNL     1      40.303 -13.370   0.371  1.00  0.00    -0.355 OA
HETATM   25  C   UNL     1      39.908 -12.924  -0.921  1.00  0.00     0.210 C 
ENDBRANCH  19  24
ENDBRANCH  17  18
ENDBRANCH  14  17
ENDBRANCH   1  13
BRANCH   1  26
HETATM   26  O   UNL     1      40.278 -14.411   6.523  1.00  0.00    -0.359 OA
HETATM   27  H   UNL     1      40.891 -14.721   7.213  1.00  0.00     0.213 HD
ENDBRANCH   1  26
BRANCH   2  28
HETATM   28  C   UNL     1      42.812 -15.136   4.914  1.00  0.00     0.043 A 
HETATM   29  C   UNL     1      43.380 -14.946   3.642  1.00  0.00     0.031 A 
HETATM   30  C   UNL     1      43.752 -16.032   2.837  1.00  0.00     0.026 A 
HETATM   31  C   UNL     1      43.568 -17.331   3.294  1.00  0.00     0.034 A 
HETATM   32 CL   UNL     1      44.034 -18.662   2.309  1.00  0.00    -0.084 Cl
HETATM   33  C   UNL     1      43.014 -17.552   4.546  1.00  0.00     0.026 A 
HETATM   34  C   UNL     1      42.641 -16.464   5.345  1.00  0.00     0.031 A 
ENDBRANCH   2  28
TORSDOF 6
ENDMDL
MODEL 10
REMARK VINA RESULT:      -7.8      2.116      3.179
REMARK  6 active torsions:
REMARK  status: ('A' for Active; 'I' for Inactive)
REMARK    1  A    between atoms: O_2  and  C_3 
REMARK    2  A    between atoms: C_4  and  C_5 
REMARK    3  A    between atoms: C_5  and  N_6 
REMARK       I    between atoms: N_6  and  C_7 
REMARK    4  A    between atoms: C_7  and  C_8 
REMARK    5  A    between atoms: C_8  and  O_9 
REMARK    6  A    between atoms: N_10  and  C_11 
ROOT
HETATM    1  C   UNL     1      41.263 -14.774   0.771  1.00  0.00     0.256 C 
HETATM    2  N   UNL     1      41.909 -13.578   1.346  1.00  0.00    -0.254 N 
HETATM    3  C   UNL     1      42.162 -12.461   0.563  1.00  0.00     0.330 C 
HETATM    4  O   UNL     1      42.516 -11.359   0.985  1.00  0.00    -0.246 OA
HETATM    5  N   UNL     1      41.978 -12.562  -0.780  1.00  0.00    -0.308 N 
HETATM    6  C   UNL     1      41.564 -13.689  -1.465  1.00  0.00     0.048 A 
HETATM    7  C   UNL     1      41.205 -14.817  -0.744  1.00  0.00     0.034 A 
HETATM    8  C   UNL     1      41.502 -13.662  -2.860  1.00  0.00     0.030 A 
HETATM    9  C   UNL     1      41.076 -14.791  -3.556  1.00  0.00     0.002 A 
HETATM   10  C   UNL     1      40.702 -15.933  -2.855  1.00  0.00     0.001 A 
HETATM   11  C   UNL     1      40.756 -15.943  -1.459  1.00  0.00     0.015 A 
HETATM   12  H   UNL     1      42.213 -11.721  -1.290  1.00  0.00     0.170 HD
ENDROOT
BRANCH   1  13
HETATM   13  C   UNL     1      42.022 -16.085   1.266  1.00  0.00     0.279 C 
HETATM   14  N   UNL     1      41.362 -16.737   2.302  1.00  0.00    -0.352 N 
HETATM   15  H   UNL     1      40.588 -16.239   2.729  1.00  0.00     0.162 HD
HETATM   16  O   UNL     1      43.071 -16.496   0.773  1.00  0.00    -0.268 OA
BRANCH  14  17
HETATM   17  C   UNL     1      41.928 -17.882   2.981  1.00  0.00     0.164 C 
BRANCH  17  18
HETATM   18  C   UNL     1      42.231 -17.656   4.448  1.00  0.00    -0.007 A 
HETATM   19  C   UNL     1      43.454 -18.131   4.966  1.00  0.00     0.076 A 
HETATM   20  C   UNL     1      43.757 -17.954   6.321  1.00  0.00     0.037 A 
HETATM   21  C   UNL     1      42.853 -17.315   7.169  1.00  0.00     0.003 A 
HETATM   22  C   UNL     1      41.646 -16.840   6.667  1.00  0.00     0.001 A 
HETATM   23  C   UNL     1      41.337 -17.007   5.317  1.00  0.00     0.011 A 
BRANCH  19  24
HETATM   24  O   UNL     1      44.289 -18.736   4.060  1.00  0.00    -0.355 OA
HETATM   25  C   UNL     1      44.801 -20.018   4.405  1.00  0.00     0.210 C 
ENDBRANCH  19  24
ENDBRANCH  17  18
ENDBRANCH  14  17
ENDBRANCH   1  13
BRANCH   1  26
HETATM   26  O   UNL     1      39.896 -14.749   1.195  1.00  0.00    -0.359 OA
HETATM   27  H   UNL     1      39.652 -13.812   1.097  1.00  0.00     0.213 HD
ENDBRANCH   1  26
BRANCH   2  28
HETATM   28  C   UNL     1      42.293 -13.573   2.746  1.00  0.00     0.043 A 
HETATM   29  C   UNL     1      41.403 -13.201   3.770  1.00  0.00     0.031 A 
HETATM   30  C   UNL     1      41.783 -13.241   5.119  1.00  0.00     0.026 A 
HETATM   31  C   UNL     1      43.060 -13.659   5.470  1.00  0.00     0.034 A 
HETATM   32 CL   UNL     1      43.521 -13.716   7.126  1.00  0.00    -0.084 Cl
HETATM   33  C   UNL     1      43.960 -14.035   4.484  1.00  0.00     0.026 A 
HETATM   34  C   UNL     1      43.577 -13.991   3.137  1.00  0.00     0.031 A 
ENDBRANCH   2  28
TORSDOF 6
ENDMDL
