MODEL 1
REMARK VINA RESULT:      -8.1      0.000      0.000
REMARK  3 active torsions:
REMARK  status: ('A' for Active; 'I' for Inactive)
REMARK    1  A    between atoms: C_5  and  C_6 
REMARK    2  A    between atoms: C_10  and  N_11 
REMARK    3  A    between atoms: C_18  and  C_19 
ROOT
HETATM    1  C   UNL     1      43.589 -14.883   5.475  1.00  0.00     0.106 A 
HETATM    2  C   UNL     1      43.542 -13.687   6.432  1.00  0.00     0.081 A 
HETATM    3  C   UNL     1      44.737 -13.403   7.156  1.00  0.00     0.100 C 
HETATM    4  N   UNL     1      45.711 -13.169   7.743  1.00  0.00    -0.191 NA
HETATM    5  C   UNL     1      42.446 -12.891   6.570  1.00  0.00     0.140 A 
HETATM    6  O   UNL     1      41.270 -13.112   5.834  1.00  0.00    -0.279 OA
HETATM    7  C   UNL     1      41.312 -14.086   4.934  1.00  0.00     0.175 A 
HETATM    8  C   UNL     1      42.336 -14.962   4.672  1.00  0.00     0.040 A 
HETATM    9  N   UNL     1      40.305 -14.386   4.081  1.00  0.00    -0.256 N 
HETATM   10  H   UNL     1      39.399 -13.941   3.998  1.00  0.00     0.191 HD
HETATM   11  N   UNL     1      40.606 -15.406   3.260  1.00  0.00    -0.172 NA
HETATM   12  C   UNL     1      41.867 -15.761   3.588  1.00  0.00     0.099 A 
ENDROOT
BRANCH   1  13
HETATM   13  C   UNL     1      43.738 -16.203   6.221  1.00  0.00    -0.044 A 
HETATM   14  C   UNL     1      44.820 -17.077   6.013  1.00  0.00     0.009 A 
HETATM   15  C   UNL     1      44.880 -18.313   6.662  1.00  0.00     0.007 A 
HETATM   16  C   UNL     1      43.858 -18.712   7.529  1.00  0.00    -0.062 A 
HETATM   17  C   UNL     1      43.899 -20.064   8.177  1.00  0.00     0.048 C 
HETATM   18  C   UNL     1      42.768 -17.861   7.726  1.00  0.00     0.007 A 
HETATM   19  C   UNL     1      42.710 -16.620   7.085  1.00  0.00     0.009 A 
ENDBRANCH   1  13
BRANCH   5  20
HETATM   20  N   UNL     1      42.349 -11.805   7.411  1.00  0.00    -0.282 NA
HETATM   21  H   UNL     1      43.233 -11.377   7.677  1.00  0.00     0.126 HD
HETATM   22  H   UNL     1      41.742 -11.989   8.206  1.00  0.00     0.126 HD
ENDBRANCH   5  20
BRANCH  12  23
HETATM   23  C   UNL     1      42.541 -16.837   2.860  1.00  0.00    -0.005 A 
HETATM   24  C   UNL     1      43.205 -16.600   1.650  1.00  0.00     0.014 A 
HETATM   25  C   UNL     1      43.829 -17.646   0.965  1.00  0.00     0.001 A 
HETATM   26  C   UNL     1      43.788 -18.942   1.477  1.00  0.00     0.000 A 
HETATM   27  C   UNL     1      43.120 -19.194   2.672  1.00  0.00     0.001 A 
HETATM   28  C   UNL     1      42.499 -18.148   3.359  1.00  0.00     0.014 A 
ENDBRANCH  12  23
TORSDOF 3
ENDMDL
MODEL 2
REMARK VINA RESULT:      -7.4      3.561      5.538
REMARK  3 active torsions:
REMARK  status: ('A' for Active; 'I' for Inactive)
REMARK    1  A    between atoms: C_5  and  C_6 
REMARK    2  A    between atoms: C_10  and  N_11 
REMARK    3  A    between atoms: C_18  and  C_19 
ROOT
HETATM    1  C   UNL     1      43.083 -19.075   4.993  1.00  0.00     0.106 A 
HETATM    2  C   UNL     1      43.877 -20.283   5.502  1.00  0.00     0.081 A 
HETATM    3  C   UNL     1      43.597 -20.717   6.830  1.00  0.00     0.100 C 
HETATM    4  N   UNL     1      43.367 -21.073   7.911  1.00  0.00    -0.191 NA
HETATM    5  C   UNL     1      44.776 -20.956   4.731  1.00  0.00     0.140 A 
HETATM    6  O   UNL     1      45.037 -20.586   3.401  1.00  0.00    -0.279 OA
HETATM    7  C   UNL     1      44.300 -19.600   2.907  1.00  0.00     0.175 A 
HETATM    8  C   UNL     1      43.357 -18.836   3.548  1.00  0.00     0.040 A 
HETATM    9  N   UNL     1      44.358 -19.167   1.627  1.00  0.00    -0.256 N 
HETATM   10  H   UNL     1      44.945 -19.506   0.874  1.00  0.00     0.191 HD
HETATM   11  N   UNL     1      43.497 -18.165   1.377  1.00  0.00    -0.172 NA
HETATM   12  C   UNL     1      42.849 -17.962   2.544  1.00  0.00     0.099 A 
ENDROOT
BRANCH   1  13
HETATM   13  C   UNL     1      43.445 -17.799   5.745  1.00  0.00    -0.044 A 
HETATM   14  C   UNL     1      42.479 -16.955   6.322  1.00  0.00     0.009 A 
HETATM   15  C   UNL     1      42.849 -15.757   6.937  1.00  0.00     0.007 A 
HETATM   16  C   UNL     1      44.190 -15.365   6.984  1.00  0.00    -0.062 A 
HETATM   17  C   UNL     1      44.574 -14.049   7.594  1.00  0.00     0.048 C 
HETATM   18  C   UNL     1      45.156 -16.186   6.395  1.00  0.00     0.007 A 
HETATM   19  C   UNL     1      44.789 -17.390   5.788  1.00  0.00     0.009 A 
ENDBRANCH   1  13
BRANCH   5  20
HETATM   20  N   UNL     1      45.514 -22.047   5.134  1.00  0.00    -0.282 NA
HETATM   21  H   UNL     1      45.058 -22.949   5.020  1.00  0.00     0.126 HD
HETATM   22  H   UNL     1      45.914 -21.918   6.060  1.00  0.00     0.126 HD
ENDBRANCH   5  20
BRANCH  12  23
HETATM   23  C   UNL     1      41.796 -16.948   2.633  1.00  0.00    -0.005 A 
HETATM   24  C   UNL     1      40.532 -17.152   2.066  1.00  0.00     0.014 A 
HETATM   25  C   UNL     1      39.548 -16.163   2.150  1.00  0.00     0.001 A 
HETATM   26  C   UNL     1      39.819 -14.957   2.793  1.00  0.00     0.000 A 
HETATM   27  C   UNL     1      41.076 -14.736   3.350  1.00  0.00     0.001 A 
HETATM   28  C   UNL     1      42.059 -15.725   3.269  1.00  0.00     0.014 A 
ENDBRANCH  12  23
TORSDOF 3
ENDMDL
MODEL 3
REMARK VINA RESULT:      -7.1      3.267      6.366
REMARK  3 active torsions:
REMARK  status: ('A' for Active; 'I' for Inactive)
REMARK    1  A    between atoms: C_5  and  C_6 
REMARK    2  A    between atoms: C_10  and  N_11 
REMARK    3  A    between atoms: C_18  and  C_19 
ROOT
HETATM    1  C   UNL     1      39.956 -13.960   2.146  1.00  0.00     0.106 A 
HETATM    2  C   UNL     1      38.936 -12.845   2.403  1.00  0.00     0.081 A 
HETATM    3  C   UNL     1      37.881 -12.717   1.453  1.00  0.00     0.100 C 
HETATM    4  N   UNL     1      37.019 -12.614   0.682  1.00  0.00    -0.191 NA
HETATM    5  C   UNL     1      38.983 -12.036   3.496  1.00  0.00     0.140 A 
HETATM    6  O   UNL     1      39.980 -12.170   4.477  1.00  0.00    -0.279 OA
HETATM    7  C   UNL     1      40.824 -13.183   4.326  1.00  0.00     0.175 A 
HETATM    8  C   UNL     1      40.900 -14.083   3.293  1.00  0.00     0.040 A 
HETATM    9  N   UNL     1      41.792 -13.513   5.212  1.00  0.00    -0.256 N 
HETATM   10  H   UNL     1      42.022 -13.061   6.089  1.00  0.00     0.191 HD
HETATM   11  N   UNL     1      42.500 -14.589   4.831  1.00  0.00    -0.172 NA
HETATM   12  C   UNL     1      41.949 -14.975   3.661  1.00  0.00     0.099 A 
ENDROOT
BRANCH   1  13
HETATM   13  C   UNL     1      40.787 -13.695   0.896  1.00  0.00    -0.044 A 
HETATM   14  C   UNL     1      41.554 -12.528   0.726  1.00  0.00     0.009 A 
HETATM   15  C   UNL     1      42.241 -12.289  -0.467  1.00  0.00     0.007 A 
HETATM   16  C   UNL     1      42.173 -13.203  -1.523  1.00  0.00    -0.062 A 
HETATM   17  C   UNL     1      42.865 -12.913  -2.822  1.00  0.00     0.048 C 
HETATM   18  C   UNL     1      41.396 -14.355  -1.372  1.00  0.00     0.007 A 
HETATM   19  C   UNL     1      40.716 -14.601  -0.176  1.00  0.00     0.009 A 
ENDBRANCH   1  13
BRANCH   5  20
HETATM   20  N   UNL     1      38.094 -11.022   3.778  1.00  0.00    -0.282 NA
HETATM   21  H   UNL     1      37.297 -11.287   4.353  1.00  0.00     0.126 HD
HETATM   22  H   UNL     1      37.828 -10.504   2.945  1.00  0.00     0.126 HD
ENDBRANCH   5  20
BRANCH  12  23
HETATM   23  C   UNL     1      42.457 -16.159   2.963  1.00  0.00    -0.005 A 
HETATM   24  C   UNL     1      41.982 -17.443   3.257  1.00  0.00     0.014 A 
HETATM   25  C   UNL     1      42.493 -18.559   2.589  1.00  0.00     0.001 A 
HETATM   26  C   UNL     1      43.491 -18.405   1.628  1.00  0.00     0.000 A 
HETATM   27  C   UNL     1      43.981 -17.135   1.335  1.00  0.00     0.001 A 
HETATM   28  C   UNL     1      43.468 -16.018   2.001  1.00  0.00     0.014 A 
ENDBRANCH  12  23
TORSDOF 3
ENDMDL
MODEL 4
REMARK VINA RESULT:      -6.9      3.210      4.624
REMARK  3 active torsions:
REMARK  status: ('A' for Active; 'I' for Inactive)
REMARK    1  A    between atoms: C_5  and  C_6 
REMARK    2  A    between atoms: C_10  and  N_11 
REMARK    3  A    between atoms: C_18  and  C_19 
ROOT
HETATM    1  C   UNL     1      41.769 -14.068   1.673  1.00  0.00     0.106 A 
HETATM    2  C   UNL     1      41.126 -12.789   1.123  1.00  0.00     0.081 A 
HETATM    3  C   UNL     1      42.014 -11.733   0.764  1.00  0.00     0.100 C 
HETATM    4  N   UNL     1      42.738 -10.874   0.468  1.00  0.00    -0.191 NA
HETATM    5  C   UNL     1      39.785 -12.657   0.933  1.00  0.00     0.140 A 
HETATM    6  O   UNL     1      38.887 -13.697   1.228  1.00  0.00    -0.279 OA
HETATM    7  C   UNL     1      39.423 -14.845   1.621  1.00  0.00     0.175 A 
HETATM    8  C   UNL     1      40.744 -15.135   1.850  1.00  0.00     0.040 A 
HETATM    9  N   UNL     1      38.720 -15.974   1.868  1.00  0.00    -0.256 N 
HETATM   10  H   UNL     1      37.719 -16.119   1.801  1.00  0.00     0.191 HD
HETATM   11  N   UNL     1      39.502 -17.003   2.239  1.00  0.00    -0.172 NA
HETATM   12  C   UNL     1      40.760 -16.515   2.208  1.00  0.00     0.099 A 
ENDROOT
BRANCH   1  13
HETATM   13  C   UNL     1      42.428 -13.836   3.027  1.00  0.00    -0.044 A 
HETATM   14  C   UNL     1      43.744 -14.242   3.312  1.00  0.00     0.009 A 
HETATM   15  C   UNL     1      44.285 -14.078   4.590  1.00  0.00     0.007 A 
HETATM   16  C   UNL     1      43.523 -13.514   5.618  1.00  0.00    -0.062 A 
HETATM   17  C   UNL     1      44.089 -13.395   7.003  1.00  0.00     0.048 C 
HETATM   18  C   UNL     1      42.207 -13.127   5.351  1.00  0.00     0.007 A 
HETATM   19  C   UNL     1      41.667 -13.281   4.071  1.00  0.00     0.009 A 
ENDBRANCH   1  13
BRANCH   5  20
HETATM   20  N   UNL     1      39.155 -11.535   0.441  1.00  0.00    -0.282 NA
HETATM   21  H   UNL     1      38.324 -11.242   0.950  1.00  0.00     0.126 HD
HETATM   22  H   UNL     1      39.006 -11.589  -0.564  1.00  0.00     0.126 HD
ENDBRANCH   5  20
BRANCH  12  23
HETATM   23  C   UNL     1      41.894 -17.385   2.528  1.00  0.00    -0.005 A 
HETATM   24  C   UNL     1      42.704 -17.931   1.525  1.00  0.00     0.014 A 
HETATM   25  C   UNL     1      43.771 -18.772   1.853  1.00  0.00     0.001 A 
HETATM   26  C   UNL     1      44.035 -19.083   3.186  1.00  0.00     0.000 A 
HETATM   27  C   UNL     1      43.229 -18.556   4.193  1.00  0.00     0.001 A 
HETATM   28  C   UNL     1      42.163 -17.714   3.865  1.00  0.00     0.014 A 
ENDBRANCH  12  23
TORSDOF 3
ENDMDL
MODEL 5
REMARK VINA RESULT:      -6.8      3.306      5.624
REMARK  3 active torsions:
REMARK  status: ('A' for Active; 'I' for Inactive)
REMARK    1  A    between atoms: C_5  and  C_6 
REMARK    2  A    between atoms: C_10  and  N_11 
REMARK    3  A    between atoms: C_18  and  C_19 
ROOT
HETATM    1  C   UNL     1      42.159 -14.364   1.671  1.00  0.00     0.106 A 
HETATM    2  C   UNL     1      41.818 -13.524   0.435  1.00  0.00     0.081 A 
HETATM    3  C   UNL     1      42.325 -12.192   0.410  1.00  0.00     0.100 C 
HETATM    4  N   UNL     1      42.740 -11.107   0.388  1.00  0.00    -0.191 NA
HETATM    5  C   UNL     1      41.112 -14.013  -0.621  1.00  0.00     0.140 A 
HETATM    6  O   UNL     1      40.642 -15.337  -0.651  1.00  0.00    -0.279 OA
HETATM    7  C   UNL     1      40.998 -16.112   0.366  1.00  0.00     0.175 A 
HETATM    8  C   UNL     1      41.708 -15.773   1.489  1.00  0.00     0.040 A 
HETATM    9  N   UNL     1      40.707 -17.430   0.463  1.00  0.00    -0.256 N 
HETATM   10  H   UNL     1      40.194 -18.010  -0.190  1.00  0.00     0.191 HD
HETATM   11  N   UNL     1      41.195 -17.988   1.584  1.00  0.00    -0.172 NA
HETATM   12  C   UNL     1      41.841 -16.988   2.221  1.00  0.00     0.099 A 
ENDROOT
BRANCH   1  13
HETATM   13  C   UNL     1      41.484 -13.826   2.927  1.00  0.00    -0.044 A 
HETATM   14  C   UNL     1      42.204 -13.285   4.007  1.00  0.00     0.009 A 
HETATM   15  C   UNL     1      41.552 -12.873   5.171  1.00  0.00     0.007 A 
HETATM   16  C   UNL     1      40.164 -12.997   5.291  1.00  0.00    -0.062 A 
HETATM   17  C   UNL     1      39.476 -12.607   6.567  1.00  0.00     0.048 C 
HETATM   18  C   UNL     1      39.441 -13.553   4.233  1.00  0.00     0.007 A 
HETATM   19  C   UNL     1      40.090 -13.958   3.064  1.00  0.00     0.009 A 
ENDBRANCH   1  13
BRANCH   5  20
HETATM   20  N   UNL     1      40.780 -13.307  -1.756  1.00  0.00    -0.282 NA
HETATM   21  H   UNL     1      40.895 -12.298  -1.693  1.00  0.00     0.126 HD
HETATM   22  H   UNL     1      39.872 -13.580  -2.125  1.00  0.00     0.126 HD
ENDBRANCH   5  20
BRANCH  12  23
HETATM   23  C   UNL     1      42.534 -17.248   3.485  1.00  0.00    -0.005 A 
HETATM   24  C   UNL     1      43.741 -17.957   3.526  1.00  0.00     0.014 A 
HETATM   25  C   UNL     1      44.377 -18.207   4.745  1.00  0.00     0.001 A 
HETATM   26  C   UNL     1      43.808 -17.760   5.937  1.00  0.00     0.000 A 
HETATM   27  C   UNL     1      42.601 -17.065   5.911  1.00  0.00     0.001 A 
HETATM   28  C   UNL     1      41.967 -16.813   4.692  1.00  0.00     0.014 A 
ENDBRANCH  12  23
TORSDOF 3
ENDMDL
MODEL 6
REMARK VINA RESULT:      -6.7      2.495      4.058
REMARK  3 active torsions:
REMARK  status: ('A' for Active; 'I' for Inactive)
REMARK    1  A    between atoms: C_5  and  C_6 
REMARK    2  A    between atoms: C_10  and  N_11 
REMARK    3  A    between atoms: C_18  and  C_19 
ROOT
HETATM    1  C   UNL     1      43.472 -17.013   5.012  1.00  0.00     0.106 A 
HETATM    2  C   UNL     1      43.951 -17.402   6.416  1.00  0.00     0.081 A 
HETATM    3  C   UNL     1      45.325 -17.761   6.543  1.00  0.00     0.100 C 
HETATM    4  N   UNL     1      46.444 -18.050   6.648  1.00  0.00    -0.191 NA
HETATM    5  C   UNL     1      43.142 -17.369   7.510  1.00  0.00     0.140 A 
HETATM    6  O   UNL     1      41.797 -16.970   7.428  1.00  0.00    -0.279 OA
HETATM    7  C   UNL     1      41.380 -16.544   6.242  1.00  0.00     0.175 A 
HETATM    8  C   UNL     1      42.070 -16.508   5.057  1.00  0.00     0.040 A 
HETATM    9  N   UNL     1      40.145 -16.047   5.998  1.00  0.00    -0.256 N 
HETATM   10  H   UNL     1      39.376 -15.928   6.646  1.00  0.00     0.191 HD
HETATM   11  N   UNL     1      39.980 -15.672   4.718  1.00  0.00    -0.172 NA
HETATM   12  C   UNL     1      41.167 -15.922   4.124  1.00  0.00     0.099 A 
ENDROOT
BRANCH   1  13
HETATM   13  C   UNL     1      43.502 -18.197   4.053  1.00  0.00    -0.044 A 
HETATM   14  C   UNL     1      43.355 -19.528   4.482  1.00  0.00     0.009 A 
HETATM   15  C   UNL     1      43.464 -20.589   3.579  1.00  0.00     0.007 A 
HETATM   16  C   UNL     1      43.730 -20.349   2.228  1.00  0.00    -0.062 A 
HETATM   17  C   UNL     1      43.905 -21.495   1.274  1.00  0.00     0.048 C 
HETATM   18  C   UNL     1      43.900 -19.031   1.795  1.00  0.00     0.007 A 
HETATM   19  C   UNL     1      43.782 -17.967   2.694  1.00  0.00     0.009 A 
ENDBRANCH   1  13
BRANCH   5  20
HETATM   20  N   UNL     1      43.518 -17.704   8.792  1.00  0.00    -0.282 NA
HETATM   21  H   UNL     1      43.833 -18.663   8.919  1.00  0.00     0.126 HD
HETATM   22  H   UNL     1      42.826 -17.420   9.480  1.00  0.00     0.126 HD
ENDBRANCH   5  20
BRANCH  12  23
HETATM   23  C   UNL     1      41.363 -15.599   2.709  1.00  0.00    -0.005 A 
HETATM   24  C   UNL     1      41.898 -14.368   2.307  1.00  0.00     0.014 A 
HETATM   25  C   UNL     1      42.062 -14.075   0.950  1.00  0.00     0.001 A 
HETATM   26  C   UNL     1      41.685 -15.004  -0.019  1.00  0.00     0.000 A 
HETATM   27  C   UNL     1      41.140 -16.226   0.368  1.00  0.00     0.001 A 
HETATM   28  C   UNL     1      40.979 -16.520   1.724  1.00  0.00     0.014 A 
ENDBRANCH  12  23
TORSDOF 3
ENDMDL
MODEL 7
REMARK VINA RESULT:      -6.7      2.819      4.311
REMARK  3 active torsions:
REMARK  status: ('A' for Active; 'I' for Inactive)
REMARK    1  A    between atoms: C_5  and  C_6 
REMARK    2  A    between atoms: C_10  and  N_11 
REMARK    3  A    between atoms: C_18  and  C_19 
ROOT
HETATM    1  C   UNL     1      42.161 -13.884   2.973  1.00  0.00     0.106 A 
HETATM    2  C   UNL     1      42.259 -13.563   4.469  1.00  0.00     0.081 A 
HETATM    3  C   UNL     1      43.537 -13.739   5.075  1.00  0.00     0.100 C 
HETATM    4  N   UNL     1      44.578 -13.878   5.569  1.00  0.00    -0.191 NA
HETATM    5  C   UNL     1      41.210 -13.089   5.195  1.00  0.00     0.140 A 
HETATM    6  O   UNL     1      39.951 -12.856   4.616  1.00  0.00    -0.279 OA
HETATM    7  C   UNL     1      39.861 -13.041   3.305  1.00  0.00     0.175 A 
HETATM    8  C   UNL     1      40.822 -13.502   2.441  1.00  0.00     0.040 A 
HETATM    9  N   UNL     1      38.755 -12.787   2.569  1.00  0.00    -0.256 N 
HETATM   10  H   UNL     1      37.858 -12.436   2.883  1.00  0.00     0.191 HD
HETATM   11  N   UNL     1      38.930 -13.044   1.262  1.00  0.00    -0.172 NA
HETATM   12  C   UNL     1      40.209 -13.462   1.155  1.00  0.00     0.099 A 
ENDROOT
BRANCH   1  13
HETATM   13  C   UNL     1      42.358 -15.369   2.695  1.00  0.00    -0.044 A 
HETATM   14  C   UNL     1      41.660 -16.373   3.391  1.00  0.00     0.009 A 
HETATM   15  C   UNL     1      41.926 -17.725   3.159  1.00  0.00     0.007 A 
HETATM   16  C   UNL     1      42.900 -18.109   2.232  1.00  0.00    -0.062 A 
HETATM   17  C   UNL     1      43.222 -19.561   2.030  1.00  0.00     0.048 C 
HETATM   18  C   UNL     1      43.614 -17.120   1.551  1.00  0.00     0.007 A 
HETATM   19  C   UNL     1      43.344 -15.767   1.776  1.00  0.00     0.009 A 
ENDBRANCH   1  13
BRANCH   5  20
HETATM   20  N   UNL     1      41.241 -12.783   6.537  1.00  0.00    -0.282 NA
HETATM   21  H   UNL     1      42.007 -13.197   7.063  1.00  0.00     0.126 HD
HETATM   22  H   UNL     1      40.336 -12.918   6.982  1.00  0.00     0.126 HD
ENDBRANCH   5  20
BRANCH  12  23
HETATM   23  C   UNL     1      40.764 -13.803  -0.157  1.00  0.00    -0.005 A 
HETATM   24  C   UNL     1      41.502 -12.876  -0.904  1.00  0.00     0.014 A 
HETATM   25  C   UNL     1      42.009 -13.218  -2.160  1.00  0.00     0.001 A 
HETATM   26  C   UNL     1      41.776 -14.488  -2.687  1.00  0.00     0.000 A 
HETATM   27  C   UNL     1      41.034 -15.415  -1.961  1.00  0.00     0.001 A 
HETATM   28  C   UNL     1      40.529 -15.073  -0.703  1.00  0.00     0.014 A 
ENDBRANCH  12  23
TORSDOF 3
ENDMDL
MODEL 8
REMARK VINA RESULT:      -6.6      3.626      6.515
REMARK  3 active torsions:
REMARK  status: ('A' for Active; 'I' for Inactive)
REMARK    1  A    between atoms: C_5  and  C_6 
REMARK    2  A    between atoms: C_10  and  N_11 
REMARK    3  A    between atoms: C_18  and  C_19 
ROOT
HETATM    1  C   UNL     1      42.001 -13.962   1.346  1.00  0.00     0.106 A 
HETATM    2  C   UNL     1      41.936 -13.439  -0.093  1.00  0.00     0.081 A 
HETATM    3  C   UNL     1      42.471 -12.138  -0.323  1.00  0.00     0.100 C 
HETATM    4  N   UNL     1      42.910 -11.080  -0.511  1.00  0.00    -0.191 NA
HETATM    5  C   UNL     1      41.443 -14.175  -1.127  1.00  0.00     0.140 A 
HETATM    6  O   UNL     1      40.956 -15.480  -0.943  1.00  0.00    -0.279 OA
HETATM    7  C   UNL     1      41.081 -15.991   0.275  1.00  0.00     0.175 A 
HETATM    8  C   UNL     1      41.561 -15.385   1.409  1.00  0.00     0.040 A 
HETATM    9  N   UNL     1      40.744 -17.256   0.614  1.00  0.00    -0.256 N 
HETATM   10  H   UNL     1      40.356 -17.983   0.024  1.00  0.00     0.191 HD
HETATM   11  N   UNL     1      40.983 -17.529   1.908  1.00  0.00    -0.172 NA
HETATM   12  C   UNL     1      41.514 -16.395   2.413  1.00  0.00     0.099 A 
ENDROOT
BRANCH   1  13
HETATM   13  C   UNL     1      41.103 -13.163   2.283  1.00  0.00    -0.044 A 
HETATM   14  C   UNL     1      39.735 -12.953   2.031  1.00  0.00     0.009 A 
HETATM   15  C   UNL     1      38.964 -12.151   2.876  1.00  0.00     0.007 A 
HETATM   16  C   UNL     1      39.540 -11.532   3.990  1.00  0.00    -0.062 A 
HETATM   17  C   UNL     1      38.721 -10.625   4.860  1.00  0.00     0.048 C 
HETATM   18  C   UNL     1      40.903 -11.716   4.238  1.00  0.00     0.007 A 
HETATM   19  C   UNL     1      41.674 -12.526   3.398  1.00  0.00     0.009 A 
ENDBRANCH   1  13
BRANCH   5  20
HETATM   20  N   UNL     1      41.363 -13.758  -2.437  1.00  0.00    -0.282 NA
HETATM   21  H   UNL     1      40.704 -14.270  -3.019  1.00  0.00     0.126 HD
HETATM   22  H   UNL     1      42.280 -13.663  -2.865  1.00  0.00     0.126 HD
ENDBRANCH   5  20
BRANCH  12  23
HETATM   23  C   UNL     1      41.933 -16.340   3.815  1.00  0.00    -0.005 A 
HETATM   24  C   UNL     1      43.221 -16.723   4.210  1.00  0.00     0.014 A 
HETATM   25  C   UNL     1      43.594 -16.677   5.556  1.00  0.00     0.001 A 
HETATM   26  C   UNL     1      42.682 -16.257   6.522  1.00  0.00     0.000 A 
HETATM   27  C   UNL     1      41.394 -15.886   6.145  1.00  0.00     0.001 A 
HETATM   28  C   UNL     1      41.022 -15.929   4.799  1.00  0.00     0.014 A 
ENDBRANCH  12  23
TORSDOF 3
ENDMDL
MODEL 9
REMARK VINA RESULT:      -6.6      4.143      6.367
REMARK  3 active torsions:
REMARK  status: ('A' for Active; 'I' for Inactive)
REMARK    1  A    between atoms: C_5  and  C_6 
REMARK    2  A    between atoms: C_10  and  N_11 
REMARK    3  A    between atoms: C_18  and  C_19 
ROOT
HETATM    1  C   UNL     1      42.193 -13.240   0.256  1.00  0.00     0.106 A 
HETATM    2  C   UNL     1      42.005 -12.070  -0.715  1.00  0.00     0.081 A 
HETATM    3  C   UNL     1      42.641 -10.843  -0.367  1.00  0.00     0.100 C 
HETATM    4  N   UNL     1      43.162  -9.844  -0.085  1.00  0.00    -0.191 NA
HETATM    5  C   UNL     1      41.311 -12.179  -1.882  1.00  0.00     0.140 A 
HETATM    6  O   UNL     1      40.715 -13.388  -2.280  1.00  0.00    -0.279 OA
HETATM    7  C   UNL     1      40.937 -14.440  -1.501  1.00  0.00     0.175 A 
HETATM    8  C   UNL     1      41.617 -14.492  -0.310  1.00  0.00     0.040 A 
HETATM    9  N   UNL     1      40.513 -15.696  -1.771  1.00  0.00    -0.256 N 
HETATM   10  H   UNL     1      39.980 -16.022  -2.569  1.00  0.00     0.191 HD
HETATM   11  N   UNL     1      40.882 -16.582  -0.830  1.00  0.00    -0.172 NA
HETATM   12  C   UNL     1      41.589 -15.865   0.069  1.00  0.00     0.099 A 
ENDROOT
BRANCH   1  13
HETATM   13  C   UNL     1      41.509 -12.984   1.594  1.00  0.00    -0.044 A 
HETATM   14  C   UNL     1      42.203 -12.980   2.817  1.00  0.00     0.009 A 
HETATM   15  C   UNL     1      41.525 -12.817   4.027  1.00  0.00     0.007 A 
HETATM   16  C   UNL     1      40.136 -12.663   4.049  1.00  0.00    -0.062 A 
HETATM   17  C   UNL     1      39.407 -12.547   5.355  1.00  0.00     0.048 C 
HETATM   18  C   UNL     1      39.433 -12.688   2.842  1.00  0.00     0.007 A 
HETATM   19  C   UNL     1      40.110 -12.842   1.628  1.00  0.00     0.009 A 
ENDBRANCH   1  13
BRANCH   5  20
HETATM   20  N   UNL     1      41.112 -11.165  -2.791  1.00  0.00    -0.282 NA
HETATM   21  H   UNL     1      41.024 -10.233  -2.395  1.00  0.00     0.126 HD
HETATM   22  H   UNL     1      40.373 -11.386  -3.454  1.00  0.00     0.126 HD
ENDBRANCH   5  20
BRANCH  12  23
HETATM   23  C   UNL     1      42.184 -16.526   1.233  1.00  0.00    -0.005 A 
HETATM   24  C   UNL     1      43.441 -17.139   1.163  1.00  0.00     0.014 A 
HETATM   25  C   UNL     1      43.983 -17.777   2.283  1.00  0.00     0.001 A 
HETATM   26  C   UNL     1      43.269 -17.818   3.480  1.00  0.00     0.000 A 
HETATM   27  C   UNL     1      42.012 -17.224   3.558  1.00  0.00     0.001 A 
HETATM   28  C   UNL     1      41.472 -16.584   2.440  1.00  0.00     0.014 A 
ENDBRANCH  12  23
TORSDOF 3
ENDMDL
MODEL 10
REMARK VINA RESULT:      -6.5      4.274      7.512
REMARK  3 active torsions:
REMARK  status: ('A' for Active; 'I' for Inactive)
REMARK    1  A    between atoms: C_5  and  C_6 
REMARK    2  A    between atoms: C_10  and  N_11 
REMARK    3  A    between atoms: C_18  and  C_19 
ROOT
HETATM    1  C   UNL     1      41.867 -13.540   0.205  1.00  0.00     0.106 A 
HETATM    2  C   UNL     1      41.922 -13.328  -1.312  1.00  0.00     0.081 A 
HETATM    3  C   UNL     1      42.416 -12.068  -1.761  1.00  0.00     0.100 C 
HETATM    4  N   UNL     1      42.820 -11.044  -2.128  1.00  0.00    -0.191 NA
HETATM    5  C   UNL     1      41.570 -14.290  -2.208  1.00  0.00     0.140 A 
HETATM    6  O   UNL     1      41.129 -15.560  -1.798  1.00  0.00    -0.279 OA
HETATM    7  C   UNL     1      41.156 -15.801  -0.494  1.00  0.00     0.175 A 
HETATM    8  C   UNL     1      41.490 -14.946   0.525  1.00  0.00     0.040 A 
HETATM    9  N   UNL     1      40.846 -16.991   0.072  1.00  0.00    -0.256 N 
HETATM   10  H   UNL     1      40.554 -17.847  -0.385  1.00  0.00     0.191 HD
HETATM   11  N   UNL     1      40.966 -16.977   1.410  1.00  0.00    -0.172 NA
HETATM   12  C   UNL     1      41.390 -15.731   1.711  1.00  0.00     0.099 A 
ENDROOT
BRANCH   1  13
HETATM   13  C   UNL     1      40.843 -12.629   0.871  1.00  0.00    -0.044 A 
HETATM   14  C   UNL     1      41.156 -11.801   1.963  1.00  0.00     0.009 A 
HETATM   15  C   UNL     1      40.169 -11.037   2.591  1.00  0.00     0.007 A 
HETATM   16  C   UNL     1      38.843 -11.087   2.151  1.00  0.00    -0.062 A 
HETATM   17  C   UNL     1      37.777 -10.310   2.867  1.00  0.00     0.048 C 
HETATM   18  C   UNL     1      38.516 -11.923   1.080  1.00  0.00     0.007 A 
HETATM   19  C   UNL     1      39.504 -12.681   0.444  1.00  0.00     0.009 A 
ENDBRANCH   1  13
BRANCH   5  20
HETATM   20  N   UNL     1      41.602 -14.156  -3.578  1.00  0.00    -0.282 NA
HETATM   21  H   UNL     1      41.885 -13.241  -3.921  1.00  0.00     0.126 HD
HETATM   22  H   UNL     1      40.750 -14.499  -4.016  1.00  0.00     0.126 HD
ENDBRANCH   5  20
BRANCH  12  23
HETATM   23  C   UNL     1      41.664 -15.363   3.102  1.00  0.00    -0.005 A 
HETATM   24  C   UNL     1      40.630 -15.058   3.996  1.00  0.00     0.014 A 
HETATM   25  C   UNL     1      40.916 -14.695   5.315  1.00  0.00     0.001 A 
HETATM   26  C   UNL     1      42.238 -14.622   5.751  1.00  0.00     0.000 A 
HETATM   27  C   UNL     1      43.276 -14.910   4.868  1.00  0.00     0.001 A 
HETATM   28  C   UNL     1      42.990 -15.276   3.551  1.00  0.00     0.014 A 
ENDBRANCH  12  23
TORSDOF 3
ENDMDL
