MODEL 1
REMARK VINA RESULT:      -8.2      0.000      0.000
REMARK  2 active torsions:
REMARK  status: ('A' for Active; 'I' for Inactive)
REMARK    1  A    between atoms: C_9  and  N_10 
REMARK    2  A    between atoms: N_13  and  C_15 
ROOT
HETATM    1  N   UNL     1      42.266 -16.622   3.213  1.00  0.00    -0.376 N 
HETATM    2  C   UNL     1      42.836 -16.060   1.975  1.00  0.00     0.150 C 
HETATM    3  C   UNL     1      42.219 -14.677   1.685  1.00  0.00     0.255 C 
HETATM    4  N   UNL     1      40.676 -14.719   1.617  1.00  0.00    -0.064 N 
HETATM    5  H   UNL     1      40.427 -15.296   0.805  1.00  0.00     0.280 HD
HETATM    6  C   UNL     1      40.118 -15.440   2.862  1.00  0.00     0.255 C 
HETATM    7  C   UNL     1      40.802 -16.798   3.108  1.00  0.00     0.150 C 
ENDROOT
BRANCH   1   8
HETATM    8  C   UNL     1      43.014 -17.471   4.025  1.00  0.00     0.053 A 
HETATM    9  C   UNL     1      43.493 -18.778   3.515  1.00  0.00     0.013 A 
HETATM   10  C   UNL     1      43.257 -19.380   2.284  1.00  0.00     0.015 A 
HETATM   11  C   UNL     1      44.234 -19.490   4.458  1.00  0.00     0.075 A 
HETATM   12  C   UNL     1      43.797 -20.649   2.023  1.00  0.00     0.001 A 
HETATM   13  C   UNL     1      44.553 -21.324   2.993  1.00  0.00     0.002 A 
HETATM   14  C   UNL     1      44.774 -20.746   4.241  1.00  0.00     0.025 A 
HETATM   15  S   UNL     1      44.306 -18.594   5.948  1.00  0.00     0.200 S 
HETATM   16  O   UNL     1      45.670 -18.152   6.146  1.00  0.00    -0.218 OA
HETATM   17  O   UNL     1      43.548 -19.310   6.950  1.00  0.00    -0.218 OA
HETATM   18  C   UNL     1      43.355 -17.290   5.314  1.00  0.00     0.144 A 
ENDBRANCH   1   8
BRANCH   4  19
HETATM   19  C   UNL     1      40.074 -13.312   1.434  1.00  0.00     0.188 C 
HETATM   20  C   UNL     1      40.287 -12.794   0.000  1.00  0.00     0.033 C 
HETATM   21  C   UNL     1      39.495 -13.583  -1.042  1.00  0.00     0.002 C 
HETATM   22  C   UNL     1      38.006 -13.620  -0.706  1.00  0.00     0.000 C 
HETATM   23  C   UNL     1      37.749 -14.097   0.721  1.00  0.00     0.002 C 
HETATM   24  C   UNL     1      38.564 -13.293   1.734  1.00  0.00     0.033 C 
ENDBRANCH   4  19
TORSDOF 2
ENDMDL
MODEL 2
REMARK VINA RESULT:      -8.2      0.715      1.769
REMARK  2 active torsions:
REMARK  status: ('A' for Active; 'I' for Inactive)
REMARK    1  A    between atoms: C_9  and  N_10 
REMARK    2  A    between atoms: N_13  and  C_15 
ROOT
HETATM    1  N   UNL     1      42.329 -16.407   3.479  1.00  0.00    -0.376 N 
HETATM    2  C   UNL     1      41.075 -15.841   4.010  1.00  0.00     0.150 C 
HETATM    3  C   UNL     1      40.099 -15.537   2.856  1.00  0.00     0.255 C 
HETATM    4  N   UNL     1      40.717 -14.609   1.787  1.00  0.00    -0.064 N 
HETATM    5  H   UNL     1      40.886 -13.702   2.237  1.00  0.00     0.280 HD
HETATM    6  C   UNL     1      42.094 -15.155   1.355  1.00  0.00     0.255 C 
HETATM    7  C   UNL     1      43.003 -15.467   2.559  1.00  0.00     0.150 C 
ENDROOT
BRANCH   1   8
HETATM    8  C   UNL     1      43.080 -17.310   4.227  1.00  0.00     0.053 A 
HETATM    9  C   UNL     1      43.517 -18.600   3.641  1.00  0.00     0.013 A 
HETATM   10  C   UNL     1      43.237 -19.134   2.388  1.00  0.00     0.015 A 
HETATM   11  C   UNL     1      44.267 -19.373   4.527  1.00  0.00     0.075 A 
HETATM   12  C   UNL     1      43.742 -20.399   2.050  1.00  0.00     0.001 A 
HETATM   13  C   UNL     1      44.509 -21.137   2.964  1.00  0.00     0.002 A 
HETATM   14  C   UNL     1      44.774 -20.627   4.233  1.00  0.00     0.025 A 
HETATM   15  S   UNL     1      44.397 -18.554   6.057  1.00  0.00     0.200 S 
HETATM   16  O   UNL     1      45.774 -18.151   6.239  1.00  0.00    -0.218 OA
HETATM   17  O   UNL     1      43.649 -19.304   7.042  1.00  0.00    -0.218 OA
HETATM   18  C   UNL     1      43.458 -17.202   5.514  1.00  0.00     0.144 A 
ENDBRANCH   1   8
BRANCH   4  19
HETATM   19  C   UNL     1      39.767 -14.403   0.591  1.00  0.00     0.188 C 
HETATM   20  C   UNL     1      38.364 -13.973   1.058  1.00  0.00     0.033 C 
HETATM   21  C   UNL     1      38.347 -12.578   1.683  1.00  0.00     0.002 C 
HETATM   22  C   UNL     1      38.936 -11.533   0.739  1.00  0.00     0.000 C 
HETATM   23  C   UNL     1      40.316 -11.935   0.223  1.00  0.00     0.002 C 
HETATM   24  C   UNL     1      40.297 -13.337  -0.384  1.00  0.00     0.033 C 
ENDBRANCH   4  19
TORSDOF 2
ENDMDL
MODEL 3
REMARK VINA RESULT:      -7.9      2.230      2.930
REMARK  2 active torsions:
REMARK  status: ('A' for Active; 'I' for Inactive)
REMARK    1  A    between atoms: C_9  and  N_10 
REMARK    2  A    between atoms: N_13  and  C_15 
ROOT
HETATM    1  N   UNL     1      40.998 -16.017   2.006  1.00  0.00    -0.376 N 
HETATM    2  C   UNL     1      41.220 -16.958   0.892  1.00  0.00     0.150 C 
HETATM    3  C   UNL     1      41.369 -16.186  -0.434  1.00  0.00     0.255 C 
HETATM    4  N   UNL     1      40.163 -15.263  -0.719  1.00  0.00    -0.064 N 
HETATM    5  H   UNL     1      39.345 -15.869  -0.855  1.00  0.00     0.280 HD
HETATM    6  C   UNL     1      39.869 -14.391   0.519  1.00  0.00     0.255 C 
HETATM    7  C   UNL     1      39.767 -15.224   1.811  1.00  0.00     0.150 C 
ENDROOT
BRANCH   1   8
HETATM    8  C   UNL     1      41.440 -16.314   3.293  1.00  0.00     0.053 A 
HETATM    9  C   UNL     1      42.425 -17.399   3.524  1.00  0.00     0.013 A 
HETATM   10  C   UNL     1      42.988 -18.283   2.610  1.00  0.00     0.015 A 
HETATM   11  C   UNL     1      42.760 -17.549   4.869  1.00  0.00     0.075 A 
HETATM   12  C   UNL     1      43.890 -19.258   3.062  1.00  0.00     0.001 A 
HETATM   13  C   UNL     1      44.216 -19.364   4.422  1.00  0.00     0.002 A 
HETATM   14  C   UNL     1      43.639 -18.503   5.353  1.00  0.00     0.025 A 
HETATM   15  S   UNL     1      41.859 -16.413   5.832  1.00  0.00     0.200 S 
HETATM   16  O   UNL     1      42.783 -15.437   6.365  1.00  0.00    -0.218 OA
HETATM   17  O   UNL     1      40.919 -17.150   6.648  1.00  0.00    -0.218 OA
HETATM   18  C   UNL     1      41.044 -15.754   4.450  1.00  0.00     0.144 A 
ENDBRANCH   1   8
BRANCH   4  19
HETATM   19  C   UNL     1      40.377 -14.421  -1.993  1.00  0.00     0.188 C 
HETATM   20  C   UNL     1      40.707 -15.312  -3.204  1.00  0.00     0.033 C 
HETATM   21  C   UNL     1      39.534 -16.191  -3.635  1.00  0.00     0.002 C 
HETATM   22  C   UNL     1      38.283 -15.361  -3.911  1.00  0.00     0.000 C 
HETATM   23  C   UNL     1      37.935 -14.436  -2.748  1.00  0.00     0.002 C 
HETATM   24  C   UNL     1      39.135 -13.581  -2.338  1.00  0.00     0.033 C 
ENDBRANCH   4  19
TORSDOF 2
ENDMDL
MODEL 4
REMARK VINA RESULT:      -7.7      2.740      4.008
REMARK  2 active torsions:
REMARK  status: ('A' for Active; 'I' for Inactive)
REMARK    1  A    between atoms: C_9  and  N_10 
REMARK    2  A    between atoms: N_13  and  C_15 
ROOT
HETATM    1  N   UNL     1      40.937 -16.038   2.073  1.00  0.00    -0.376 N 
HETATM    2  C   UNL     1      41.281 -16.928   0.948  1.00  0.00     0.150 C 
HETATM    3  C   UNL     1      41.425 -16.110  -0.351  1.00  0.00     0.255 C 
HETATM    4  N   UNL     1      40.162 -15.278  -0.668  1.00  0.00    -0.064 N 
HETATM    5  H   UNL     1      39.403 -15.943  -0.856  1.00  0.00     0.280 HD
HETATM    6  C   UNL     1      39.746 -14.466   0.576  1.00  0.00     0.255 C 
HETATM    7  C   UNL     1      39.655 -15.340   1.841  1.00  0.00     0.150 C 
ENDROOT
BRANCH   1   8
HETATM    8  C   UNL     1      41.345 -16.335   3.371  1.00  0.00     0.053 A 
HETATM    9  C   UNL     1      42.311 -15.462   4.080  1.00  0.00     0.013 A 
HETATM   10  C   UNL     1      42.981 -14.336   3.614  1.00  0.00     0.015 A 
HETATM   11  C   UNL     1      42.597 -15.904   5.371  1.00  0.00     0.075 A 
HETATM   12  C   UNL     1      43.881 -13.671   4.461  1.00  0.00     0.001 A 
HETATM   13  C   UNL     1      44.127 -14.138   5.761  1.00  0.00     0.002 A 
HETATM   14  C   UNL     1      43.484 -15.281   6.231  1.00  0.00     0.025 A 
HETATM   15  S   UNL     1      41.731 -17.379   5.693  1.00  0.00     0.200 S 
HETATM   16  O   UNL     1      40.723 -17.103   6.694  1.00  0.00    -0.218 OA
HETATM   17  O   UNL     1      42.689 -18.458   5.803  1.00  0.00    -0.218 OA
HETATM   18  C   UNL     1      41.003 -17.400   4.119  1.00  0.00     0.144 A 
ENDBRANCH   1   8
BRANCH   4  19
HETATM   19  C   UNL     1      40.363 -14.387  -1.910  1.00  0.00     0.188 C 
HETATM   20  C   UNL     1      40.771 -15.221  -3.138  1.00  0.00     0.033 C 
HETATM   21  C   UNL     1      39.658 -16.147  -3.626  1.00  0.00     0.002 C 
HETATM   22  C   UNL     1      38.371 -15.375  -3.911  1.00  0.00     0.000 C 
HETATM   23  C   UNL     1      37.946 -14.506  -2.731  1.00  0.00     0.002 C 
HETATM   24  C   UNL     1      39.087 -13.603  -2.264  1.00  0.00     0.033 C 
ENDBRANCH   4  19
TORSDOF 2
ENDMDL
MODEL 5
REMARK VINA RESULT:      -7.5      1.931      2.854
REMARK  2 active torsions:
REMARK  status: ('A' for Active; 'I' for Inactive)
REMARK    1  A    between atoms: C_9  and  N_10 
REMARK    2  A    between atoms: N_13  and  C_15 
ROOT
HETATM    1  N   UNL     1      42.397 -15.411   4.563  1.00  0.00    -0.376 N 
HETATM    2  C   UNL     1      40.974 -15.238   4.912  1.00  0.00     0.150 C 
HETATM    3  C   UNL     1      40.248 -14.447   3.806  1.00  0.00     0.255 C 
HETATM    4  N   UNL     1      40.918 -13.085   3.516  1.00  0.00    -0.064 N 
HETATM    5  H   UNL     1      40.815 -12.513   4.363  1.00  0.00     0.280 HD
HETATM    6  C   UNL     1      42.432 -13.284   3.295  1.00  0.00     0.255 C 
HETATM    7  C   UNL     1      43.083 -14.110   4.420  1.00  0.00     0.150 C 
ENDROOT
BRANCH   1   8
HETATM    8  C   UNL     1      43.107 -16.532   4.986  1.00  0.00     0.053 A 
HETATM    9  C   UNL     1      43.425 -17.628   4.040  1.00  0.00     0.013 A 
HETATM   10  C   UNL     1      43.059 -17.771   2.706  1.00  0.00     0.015 A 
HETATM   11  C   UNL     1      44.148 -18.663   4.632  1.00  0.00     0.075 A 
HETATM   12  C   UNL     1      43.456 -18.917   2.001  1.00  0.00     0.001 A 
HETATM   13  C   UNL     1      44.200 -19.928   2.629  1.00  0.00     0.002 A 
HETATM   14  C   UNL     1      44.550 -19.812   3.972  1.00  0.00     0.025 A 
HETATM   15  S   UNL     1      44.397 -18.318   6.319  1.00  0.00     0.200 S 
HETATM   16  O   UNL     1      45.806 -18.066   6.528  1.00  0.00    -0.218 OA
HETATM   17  O   UNL     1      43.633 -19.268   7.098  1.00  0.00    -0.218 OA
HETATM   18  C   UNL     1      43.540 -16.813   6.228  1.00  0.00     0.144 A 
ENDBRANCH   1   8
BRANCH   4  19
HETATM   19  C   UNL     1      40.243 -12.356   2.337  1.00  0.00     0.188 C 
HETATM   20  C   UNL     1      38.746 -12.121   2.607  1.00  0.00     0.033 C 
HETATM   21  C   UNL     1      38.494 -11.127   3.740  1.00  0.00     0.002 C 
HETATM   22  C   UNL     1      39.205  -9.799   3.490  1.00  0.00     0.000 C 
HETATM   23  C   UNL     1      40.688  -9.987   3.185  1.00  0.00     0.002 C 
HETATM   24  C   UNL     1      40.901 -10.994   2.055  1.00  0.00     0.033 C 
ENDBRANCH   4  19
TORSDOF 2
ENDMDL
MODEL 6
REMARK VINA RESULT:      -7.4      1.502      2.429
REMARK  2 active torsions:
REMARK  status: ('A' for Active; 'I' for Inactive)
REMARK    1  A    between atoms: C_9  and  N_10 
REMARK    2  A    between atoms: N_13  and  C_15 
ROOT
HETATM    1  N   UNL     1      41.526 -15.231   3.074  1.00  0.00    -0.376 N 
HETATM    2  C   UNL     1      40.081 -14.950   3.162  1.00  0.00     0.150 C 
HETATM    3  C   UNL     1      39.451 -14.956   1.755  1.00  0.00     0.255 C 
HETATM    4  N   UNL     1      40.150 -13.973   0.790  1.00  0.00    -0.064 N 
HETATM    5  H   UNL     1      39.982 -13.026   1.152  1.00  0.00     0.280 HD
HETATM    6  C   UNL     1      41.676 -14.199   0.828  1.00  0.00     0.255 C 
HETATM    7  C   UNL     1      42.229 -14.214   2.265  1.00  0.00     0.150 C 
ENDROOT
BRANCH   1   8
HETATM    8  C   UNL     1      42.193 -15.884   4.107  1.00  0.00     0.053 A 
HETATM    9  C   UNL     1      42.894 -17.168   3.865  1.00  0.00     0.013 A 
HETATM   10  C   UNL     1      42.960 -17.926   2.701  1.00  0.00     0.015 A 
HETATM   11  C   UNL     1      43.514 -17.672   5.008  1.00  0.00     0.075 A 
HETATM   12  C   UNL     1      43.669 -19.136   2.706  1.00  0.00     0.001 A 
HETATM   13  C   UNL     1      44.295 -19.600   3.873  1.00  0.00     0.002 A 
HETATM   14  C   UNL     1      44.214 -18.865   5.054  1.00  0.00     0.025 A 
HETATM   15  S   UNL     1      43.209 -16.617   6.357  1.00  0.00     0.200 S 
HETATM   16  O   UNL     1      44.457 -15.986   6.730  1.00  0.00    -0.218 OA
HETATM   17  O   UNL     1      42.354 -17.310   7.296  1.00  0.00    -0.218 OA
HETATM   18  C   UNL     1      42.263 -15.522   5.401  1.00  0.00     0.144 A 
ENDBRANCH   1   8
BRANCH   4  19
HETATM   19  C   UNL     1      39.577 -14.070  -0.638  1.00  0.00     0.188 C 
HETATM   20  C   UNL     1      38.055 -13.839  -0.648  1.00  0.00     0.033 C 
HETATM   21  C   UNL     1      37.668 -12.408  -0.280  1.00  0.00     0.002 C 
HETATM   22  C   UNL     1      38.365 -11.389  -1.178  1.00  0.00     0.000 C 
HETATM   23  C   UNL     1      39.876 -11.601  -1.225  1.00  0.00     0.002 C 
HETATM   24  C   UNL     1      40.225 -13.045  -1.585  1.00  0.00     0.033 C 
ENDBRANCH   4  19
TORSDOF 2
ENDMDL
MODEL 7
REMARK VINA RESULT:      -7.3      4.165      7.859
REMARK  2 active torsions:
REMARK  status: ('A' for Active; 'I' for Inactive)
REMARK    1  A    between atoms: C_9  and  N_10 
REMARK    2  A    between atoms: N_13  and  C_15 
ROOT
HETATM    1  N   UNL     1      41.815 -15.726   1.497  1.00  0.00    -0.376 N 
HETATM    2  C   UNL     1      42.521 -17.018   1.417  1.00  0.00     0.150 C 
HETATM    3  C   UNL     1      42.350 -17.801   2.735  1.00  0.00     0.255 C 
HETATM    4  N   UNL     1      42.812 -16.991   3.967  1.00  0.00    -0.064 N 
HETATM    5  H   UNL     1      43.825 -16.849   3.872  1.00  0.00     0.280 HD
HETATM    6  C   UNL     1      42.164 -15.591   3.946  1.00  0.00     0.255 C 
HETATM    7  C   UNL     1      42.345 -14.883   2.590  1.00  0.00     0.150 C 
ENDROOT
BRANCH   1   8
HETATM    8  C   UNL     1      41.273 -15.134   0.359  1.00  0.00     0.053 A 
HETATM    9  C   UNL     1      39.890 -14.602   0.367  1.00  0.00     0.013 A 
HETATM   10  C   UNL     1      38.939 -14.645   1.381  1.00  0.00     0.015 A 
HETATM   11  C   UNL     1      39.519 -14.037  -0.852  1.00  0.00     0.075 A 
HETATM   12  C   UNL     1      37.668 -14.092   1.157  1.00  0.00     0.001 A 
HETATM   13  C   UNL     1      37.340 -13.515  -0.079  1.00  0.00     0.002 A 
HETATM   14  C   UNL     1      38.274 -13.490  -1.113  1.00  0.00     0.025 A 
HETATM   15  S   UNL     1      40.823 -14.191  -1.994  1.00  0.00     0.200 S 
HETATM   16  O   UNL     1      41.347 -12.871  -2.265  1.00  0.00    -0.218 OA
HETATM   17  O   UNL     1      40.416 -15.115  -3.031  1.00  0.00    -0.218 OA
HETATM   18  C   UNL     1      41.844 -15.004  -0.853  1.00  0.00     0.144 A 
ENDBRANCH   1   8
BRANCH   4  19
HETATM   19  C   UNL     1      42.535 -17.746   5.282  1.00  0.00     0.188 C 
HETATM   20  C   UNL     1      43.317 -19.071   5.343  1.00  0.00     0.033 C 
HETATM   21  C   UNL     1      44.828 -18.867   5.441  1.00  0.00     0.002 C 
HETATM   22  C   UNL     1      45.198 -17.977   6.626  1.00  0.00     0.000 C 
HETATM   23  C   UNL     1      44.421 -16.664   6.625  1.00  0.00     0.002 C 
HETATM   24  C   UNL     1      42.916 -16.906   6.515  1.00  0.00     0.033 C 
ENDBRANCH   4  19
TORSDOF 2
ENDMDL
MODEL 8
REMARK VINA RESULT:      -7.2      4.455      5.602
REMARK  2 active torsions:
REMARK  status: ('A' for Active; 'I' for Inactive)
REMARK    1  A    between atoms: C_9  and  N_10 
REMARK    2  A    between atoms: N_13  and  C_15 
ROOT
HETATM    1  N   UNL     1      42.197 -15.000   4.945  1.00  0.00    -0.376 N 
HETATM    2  C   UNL     1      40.894 -15.068   5.632  1.00  0.00     0.150 C 
HETATM    3  C   UNL     1      40.307 -13.652   5.801  1.00  0.00     0.255 C 
HETATM    4  N   UNL     1      41.273 -12.696   6.536  1.00  0.00    -0.064 N 
HETATM    5  H   UNL     1      41.381 -13.054   7.492  1.00  0.00     0.280 HD
HETATM    6  C   UNL     1      42.667 -12.754   5.878  1.00  0.00     0.255 C 
HETATM    7  C   UNL     1      43.175 -14.199   5.712  1.00  0.00     0.150 C 
ENDROOT
BRANCH   1   8
HETATM    8  C   UNL     1      42.634 -16.043   4.133  1.00  0.00     0.053 A 
HETATM    9  C   UNL     1      43.290 -17.236   4.719  1.00  0.00     0.013 A 
HETATM   10  C   UNL     1      43.625 -17.491   6.045  1.00  0.00     0.015 A 
HETATM   11  C   UNL     1      43.652 -18.183   3.761  1.00  0.00     0.075 A 
HETATM   12  C   UNL     1      44.272 -18.692   6.373  1.00  0.00     0.001 A 
HETATM   13  C   UNL     1      44.602 -19.628   5.381  1.00  0.00     0.002 A 
HETATM   14  C   UNL     1      44.298 -19.373   4.045  1.00  0.00     0.025 A 
HETATM   15  S   UNL     1      43.233 -17.604   2.174  1.00  0.00     0.200 S 
HETATM   16  O   UNL     1      42.159 -18.426   1.661  1.00  0.00    -0.218 OA
HETATM   17  O   UNL     1      44.455 -17.343   1.445  1.00  0.00    -0.218 OA
HETATM   18  C   UNL     1      42.589 -16.117   2.790  1.00  0.00     0.144 A 
ENDBRANCH   1   8
BRANCH   4  19
HETATM   19  C   UNL     1      40.714 -11.260   6.601  1.00  0.00     0.188 C 
HETATM   20  C   UNL     1      39.361 -11.218   7.333  1.00  0.00     0.033 C 
HETATM   21  C   UNL     1      39.478 -11.548   8.820  1.00  0.00     0.002 C 
HETATM   22  C   UNL     1      40.488 -10.641   9.518  1.00  0.00     0.000 C 
HETATM   23  C   UNL     1      41.838 -10.625   8.806  1.00  0.00     0.002 C 
HETATM   24  C   UNL     1      41.680 -10.303   7.320  1.00  0.00     0.033 C 
ENDBRANCH   4  19
TORSDOF 2
ENDMDL
MODEL 9
REMARK VINA RESULT:      -7.1      1.756      2.592
REMARK  2 active torsions:
REMARK  status: ('A' for Active; 'I' for Inactive)
REMARK    1  A    between atoms: C_9  and  N_10 
REMARK    2  A    between atoms: N_13  and  C_15 
ROOT
HETATM    1  N   UNL     1      42.095 -17.333   2.046  1.00  0.00    -0.376 N 
HETATM    2  C   UNL     1      42.198 -16.901   0.640  1.00  0.00     0.150 C 
HETATM    3  C   UNL     1      41.809 -15.415   0.509  1.00  0.00     0.255 C 
HETATM    4  N   UNL     1      40.402 -15.120   1.078  1.00  0.00    -0.064 N 
HETATM    5  H   UNL     1      39.728 -15.624   0.490  1.00  0.00     0.280 HD
HETATM    6  C   UNL     1      40.280 -15.709   2.499  1.00  0.00     0.255 C 
HETATM    7  C   UNL     1      40.717 -17.185   2.560  1.00  0.00     0.150 C 
ENDROOT
BRANCH   1   8
HETATM    8  C   UNL     1      42.925 -18.329   2.552  1.00  0.00     0.053 A 
HETATM    9  C   UNL     1      43.513 -18.209   3.908  1.00  0.00     0.013 A 
HETATM   10  C   UNL     1      43.418 -17.161   4.816  1.00  0.00     0.015 A 
HETATM   11  C   UNL     1      44.309 -19.301   4.253  1.00  0.00     0.075 A 
HETATM   12  C   UNL     1      44.086 -17.253   6.047  1.00  0.00     0.001 A 
HETATM   13  C   UNL     1      44.861 -18.378   6.364  1.00  0.00     0.002 A 
HETATM   14  C   UNL     1      44.989 -19.424   5.452  1.00  0.00     0.025 A 
HETATM   15  S   UNL     1      44.366 -20.430   2.929  1.00  0.00     0.200 S 
HETATM   16  O   UNL     1      43.658 -21.628   3.324  1.00  0.00    -0.218 OA
HETATM   17  O   UNL     1      45.710 -20.438   2.393  1.00  0.00    -0.218 OA
HETATM   18  C   UNL     1      43.343 -19.447   1.931  1.00  0.00     0.144 A 
ENDBRANCH   1   8
BRANCH   4  19
HETATM   19  C   UNL     1      40.074 -13.614   1.037  1.00  0.00     0.188 C 
HETATM   20  C   UNL     1      40.168 -13.060  -0.396  1.00  0.00     0.033 C 
HETATM   21  C   UNL     1      39.085 -13.616  -1.321  1.00  0.00     0.002 C 
HETATM   22  C   UNL     1      37.688 -13.385  -0.752  1.00  0.00     0.000 C 
HETATM   23  C   UNL     1      37.558 -13.890   0.683  1.00  0.00     0.002 C 
HETATM   24  C   UNL     1      38.662 -13.322   1.575  1.00  0.00     0.033 C 
ENDBRANCH   4  19
TORSDOF 2
ENDMDL
MODEL 10
REMARK VINA RESULT:      -7.0      4.879      8.043
REMARK  2 active torsions:
REMARK  status: ('A' for Active; 'I' for Inactive)
REMARK    1  A    between atoms: C_9  and  N_10 
REMARK    2  A    between atoms: N_13  and  C_15 
ROOT
HETATM    1  N   UNL     1      40.824 -15.109   0.733  1.00  0.00    -0.376 N 
HETATM    2  C   UNL     1      39.850 -15.740   1.642  1.00  0.00     0.150 C 
HETATM    3  C   UNL     1      40.023 -15.190   3.072  1.00  0.00     0.255 C 
HETATM    4  N   UNL     1      41.466 -15.359   3.600  1.00  0.00    -0.064 N 
HETATM    5  H   UNL     1      41.640 -16.367   3.681  1.00  0.00     0.280 HD
HETATM    6  C   UNL     1      42.469 -14.816   2.561  1.00  0.00     0.255 C 
HETATM    7  C   UNL     1      42.215 -15.383   1.152  1.00  0.00     0.150 C 
ENDROOT
BRANCH   1   8
HETATM    8  C   UNL     1      40.526 -14.916  -0.614  1.00  0.00     0.053 A 
HETATM    9  C   UNL     1      39.446 -13.987  -1.025  1.00  0.00     0.013 A 
HETATM   10  C   UNL     1      38.568 -13.256  -0.232  1.00  0.00     0.015 A 
HETATM   11  C   UNL     1      39.294 -13.910  -2.409  1.00  0.00     0.075 A 
HETATM   12  C   UNL     1      37.596 -12.450  -0.844  1.00  0.00     0.001 A 
HETATM   13  C   UNL     1      37.488 -12.386  -2.241  1.00  0.00     0.002 A 
HETATM   14  C   UNL     1      38.343 -13.133  -3.047  1.00  0.00     0.025 A 
HETATM   15  S   UNL     1      40.422 -14.984  -3.186  1.00  0.00     0.200 S 
HETATM   16  O   UNL     1      41.402 -14.182  -3.886  1.00  0.00    -0.218 OA
HETATM   17  O   UNL     1      39.678 -16.057  -3.808  1.00  0.00    -0.218 OA
HETATM   18  C   UNL     1      41.081 -15.527  -1.676  1.00  0.00     0.144 A 
ENDBRANCH   1   8
BRANCH   4  19
HETATM   19  C   UNL     1      41.646 -14.708   4.986  1.00  0.00     0.188 C 
HETATM   20  C   UNL     1      40.609 -15.238   5.993  1.00  0.00     0.033 C 
HETATM   21  C   UNL     1      40.814 -16.712   6.339  1.00  0.00     0.002 C 
HETATM   22  C   UNL     1      42.230 -16.978   6.845  1.00  0.00     0.000 C 
HETATM   23  C   UNL     1      43.293 -16.438   5.892  1.00  0.00     0.002 C 
HETATM   24  C   UNL     1      43.050 -14.966   5.561  1.00  0.00     0.033 C 
ENDBRANCH   4  19
TORSDOF 2
ENDMDL
