MODEL 1
REMARK VINA RESULT:      -8.7      0.000      0.000
REMARK  7 active torsions:
REMARK  status: ('A' for Active; 'I' for Inactive)
REMARK    1  A    between atoms: O_2  and  C_3 
REMARK    2  A    between atoms: C_6  and  C_7 
REMARK    3  A    between atoms: C_7  and  N_8 
REMARK    4  A    between atoms: C_7  and  C_25 
REMARK    5  A    between atoms: N_8  and  C_11 
REMARK    6  A    between atoms: C_11  and  C_12 
REMARK       I    between atoms: C_12  and  N_13 
REMARK    7  A    between atoms: N_13  and  C_14 
ROOT
HETATM    1  N   UNL     1      43.648 -18.444   1.684  1.00  0.00    -0.055 N 
HETATM    2  H   UNL     1      44.266 -19.075   1.150  1.00  0.00     0.278 HD
HETATM    3  H   UNL     1      42.721 -18.871   1.574  1.00  0.00     0.278 HD
ENDROOT
BRANCH   1   4
HETATM    4  C   UNL     1      44.008 -18.462   3.136  1.00  0.00     0.252 C 
BRANCH   4   5
HETATM    5  C   UNL     1      43.095 -17.650   4.054  1.00  0.00    -0.023 A 
HETATM    6  C   UNL     1      43.532 -16.399   4.539  1.00  0.00     0.012 A 
HETATM    7  C   UNL     1      42.716 -15.596   5.347  1.00  0.00     0.037 A 
HETATM    8  C   UNL     1      41.429 -16.010   5.669  1.00  0.00     0.068 A 
HETATM    9  C   UNL     1      40.970 -17.230   5.175  1.00  0.00     0.037 A 
HETATM   10  C   UNL     1      41.782 -18.037   4.370  1.00  0.00     0.012 A 
BRANCH   8  11
HETATM   11  O   UNL     1      40.528 -15.330   6.436  1.00  0.00    -0.356 OA
HETATM   12  C   UNL     1      40.034 -14.098   5.921  1.00  0.00     0.210 C 
ENDBRANCH   8  11
ENDBRANCH   4   5
BRANCH   4  13
HETATM   13  C   UNL     1      44.292 -19.899   3.567  1.00  0.00    -0.023 A 
HETATM   14  C   UNL     1      44.211 -20.934   2.618  1.00  0.00     0.009 A 
HETATM   15  C   UNL     1      44.409 -22.263   2.995  1.00  0.00     0.001 A 
HETATM   16  C   UNL     1      44.682 -22.578   4.323  1.00  0.00     0.000 A 
HETATM   17  C   UNL     1      44.763 -21.567   5.277  1.00  0.00     0.001 A 
HETATM   18  C   UNL     1      44.566 -20.236   4.905  1.00  0.00     0.009 A 
ENDBRANCH   4  13
ENDBRANCH   1   4
BRANCH   1  19
HETATM   19  C   UNL     1      43.627 -17.113   0.971  1.00  0.00     0.336 C 
BRANCH  19  20
HETATM   20  C   UNL     1      42.211 -16.843   0.462  1.00  0.00     0.248 C 
HETATM   21  N   UNL     1      42.123 -15.850  -0.489  1.00  0.00    -0.326 N 
HETATM   22  H   UNL     1      42.975 -15.385  -0.787  1.00  0.00     0.169 HD
HETATM   23  O   UNL     1      41.298 -17.517   0.939  1.00  0.00    -0.271 OA
BRANCH  21  24
HETATM   24  C   UNL     1      40.947 -15.379  -1.120  1.00  0.00     0.037 A 
HETATM   25  C   UNL     1      40.496 -15.838  -2.364  1.00  0.00     0.061 A 
HETATM   26  C   UNL     1      39.329 -15.290  -2.850  1.00  0.00     0.065 A 
HETATM   27  C   UNL     1      38.610 -14.320  -2.156  1.00  0.00     0.063 A 
HETATM   28  N   UNL     1      38.655 -15.551  -4.038  1.00  0.00    -0.306 N 
HETATM   29  N   UNL     1      37.496 -13.985  -2.915  1.00  0.00    -0.307 N 
HETATM   30  C   UNL     1      39.021 -13.845  -0.937  1.00  0.00     0.034 A 
HETATM   31  C   UNL     1      37.508 -14.745  -4.094  1.00  0.00     0.325 A 
HETATM   32  H   UNL     1      36.776 -13.316  -2.693  1.00  0.00     0.170 HD
HETATM   33  O   UNL     1      36.685 -14.712  -4.990  1.00  0.00    -0.247 OA
HETATM   34  C   UNL     1      40.207 -14.386  -0.420  1.00  0.00     0.032 A 
HETATM   35  H   UNL     1      38.910 -16.199  -4.765  1.00  0.00     0.170 HD
ENDBRANCH  21  24
ENDBRANCH  19  20
ENDBRANCH   1  19
TORSDOF 7
ENDMDL
MODEL 2
REMARK VINA RESULT:      -8.5      1.665      2.334
REMARK  7 active torsions:
REMARK  status: ('A' for Active; 'I' for Inactive)
REMARK    1  A    between atoms: O_2  and  C_3 
REMARK    2  A    between atoms: C_6  and  C_7 
REMARK    3  A    between atoms: C_7  and  N_8 
REMARK    4  A    between atoms: C_7  and  C_25 
REMARK    5  A    between atoms: N_8  and  C_11 
REMARK    6  A    between atoms: C_11  and  C_12 
REMARK       I    between atoms: C_12  and  N_13 
REMARK    7  A    between atoms: N_13  and  C_14 
ROOT
HETATM    1  N   UNL     1      43.594 -18.732   1.610  1.00  0.00    -0.055 N 
HETATM    2  H   UNL     1      44.162 -19.453   1.137  1.00  0.00     0.278 HD
HETATM    3  H   UNL     1      42.642 -19.116   1.567  1.00  0.00     0.278 HD
ENDROOT
BRANCH   1   4
HETATM    4  C   UNL     1      43.992 -18.609   3.047  1.00  0.00     0.252 C 
BRANCH   4   5
HETATM    5  C   UNL     1      43.097 -17.717   3.906  1.00  0.00    -0.023 A 
HETATM    6  C   UNL     1      41.898 -18.239   4.437  1.00  0.00     0.012 A 
HETATM    7  C   UNL     1      41.066 -17.477   5.266  1.00  0.00     0.037 A 
HETATM    8  C   UNL     1      41.423 -16.177   5.610  1.00  0.00     0.068 A 
HETATM    9  C   UNL     1      42.618 -15.655   5.118  1.00  0.00     0.037 A 
HETATM   10  C   UNL     1      43.452 -16.411   4.287  1.00  0.00     0.012 A 
BRANCH   8  11
HETATM   11  O   UNL     1      40.714 -15.329   6.410  1.00  0.00    -0.356 OA
HETATM   12  C   UNL     1      40.192 -14.150   5.806  1.00  0.00     0.210 C 
ENDBRANCH   8  11
ENDBRANCH   4   5
BRANCH   4  13
HETATM   13  C   UNL     1      44.299 -19.995   3.606  1.00  0.00    -0.023 A 
HETATM   14  C   UNL     1      44.286 -21.107   2.744  1.00  0.00     0.009 A 
HETATM   15  C   UNL     1      44.506 -22.393   3.238  1.00  0.00     0.001 A 
HETATM   16  C   UNL     1      44.734 -22.589   4.597  1.00  0.00     0.000 A 
HETATM   17  C   UNL     1      44.747 -21.502   5.466  1.00  0.00     0.001 A 
HETATM   18  C   UNL     1      44.528 -20.212   4.977  1.00  0.00     0.009 A 
ENDBRANCH   4  13
ENDBRANCH   1   4
BRANCH   1  19
HETATM   19  C   UNL     1      43.626 -17.490   0.751  1.00  0.00     0.336 C 
BRANCH  19  20
HETATM   20  C   UNL     1      42.202 -16.954   0.598  1.00  0.00     0.248 C 
HETATM   21  N   UNL     1      42.121 -15.689   0.058  1.00  0.00    -0.326 N 
HETATM   22  H   UNL     1      42.980 -15.216  -0.203  1.00  0.00     0.169 HD
HETATM   23  O   UNL     1      41.279 -17.680   0.966  1.00  0.00    -0.271 OA
BRANCH  21  24
HETATM   24  C   UNL     1      40.943 -14.940  -0.180  1.00  0.00     0.037 A 
HETATM   25  C   UNL     1      40.164 -14.376   0.837  1.00  0.00     0.061 A 
HETATM   26  C   UNL     1      39.046 -13.667   0.452  1.00  0.00     0.065 A 
HETATM   27  C   UNL     1      38.684 -13.506  -0.883  1.00  0.00     0.063 A 
HETATM   28  N   UNL     1      38.103 -13.007   1.232  1.00  0.00    -0.306 N 
HETATM   29  N   UNL     1      37.521 -12.748  -0.925  1.00  0.00    -0.307 N 
HETATM   30  C   UNL     1      39.422 -14.045  -1.905  1.00  0.00     0.034 A 
HETATM   31  C   UNL     1      37.144 -12.427   0.388  1.00  0.00     0.325 A 
HETATM   32  H   UNL     1      37.004 -12.455  -1.738  1.00  0.00     0.170 HD
HETATM   33  O   UNL     1      36.175 -11.775   0.729  1.00  0.00    -0.247 OA
HETATM   34  C   UNL     1      40.564 -14.771  -1.540  1.00  0.00     0.032 A 
HETATM   35  H   UNL     1      38.072 -12.933   2.236  1.00  0.00     0.170 HD
ENDBRANCH  21  24
ENDBRANCH  19  20
ENDBRANCH   1  19
TORSDOF 7
ENDMDL
MODEL 3
REMARK VINA RESULT:      -8.5      2.382      2.658
REMARK  7 active torsions:
REMARK  status: ('A' for Active; 'I' for Inactive)
REMARK    1  A    between atoms: O_2  and  C_3 
REMARK    2  A    between atoms: C_6  and  C_7 
REMARK    3  A    between atoms: C_7  and  N_8 
REMARK    4  A    between atoms: C_7  and  C_25 
REMARK    5  A    between atoms: N_8  and  C_11 
REMARK    6  A    between atoms: C_11  and  C_12 
REMARK       I    between atoms: C_12  and  N_13 
REMARK    7  A    between atoms: N_13  and  C_14 
ROOT
HETATM    1  N   UNL     1      43.264 -17.433   0.961  1.00  0.00    -0.055 N 
HETATM    2  H   UNL     1      43.795 -16.646   0.556  1.00  0.00     0.278 HD
HETATM    3  H   UNL     1      43.550 -18.234   0.385  1.00  0.00     0.278 HD
ENDROOT
BRANCH   1   4
HETATM    4  C   UNL     1      43.695 -17.686   2.372  1.00  0.00     0.252 C 
BRANCH   4   5
HETATM    5  C   UNL     1      42.894 -16.955   3.448  1.00  0.00    -0.023 A 
HETATM    6  C   UNL     1      43.198 -15.610   3.748  1.00  0.00     0.012 A 
HETATM    7  C   UNL     1      42.465 -14.882   4.694  1.00  0.00     0.037 A 
HETATM    8  C   UNL     1      41.390 -15.472   5.349  1.00  0.00     0.068 A 
HETATM    9  C   UNL     1      41.057 -16.791   5.045  1.00  0.00     0.037 A 
HETATM   10  C   UNL     1      41.787 -17.523   4.102  1.00  0.00     0.012 A 
BRANCH   8  11
HETATM   11  O   UNL     1      40.589 -14.882   6.283  1.00  0.00    -0.356 OA
HETATM   12  C   UNL     1      39.914 -13.688   5.902  1.00  0.00     0.210 C 
ENDBRANCH   8  11
ENDBRANCH   4   5
BRANCH   4  13
HETATM   13  C   UNL     1      43.890 -19.185   2.578  1.00  0.00    -0.023 A 
HETATM   14  C   UNL     1      44.574 -19.643   3.719  1.00  0.00     0.009 A 
HETATM   15  C   UNL     1      44.818 -21.005   3.904  1.00  0.00     0.001 A 
HETATM   16  C   UNL     1      44.391 -21.926   2.952  1.00  0.00     0.000 A 
HETATM   17  C   UNL     1      43.715 -21.492   1.815  1.00  0.00     0.001 A 
HETATM   18  C   UNL     1      43.468 -20.131   1.625  1.00  0.00     0.009 A 
ENDBRANCH   4  13
ENDBRANCH   1   4
BRANCH   1  19
HETATM   19  C   UNL     1      41.799 -17.180   0.697  1.00  0.00     0.336 C 
BRANCH  19  20
HETATM   20  C   UNL     1      41.639 -15.803   0.053  1.00  0.00     0.248 C 
HETATM   21  N   UNL     1      41.154 -15.826  -1.237  1.00  0.00    -0.326 N 
HETATM   22  H   UNL     1      40.933 -16.723  -1.657  1.00  0.00     0.169 HD
HETATM   23  O   UNL     1      41.954 -14.822   0.725  1.00  0.00    -0.271 OA
BRANCH  21  24
HETATM   24  C   UNL     1      40.924 -14.711  -2.078  1.00  0.00     0.037 A 
HETATM   25  C   UNL     1      41.947 -13.967  -2.678  1.00  0.00     0.061 A 
HETATM   26  C   UNL     1      41.569 -12.910  -3.478  1.00  0.00     0.065 A 
HETATM   27  C   UNL     1      40.236 -12.575  -3.696  1.00  0.00     0.063 A 
HETATM   28  N   UNL     1      42.357 -12.012  -4.190  1.00  0.00    -0.306 N 
HETATM   29  N   UNL     1      40.202 -11.474  -4.542  1.00  0.00    -0.307 N 
HETATM   30  C   UNL     1      39.208 -13.279  -3.126  1.00  0.00     0.034 A 
HETATM   31  C   UNL     1      41.519 -11.109  -4.860  1.00  0.00     0.325 A 
HETATM   32  H   UNL     1      39.392 -10.988  -4.892  1.00  0.00     0.170 HD
HETATM   33  O   UNL     1      41.867 -10.189  -5.577  1.00  0.00    -0.247 OA
HETATM   34  C   UNL     1      39.565 -14.359  -2.306  1.00  0.00     0.032 A 
HETATM   35  H   UNL     1      43.362 -11.977  -4.243  1.00  0.00     0.170 HD
ENDBRANCH  21  24
ENDBRANCH  19  20
ENDBRANCH   1  19
TORSDOF 7
ENDMDL
MODEL 4
REMARK VINA RESULT:      -8.4      3.813      8.152
REMARK  7 active torsions:
REMARK  status: ('A' for Active; 'I' for Inactive)
REMARK    1  A    between atoms: O_2  and  C_3 
REMARK    2  A    between atoms: C_6  and  C_7 
REMARK    3  A    between atoms: C_7  and  N_8 
REMARK    4  A    between atoms: C_7  and  C_25 
REMARK    5  A    between atoms: N_8  and  C_11 
REMARK    6  A    between atoms: C_11  and  C_12 
REMARK       I    between atoms: C_12  and  N_13 
REMARK    7  A    between atoms: N_13  and  C_14 
ROOT
HETATM    1  N   UNL     1      42.200 -13.936   3.266  1.00  0.00    -0.055 N 
HETATM    2  H   UNL     1      42.233 -12.929   3.038  1.00  0.00     0.278 HD
HETATM    3  H   UNL     1      43.184 -14.171   3.442  1.00  0.00     0.278 HD
ENDROOT
BRANCH   1   4
HETATM    4  C   UNL     1      41.425 -14.164   4.525  1.00  0.00     0.252 C 
BRANCH   4   5
HETATM    5  C   UNL     1      42.067 -15.117   5.532  1.00  0.00    -0.023 A 
HETATM    6  C   UNL     1      43.312 -14.785   6.108  1.00  0.00     0.012 A 
HETATM    7  C   UNL     1      43.921 -15.602   7.069  1.00  0.00     0.037 A 
HETATM    8  C   UNL     1      43.288 -16.762   7.501  1.00  0.00     0.068 A 
HETATM    9  C   UNL     1      42.044 -17.091   6.965  1.00  0.00     0.037 A 
HETATM   10  C   UNL     1      41.433 -16.279   6.003  1.00  0.00     0.012 A 
BRANCH   8  11
HETATM   11  O   UNL     1      43.761 -17.643   8.431  1.00  0.00    -0.356 OA
HETATM   12  C   UNL     1      43.898 -19.002   8.029  1.00  0.00     0.210 C 
ENDBRANCH   8  11
ENDBRANCH   4   5
BRANCH   4  13
HETATM   13  C   UNL     1      40.948 -12.823   5.074  1.00  0.00    -0.023 A 
HETATM   14  C   UNL     1      41.481 -11.632   4.548  1.00  0.00     0.009 A 
HETATM   15  C   UNL     1      41.107 -10.393   5.070  1.00  0.00     0.001 A 
HETATM   16  C   UNL     1      40.203 -10.325   6.127  1.00  0.00     0.000 A 
HETATM   17  C   UNL     1      39.668 -11.493   6.663  1.00  0.00     0.001 A 
HETATM   18  C   UNL     1      40.039 -12.736   6.144  1.00  0.00     0.009 A 
ENDBRANCH   4  13
ENDBRANCH   1   4
BRANCH   1  19
HETATM   19  C   UNL     1      41.770 -14.672   2.019  1.00  0.00     0.336 C 
BRANCH  19  20
HETATM   20  C   UNL     1      41.857 -16.177   2.274  1.00  0.00     0.248 C 
HETATM   21  N   UNL     1      43.133 -16.650   2.487  1.00  0.00    -0.326 N 
HETATM   22  H   UNL     1      43.905 -15.990   2.470  1.00  0.00     0.169 HD
HETATM   23  O   UNL     1      40.805 -16.816   2.263  1.00  0.00    -0.271 OA
BRANCH  21  24
HETATM   24  C   UNL     1      43.514 -17.992   2.729  1.00  0.00     0.037 A 
HETATM   25  C   UNL     1      43.991 -18.453   3.961  1.00  0.00     0.061 A 
HETATM   26  C   UNL     1      44.317 -19.789   4.048  1.00  0.00     0.065 A 
HETATM   27  C   UNL     1      44.187 -20.664   2.973  1.00  0.00     0.063 A 
HETATM   28  N   UNL     1      44.806 -20.514   5.130  1.00  0.00    -0.306 N 
HETATM   29  N   UNL     1      44.595 -21.924   3.391  1.00  0.00    -0.307 N 
HETATM   30  C   UNL     1      43.725 -20.248   1.751  1.00  0.00     0.034 A 
HETATM   31  C   UNL     1      44.985 -21.848   4.737  1.00  0.00     0.325 A 
HETATM   32  H   UNL     1      44.622 -22.775   2.853  1.00  0.00     0.170 HD
HETATM   33  O   UNL     1      45.397 -22.760   5.428  1.00  0.00    -0.247 OA
HETATM   34  C   UNL     1      43.387 -18.893   1.636  1.00  0.00     0.032 A 
HETATM   35  H   UNL     1      45.013 -20.178   6.057  1.00  0.00     0.170 HD
ENDBRANCH  21  24
ENDBRANCH  19  20
ENDBRANCH   1  19
TORSDOF 7
ENDMDL
MODEL 5
REMARK VINA RESULT:      -8.4      3.527      6.238
REMARK  7 active torsions:
REMARK  status: ('A' for Active; 'I' for Inactive)
REMARK    1  A    between atoms: O_2  and  C_3 
REMARK    2  A    between atoms: C_6  and  C_7 
REMARK    3  A    between atoms: C_7  and  N_8 
REMARK    4  A    between atoms: C_7  and  C_25 
REMARK    5  A    between atoms: N_8  and  C_11 
REMARK    6  A    between atoms: C_11  and  C_12 
REMARK       I    between atoms: C_12  and  N_13 
REMARK    7  A    between atoms: N_13  and  C_14 
ROOT
HETATM    1  N   UNL     1      44.771 -18.006   5.064  1.00  0.00    -0.055 N 
HETATM    2  H   UNL     1      45.694 -18.458   4.959  1.00  0.00     0.278 HD
HETATM    3  H   UNL     1      44.893 -17.106   4.584  1.00  0.00     0.278 HD
ENDROOT
BRANCH   1   4
HETATM    4  C   UNL     1      43.719 -18.789   4.344  1.00  0.00     0.252 C 
BRANCH   4   5
HETATM    5  C   UNL     1      43.127 -18.117   3.105  1.00  0.00    -0.023 A 
HETATM    6  C   UNL     1      41.746 -17.828   3.064  1.00  0.00     0.012 A 
HETATM    7  C   UNL     1      41.163 -17.174   1.971  1.00  0.00     0.037 A 
HETATM    8  C   UNL     1      41.951 -16.765   0.900  1.00  0.00     0.068 A 
HETATM    9  C   UNL     1      43.321 -17.016   0.937  1.00  0.00     0.037 A 
HETATM   10  C   UNL     1      43.908 -17.672   2.026  1.00  0.00     0.012 A 
BRANCH   8  11
HETATM   11  O   UNL     1      41.519 -16.116  -0.220  1.00  0.00    -0.356 OA
HETATM   12  C   UNL     1      40.788 -14.909  -0.031  1.00  0.00     0.210 C 
ENDBRANCH   8  11
ENDBRANCH   4   5
BRANCH   4  13
HETATM   13  C   UNL     1      44.192 -20.228   4.169  1.00  0.00    -0.023 A 
HETATM   14  C   UNL     1      44.146 -20.822   2.894  1.00  0.00     0.009 A 
HETATM   15  C   UNL     1      44.518 -22.155   2.715  1.00  0.00     0.001 A 
HETATM   16  C   UNL     1      44.933 -22.916   3.804  1.00  0.00     0.000 A 
HETATM   17  C   UNL     1      44.982 -22.347   5.074  1.00  0.00     0.001 A 
HETATM   18  C   UNL     1      44.611 -21.013   5.259  1.00  0.00     0.009 A 
ENDBRANCH   4  13
ENDBRANCH   1   4
BRANCH   1  19
HETATM   19  C   UNL     1      44.568 -17.718   6.532  1.00  0.00     0.336 C 
BRANCH  19  20
HETATM   20  C   UNL     1      43.343 -16.818   6.698  1.00  0.00     0.248 C 
HETATM   21  N   UNL     1      43.260 -15.789   5.785  1.00  0.00    -0.326 N 
HETATM   22  H   UNL     1      43.986 -15.704   5.081  1.00  0.00     0.169 HD
HETATM   23  O   UNL     1      42.563 -17.084   7.612  1.00  0.00    -0.271 OA
BRANCH  21  24
HETATM   24  C   UNL     1      42.251 -14.798   5.711  1.00  0.00     0.037 A 
HETATM   25  C   UNL     1      42.484 -13.436   5.940  1.00  0.00     0.061 A 
HETATM   26  C   UNL     1      41.404 -12.587   5.826  1.00  0.00     0.065 A 
HETATM   27  C   UNL     1      40.128 -13.037   5.501  1.00  0.00     0.063 A 
HETATM   28  N   UNL     1      41.340 -11.208   5.994  1.00  0.00    -0.306 N 
HETATM   29  N   UNL     1      39.279 -11.938   5.467  1.00  0.00    -0.307 N 
HETATM   30  C   UNL     1      39.862 -14.363   5.271  1.00  0.00     0.034 A 
HETATM   31  C   UNL     1      40.021 -10.787   5.773  1.00  0.00     0.325 A 
HETATM   32  H   UNL     1      38.293 -11.925   5.263  1.00  0.00     0.170 HD
HETATM   33  O   UNL     1      39.602  -9.646   5.835  1.00  0.00    -0.247 OA
HETATM   34  C   UNL     1      40.944 -15.248   5.382  1.00  0.00     0.032 A 
HETATM   35  H   UNL     1      42.088 -10.578   6.235  1.00  0.00     0.170 HD
ENDBRANCH  21  24
ENDBRANCH  19  20
ENDBRANCH   1  19
TORSDOF 7
ENDMDL
MODEL 6
REMARK VINA RESULT:      -8.4      2.785      3.896
REMARK  7 active torsions:
REMARK  status: ('A' for Active; 'I' for Inactive)
REMARK    1  A    between atoms: O_2  and  C_3 
REMARK    2  A    between atoms: C_6  and  C_7 
REMARK    3  A    between atoms: C_7  and  N_8 
REMARK    4  A    between atoms: C_7  and  C_25 
REMARK    5  A    between atoms: N_8  and  C_11 
REMARK    6  A    between atoms: C_11  and  C_12 
REMARK       I    between atoms: C_12  and  N_13 
REMARK    7  A    between atoms: N_13  and  C_14 
ROOT
HETATM    1  N   UNL     1      43.009 -17.699   1.025  1.00  0.00    -0.055 N 
HETATM    2  H   UNL     1      43.414 -16.859   0.582  1.00  0.00     0.278 HD
HETATM    3  H   UNL     1      43.356 -18.467   0.438  1.00  0.00     0.278 HD
ENDROOT
BRANCH   1   4
HETATM    4  C   UNL     1      43.551 -17.877   2.407  1.00  0.00     0.252 C 
BRANCH   4   5
HETATM    5  C   UNL     1      42.802 -17.133   3.512  1.00  0.00    -0.023 A 
HETATM    6  C   UNL     1      43.099 -15.776   3.761  1.00  0.00     0.012 A 
HETATM    7  C   UNL     1      42.410 -15.037   4.732  1.00  0.00     0.037 A 
HETATM    8  C   UNL     1      41.385 -15.629   5.462  1.00  0.00     0.068 A 
HETATM    9  C   UNL     1      41.059 -16.960   5.209  1.00  0.00     0.037 A 
HETATM   10  C   UNL     1      41.746 -17.703   4.243  1.00  0.00     0.012 A 
BRANCH   8  11
HETATM   11  O   UNL     1      40.630 -15.029   6.428  1.00  0.00    -0.356 OA
HETATM   12  C   UNL     1      40.235 -13.680   6.202  1.00  0.00     0.210 C 
ENDBRANCH   8  11
ENDBRANCH   4   5
BRANCH   4  13
HETATM   13  C   UNL     1      43.822 -19.358   2.656  1.00  0.00    -0.023 A 
HETATM   14  C   UNL     1      44.477 -19.753   3.836  1.00  0.00     0.009 A 
HETATM   15  C   UNL     1      44.789 -21.093   4.063  1.00  0.00     0.001 A 
HETATM   16  C   UNL     1      44.461 -22.057   3.114  1.00  0.00     0.000 A 
HETATM   17  C   UNL     1      43.815 -21.685   1.937  1.00  0.00     0.001 A 
HETATM   18  C   UNL     1      43.500 -20.344   1.706  1.00  0.00     0.009 A 
ENDBRANCH   4  13
ENDBRANCH   1   4
BRANCH   1  19
HETATM   19  C   UNL     1      41.510 -17.629   0.849  1.00  0.00     0.336 C 
BRANCH  19  20
HETATM   20  C   UNL     1      41.077 -16.163   0.835  1.00  0.00     0.248 C 
HETATM   21  N   UNL     1      39.924 -15.900   1.541  1.00  0.00    -0.326 N 
HETATM   22  H   UNL     1      39.458 -16.667   2.015  1.00  0.00     0.169 HD
HETATM   23  O   UNL     1      41.778 -15.370   0.207  1.00  0.00    -0.271 OA
BRANCH  21  24
HETATM   24  C   UNL     1      39.284 -14.645   1.685  1.00  0.00     0.037 A 
HETATM   25  C   UNL     1      39.613 -13.716   2.679  1.00  0.00     0.061 A 
HETATM   26  C   UNL     1      38.906 -12.533   2.692  1.00  0.00     0.065 A 
HETATM   27  C   UNL     1      37.903 -12.249   1.769  1.00  0.00     0.063 A 
HETATM   28  N   UNL     1      39.017 -11.444   3.550  1.00  0.00    -0.306 N 
HETATM   29  N   UNL     1      37.398 -10.988   2.057  1.00  0.00    -0.307 N 
HETATM   30  C   UNL     1      37.553 -13.135   0.783  1.00  0.00     0.034 A 
HETATM   31  C   UNL     1      38.083 -10.470   3.166  1.00  0.00     0.325 A 
HETATM   32  H   UNL     1      36.665 -10.492   1.576  1.00  0.00     0.170 HD
HETATM   33  O   UNL     1      37.902  -9.388   3.694  1.00  0.00    -0.247 OA
HETATM   34  C   UNL     1      38.256 -14.347   0.748  1.00  0.00     0.032 A 
HETATM   35  H   UNL     1      39.645 -11.330   4.328  1.00  0.00     0.170 HD
ENDBRANCH  21  24
ENDBRANCH  19  20
ENDBRANCH   1  19
TORSDOF 7
ENDMDL
MODEL 7
REMARK VINA RESULT:      -8.3      2.742      8.177
REMARK  7 active torsions:
REMARK  status: ('A' for Active; 'I' for Inactive)
REMARK    1  A    between atoms: O_2  and  C_3 
REMARK    2  A    between atoms: C_6  and  C_7 
REMARK    3  A    between atoms: C_7  and  N_8 
REMARK    4  A    between atoms: C_7  and  C_25 
REMARK    5  A    between atoms: N_8  and  C_11 
REMARK    6  A    between atoms: C_11  and  C_12 
REMARK       I    between atoms: C_12  and  N_13 
REMARK    7  A    between atoms: N_13  and  C_14 
ROOT
HETATM    1  N   UNL     1      41.328 -14.599   0.429  1.00  0.00    -0.055 N 
HETATM    2  H   UNL     1      40.970 -13.945  -0.285  1.00  0.00     0.278 HD
HETATM    3  H   UNL     1      42.274 -14.246   0.620  1.00  0.00     0.278 HD
ENDROOT
BRANCH   1   4
HETATM    4  C   UNL     1      40.522 -14.497   1.686  1.00  0.00     0.252 C 
BRANCH   4   5
HETATM    5  C   UNL     1      41.322 -14.267   2.967  1.00  0.00    -0.023 A 
HETATM    6  C   UNL     1      40.810 -14.726   4.199  1.00  0.00     0.012 A 
HETATM    7  C   UNL     1      41.525 -14.580   5.395  1.00  0.00     0.037 A 
HETATM    8  C   UNL     1      42.785 -13.992   5.388  1.00  0.00     0.068 A 
HETATM    9  C   UNL     1      43.319 -13.558   4.176  1.00  0.00     0.037 A 
HETATM   10  C   UNL     1      42.608 -13.700   2.979  1.00  0.00     0.012 A 
BRANCH   8  11
HETATM   11  O   UNL     1      43.590 -13.792   6.472  1.00  0.00    -0.356 OA
HETATM   12  C   UNL     1      44.449 -14.862   6.851  1.00  0.00     0.210 C 
ENDBRANCH   8  11
ENDBRANCH   4   5
BRANCH   4  13
HETATM   13  C   UNL     1      39.339 -13.563   1.451  1.00  0.00    -0.023 A 
HETATM   14  C   UNL     1      39.304 -12.315   2.101  1.00  0.00     0.009 A 
HETATM   15  C   UNL     1      38.208 -11.465   1.951  1.00  0.00     0.001 A 
HETATM   16  C   UNL     1      37.130 -11.849   1.159  1.00  0.00     0.000 A 
HETATM   17  C   UNL     1      37.145 -13.082   0.511  1.00  0.00     0.001 A 
HETATM   18  C   UNL     1      38.240 -13.936   0.657  1.00  0.00     0.009 A 
ENDBRANCH   4  13
ENDBRANCH   1   4
BRANCH   1  19
HETATM   19  C   UNL     1      41.469 -15.955  -0.221  1.00  0.00     0.336 C 
BRANCH  19  20
HETATM   20  C   UNL     1      41.668 -17.011   0.866  1.00  0.00     0.248 C 
HETATM   21  N   UNL     1      42.912 -16.999   1.457  1.00  0.00    -0.326 N 
HETATM   22  H   UNL     1      43.589 -16.308   1.149  1.00  0.00     0.169 HD
HETATM   23  O   UNL     1      40.723 -17.762   1.107  1.00  0.00    -0.271 OA
BRANCH  21  24
HETATM   24  C   UNL     1      43.380 -17.867   2.472  1.00  0.00     0.037 A 
HETATM   25  C   UNL     1      43.759 -19.195   2.243  1.00  0.00     0.061 A 
HETATM   26  C   UNL     1      44.201 -19.919   3.330  1.00  0.00     0.065 A 
HETATM   27  C   UNL     1      44.275 -19.378   4.610  1.00  0.00     0.063 A 
HETATM   28  N   UNL     1      44.636 -21.238   3.398  1.00  0.00    -0.306 N 
HETATM   29  N   UNL     1      44.755 -20.361   5.466  1.00  0.00    -0.307 N 
HETATM   30  C   UNL     1      43.910 -18.082   4.873  1.00  0.00     0.034 A 
HETATM   31  C   UNL     1      44.987 -21.529   4.725  1.00  0.00     0.325 A 
HETATM   32  H   UNL     1      44.924 -20.289   6.456  1.00  0.00     0.170 HD
HETATM   33  O   UNL     1      45.408 -22.589   5.149  1.00  0.00    -0.247 OA
HETATM   34  C   UNL     1      43.457 -17.325   3.784  1.00  0.00     0.032 A 
HETATM   35  H   UNL     1      44.704 -21.907   2.649  1.00  0.00     0.170 HD
ENDBRANCH  21  24
ENDBRANCH  19  20
ENDBRANCH   1  19
TORSDOF 7
ENDMDL
MODEL 8
REMARK VINA RESULT:      -8.3      2.855      3.526
REMARK  7 active torsions:
REMARK  status: ('A' for Active; 'I' for Inactive)
REMARK    1  A    between atoms: O_2  and  C_3 
REMARK    2  A    between atoms: C_6  and  C_7 
REMARK    3  A    between atoms: C_7  and  N_8 
REMARK    4  A    between atoms: C_7  and  C_25 
REMARK    5  A    between atoms: N_8  and  C_11 
REMARK    6  A    between atoms: C_11  and  C_12 
REMARK       I    between atoms: C_12  and  N_13 
REMARK    7  A    between atoms: N_13  and  C_14 
ROOT
HETATM    1  N   UNL     1      41.715 -17.561   1.890  1.00  0.00    -0.055 N 
HETATM    2  H   UNL     1      41.747 -18.592   1.860  1.00  0.00     0.278 HD
HETATM    3  H   UNL     1      40.836 -17.365   2.383  1.00  0.00     0.278 HD
ENDROOT
BRANCH   1   4
HETATM    4  C   UNL     1      42.846 -17.024   2.709  1.00  0.00     0.252 C 
BRANCH   4   5
HETATM    5  C   UNL     1      42.485 -15.899   3.678  1.00  0.00    -0.023 A 
HETATM    6  C   UNL     1      43.229 -14.700   3.661  1.00  0.00     0.012 A 
HETATM    7  C   UNL     1      42.910 -13.623   4.498  1.00  0.00     0.037 A 
HETATM    8  C   UNL     1      41.819 -13.705   5.357  1.00  0.00     0.068 A 
HETATM    9  C   UNL     1      41.056 -14.871   5.367  1.00  0.00     0.037 A 
HETATM   10  C   UNL     1      41.372 -15.951   4.534  1.00  0.00     0.012 A 
BRANCH   8  11
HETATM   11  O   UNL     1      41.393 -12.736   6.218  1.00  0.00    -0.356 OA
HETATM   12  C   UNL     1      39.990 -12.502   6.291  1.00  0.00     0.210 C 
ENDBRANCH   8  11
ENDBRANCH   4   5
BRANCH   4  13
HETATM   13  C   UNL     1      43.643 -18.187   3.292  1.00  0.00    -0.023 A 
HETATM   14  C   UNL     1      43.936 -19.299   2.482  1.00  0.00     0.009 A 
HETATM   15  C   UNL     1      44.613 -20.402   3.005  1.00  0.00     0.001 A 
HETATM   16  C   UNL     1      44.999 -20.415   4.342  1.00  0.00     0.000 A 
HETATM   17  C   UNL     1      44.714 -19.325   5.160  1.00  0.00     0.001 A 
HETATM   18  C   UNL     1      44.038 -18.218   4.642  1.00  0.00     0.009 A 
ENDBRANCH   4  13
ENDBRANCH   1   4
BRANCH   1  19
HETATM   19  C   UNL     1      41.564 -17.067   0.470  1.00  0.00     0.336 C 
BRANCH  19  20
HETATM   20  C   UNL     1      41.033 -15.633   0.495  1.00  0.00     0.248 C 
HETATM   21  N   UNL     1      39.883 -15.461   1.234  1.00  0.00    -0.326 N 
HETATM   22  H   UNL     1      39.482 -16.266   1.705  1.00  0.00     0.169 HD
HETATM   23  O   UNL     1      41.663 -14.784  -0.135  1.00  0.00    -0.271 OA
BRANCH  21  24
HETATM   24  C   UNL     1      39.164 -14.255   1.418  1.00  0.00     0.037 A 
HETATM   25  C   UNL     1      37.980 -13.947   0.736  1.00  0.00     0.061 A 
HETATM   26  C   UNL     1      37.388 -12.736   1.024  1.00  0.00     0.065 A 
HETATM   27  C   UNL     1      37.922 -11.840   1.946  1.00  0.00     0.063 A 
HETATM   28  N   UNL     1      36.224 -12.174   0.509  1.00  0.00    -0.306 N 
HETATM   29  N   UNL     1      37.090 -10.730   2.000  1.00  0.00    -0.307 N 
HETATM   30  C   UNL     1      39.080 -12.107   2.631  1.00  0.00     0.034 A 
HETATM   31  C   UNL     1      36.024 -10.922   1.108  1.00  0.00     0.325 A 
HETATM   32  H   UNL     1      37.196  -9.905   2.568  1.00  0.00     0.170 HD
HETATM   33  O   UNL     1      35.104 -10.153   0.895  1.00  0.00    -0.247 OA
HETATM   34  C   UNL     1      39.703 -13.333   2.356  1.00  0.00     0.032 A 
HETATM   35  H   UNL     1      35.601 -12.563  -0.180  1.00  0.00     0.170 HD
ENDBRANCH  21  24
ENDBRANCH  19  20
ENDBRANCH   1  19
TORSDOF 7
ENDMDL
MODEL 9
REMARK VINA RESULT:      -8.3      3.177      5.549
REMARK  7 active torsions:
REMARK  status: ('A' for Active; 'I' for Inactive)
REMARK    1  A    between atoms: O_2  and  C_3 
REMARK    2  A    between atoms: C_6  and  C_7 
REMARK    3  A    between atoms: C_7  and  N_8 
REMARK    4  A    between atoms: C_7  and  C_25 
REMARK    5  A    between atoms: N_8  and  C_11 
REMARK    6  A    between atoms: C_11  and  C_12 
REMARK       I    between atoms: C_12  and  N_13 
REMARK    7  A    between atoms: N_13  and  C_14 
ROOT
HETATM    1  N   UNL     1      42.709 -16.781   0.799  1.00  0.00    -0.055 N 
HETATM    2  H   UNL     1      43.257 -15.907   0.783  1.00  0.00     0.278 HD
HETATM    3  H   UNL     1      43.347 -17.468   0.381  1.00  0.00     0.278 HD
ENDROOT
BRANCH   1   4
HETATM    4  C   UNL     1      42.423 -17.196   2.208  1.00  0.00     0.252 C 
BRANCH   4   5
HETATM    5  C   UNL     1      43.092 -18.492   2.663  1.00  0.00    -0.023 A 
HETATM    6  C   UNL     1      43.172 -19.584   1.773  1.00  0.00     0.012 A 
HETATM    7  C   UNL     1      43.814 -20.778   2.126  1.00  0.00     0.037 A 
HETATM    8  C   UNL     1      44.418 -20.903   3.373  1.00  0.00     0.068 A 
HETATM    9  C   UNL     1      44.373 -19.825   4.255  1.00  0.00     0.037 A 
HETATM   10  C   UNL     1      43.731 -18.631   3.907  1.00  0.00     0.012 A 
BRANCH   8  11
HETATM   11  O   UNL     1      45.079 -22.000   3.844  1.00  0.00    -0.356 OA
HETATM   12  C   UNL     1      45.083 -22.202   5.253  1.00  0.00     0.210 C 
ENDBRANCH   8  11
ENDBRANCH   4   5
BRANCH   4  13
HETATM   13  C   UNL     1      42.586 -15.992   3.131  1.00  0.00    -0.023 A 
HETATM   14  C   UNL     1      41.676 -15.802   4.187  1.00  0.00     0.009 A 
HETATM   15  C   UNL     1      41.767 -14.679   5.011  1.00  0.00     0.001 A 
HETATM   16  C   UNL     1      42.759 -13.729   4.790  1.00  0.00     0.000 A 
HETATM   17  C   UNL     1      43.666 -13.898   3.747  1.00  0.00     0.001 A 
HETATM   18  C   UNL     1      43.581 -15.020   2.920  1.00  0.00     0.009 A 
ENDBRANCH   4  13
ENDBRANCH   1   4
BRANCH   1  19
HETATM   19  C   UNL     1      41.542 -16.607  -0.144  1.00  0.00     0.336 C 
BRANCH  19  20
HETATM   20  C   UNL     1      40.971 -15.199   0.025  1.00  0.00     0.248 C 
HETATM   21  N   UNL     1      39.888 -15.117   0.873  1.00  0.00    -0.326 N 
HETATM   22  H   UNL     1      39.557 -15.966   1.322  1.00  0.00     0.169 HD
HETATM   23  O   UNL     1      41.513 -14.287  -0.599  1.00  0.00    -0.271 OA
BRANCH  21  24
HETATM   24  C   UNL     1      39.151 -13.954   1.201  1.00  0.00     0.037 A 
HETATM   25  C   UNL     1      37.938 -13.606   0.593  1.00  0.00     0.061 A 
HETATM   26  C   UNL     1      37.332 -12.445   1.021  1.00  0.00     0.065 A 
HETATM   27  C   UNL     1      37.879 -11.635   2.012  1.00  0.00     0.063 A 
HETATM   28  N   UNL     1      36.140 -11.862   0.604  1.00  0.00    -0.306 N 
HETATM   29  N   UNL     1      37.026 -10.556   2.205  1.00  0.00    -0.307 N 
HETATM   30  C   UNL     1      39.064 -11.943   2.629  1.00  0.00     0.034 A 
HETATM   31  C   UNL     1      35.934 -10.682   1.333  1.00  0.00     0.325 A 
HETATM   32  H   UNL     1      37.135  -9.791   2.851  1.00  0.00     0.170 HD
HETATM   33  O   UNL     1      34.993  -9.918   1.229  1.00  0.00    -0.247 OA
HETATM   34  C   UNL     1      39.702 -13.119   2.211  1.00  0.00     0.032 A 
HETATM   35  H   UNL     1      35.502 -12.195  -0.101  1.00  0.00     0.170 HD
ENDBRANCH  21  24
ENDBRANCH  19  20
ENDBRANCH   1  19
TORSDOF 7
ENDMDL
MODEL 10
REMARK VINA RESULT:      -8.3      2.840      9.807
REMARK  7 active torsions:
REMARK  status: ('A' for Active; 'I' for Inactive)
REMARK    1  A    between atoms: O_2  and  C_3 
REMARK    2  A    between atoms: C_6  and  C_7 
REMARK    3  A    between atoms: C_7  and  N_8 
REMARK    4  A    between atoms: C_7  and  C_25 
REMARK    5  A    between atoms: N_8  and  C_11 
REMARK    6  A    between atoms: C_11  and  C_12 
REMARK       I    between atoms: C_12  and  N_13 
REMARK    7  A    between atoms: N_13  and  C_14 
ROOT
HETATM    1  N   UNL     1      41.826 -14.400  -0.937  1.00  0.00    -0.055 N 
HETATM    2  H   UNL     1      42.843 -14.388  -0.760  1.00  0.00     0.278 HD
HETATM    3  H   UNL     1      41.468 -13.668  -0.312  1.00  0.00     0.278 HD
ENDROOT
BRANCH   1   4
HETATM    4  C   UNL     1      41.533 -14.003  -2.349  1.00  0.00     0.252 C 
BRANCH   4   5
HETATM    5  C   UNL     1      40.114 -14.294  -2.837  1.00  0.00    -0.023 A 
HETATM    6  C   UNL     1      39.067 -13.412  -2.495  1.00  0.00     0.012 A 
HETATM    7  C   UNL     1      37.758 -13.609  -2.954  1.00  0.00     0.037 A 
HETATM    8  C   UNL     1      37.466 -14.680  -3.791  1.00  0.00     0.068 A 
HETATM    9  C   UNL     1      38.494 -15.545  -4.163  1.00  0.00     0.037 A 
HETATM   10  C   UNL     1      39.803 -15.354  -3.705  1.00  0.00     0.012 A 
BRANCH   8  11
HETATM   11  O   UNL     1      36.243 -14.987  -4.315  1.00  0.00    -0.356 OA
HETATM   12  C   UNL     1      35.622 -14.004  -5.135  1.00  0.00     0.210 C 
ENDBRANCH   8  11
ENDBRANCH   4   5
BRANCH   4  13
HETATM   13  C   UNL     1      42.054 -12.590  -2.593  1.00  0.00    -0.023 A 
HETATM   14  C   UNL     1      42.505 -11.821  -1.505  1.00  0.00     0.009 A 
HETATM   15  C   UNL     1      42.933 -10.506  -1.691  1.00  0.00     0.001 A 
HETATM   16  C   UNL     1      42.911  -9.937  -2.961  1.00  0.00     0.000 A 
HETATM   17  C   UNL     1      42.464 -10.681  -4.050  1.00  0.00     0.001 A 
HETATM   18  C   UNL     1      42.035 -11.998  -3.870  1.00  0.00     0.009 A 
ENDBRANCH   4  13
ENDBRANCH   1   4
BRANCH   1  19
HETATM   19  C   UNL     1      41.292 -15.724  -0.442  1.00  0.00     0.336 C 
BRANCH  19  20
HETATM   20  C   UNL     1      41.994 -16.086   0.867  1.00  0.00     0.248 C 
HETATM   21  N   UNL     1      42.112 -17.439   1.099  1.00  0.00    -0.326 N 
HETATM   22  H   UNL     1      41.747 -18.085   0.405  1.00  0.00     0.169 HD
HETATM   23  O   UNL     1      42.377 -15.160   1.581  1.00  0.00    -0.271 OA
BRANCH  21  24
HETATM   24  C   UNL     1      42.696 -18.060   2.229  1.00  0.00     0.037 A 
HETATM   25  C   UNL     1      42.330 -17.771   3.549  1.00  0.00     0.061 A 
HETATM   26  C   UNL     1      42.983 -18.460   4.547  1.00  0.00     0.065 A 
HETATM   27  C   UNL     1      43.968 -19.408   4.283  1.00  0.00     0.063 A 
HETATM   28  N   UNL     1      42.827 -18.381   5.927  1.00  0.00    -0.306 N 
HETATM   29  N   UNL     1      44.418 -19.911   5.497  1.00  0.00    -0.307 N 
HETATM   30  C   UNL     1      44.354 -19.716   3.004  1.00  0.00     0.034 A 
HETATM   31  C   UNL     1      43.715 -19.281   6.535  1.00  0.00     0.325 A 
HETATM   32  H   UNL     1      45.126 -20.611   5.651  1.00  0.00     0.170 HD
HETATM   33  O   UNL     1      43.849 -19.475   7.728  1.00  0.00    -0.247 OA
HETATM   34  C   UNL     1      43.705 -19.028   1.970  1.00  0.00     0.032 A 
HETATM   35  H   UNL     1      42.197 -17.791   6.446  1.00  0.00     0.170 HD
ENDBRANCH  21  24
ENDBRANCH  19  20
ENDBRANCH   1  19
TORSDOF 7
ENDMDL
