MODEL 1
REMARK VINA RESULT:      -9.1      0.000      0.000
REMARK  4 active torsions:
REMARK  status: ('A' for Active; 'I' for Inactive)
REMARK    1  A    between atoms: C_6  and  C_7 
REMARK    2  A    between atoms: C_7  and  N_8 
REMARK    3  A    between atoms: C_11  and  C_12 
REMARK    4  A    between atoms: C_12  and  C_13 
ROOT
HETATM    1  N   UNL     1      42.117 -15.716   2.343  1.00  0.00    -0.064 N 
HETATM    2  H   UNL     1      42.359 -16.421   1.621  1.00  0.00     0.280 HD
HETATM    3  C   UNL     1      43.305 -15.708   3.283  1.00  0.00     0.247 C 
HETATM    4  C   UNL     1      43.573 -17.127   3.802  1.00  0.00     0.086 C 
HETATM    5  C   UNL     1      42.310 -17.730   4.430  1.00  0.00     0.016 C 
HETATM    6  C   UNL     1      41.077 -17.608   3.531  1.00  0.00     0.029 C 
HETATM    7  C   UNL     1      40.862 -16.186   3.025  1.00  0.00     0.235 C 
ENDROOT
BRANCH   1   8
HETATM    8  C   UNL     1      41.943 -14.418   1.583  1.00  0.00     0.313 C 
BRANCH   8   9
HETATM    9  C   UNL     1      41.166 -14.513   0.311  1.00  0.00     0.131 A 
HETATM   10  N   UNL     1      40.049 -13.873   0.020  1.00  0.00    -0.232 NA
HETATM   11  C   UNL     1      39.729 -14.238  -1.265  1.00  0.00     0.085 A 
HETATM   12  C   UNL     1      40.666 -15.131  -1.769  1.00  0.00     0.062 A 
HETATM   13  C   UNL     1      38.654 -13.841  -2.070  1.00  0.00     0.034 A 
HETATM   14  C   UNL     1      40.598 -15.667  -3.056  1.00  0.00     0.032 A 
HETATM   15  N   UNL     1      41.565 -15.300  -0.745  1.00  0.00    -0.341 N 
HETATM   16  C   UNL     1      39.520 -15.256  -3.848  1.00  0.00     0.002 A 
HETATM   17  C   UNL     1      38.562 -14.360  -3.367  1.00  0.00     0.002 A 
HETATM   18  H   UNL     1      42.381 -15.895  -0.788  1.00  0.00     0.167 HD
ENDBRANCH   8   9
ENDBRANCH   1   8
BRANCH   4  19
HETATM   19  C   UNL     1      44.071 -17.987   2.645  1.00  0.00     0.165 C 
HETATM   20  O   UNL     1      44.405 -17.438   1.590  1.00  0.00    -0.292 OA
BRANCH  19  21
HETATM   21  C   UNL     1      44.140 -19.475   2.773  1.00  0.00     0.012 A 
HETATM   22  C   UNL     1      44.653 -20.111   3.907  1.00  0.00     0.039 A 
HETATM   23  C   UNL     1      44.700 -21.506   3.958  1.00  0.00     0.035 A 
HETATM   24 CL   UNL     1      45.339 -22.280   5.356  1.00  0.00    -0.084 Cl
HETATM   25  C   UNL     1      44.237 -22.275   2.894  1.00  0.00     0.024 A 
HETATM   26  C   UNL     1      43.718 -21.646   1.764  1.00  0.00     0.003 A 
HETATM   27  C   UNL     1      43.668 -20.251   1.704  1.00  0.00     0.015 A 
ENDBRANCH  19  21
ENDBRANCH   4  19
TORSDOF 4
ENDMDL
MODEL 2
REMARK VINA RESULT:      -8.7      3.400      7.635
REMARK  4 active torsions:
REMARK  status: ('A' for Active; 'I' for Inactive)
REMARK    1  A    between atoms: C_6  and  C_7 
REMARK    2  A    between atoms: C_7  and  N_8 
REMARK    3  A    between atoms: C_11  and  C_12 
REMARK    4  A    between atoms: C_12  and  C_13 
ROOT
HETATM    1  N   UNL     1      42.850 -15.757   4.595  1.00  0.00    -0.064 N 
HETATM    2  H   UNL     1      42.855 -16.063   3.603  1.00  0.00     0.280 HD
HETATM    3  C   UNL     1      41.389 -15.777   4.994  1.00  0.00     0.247 C 
HETATM    4  C   UNL     1      40.570 -14.911   4.027  1.00  0.00     0.086 C 
HETATM    5  C   UNL     1      41.151 -13.496   3.930  1.00  0.00     0.016 C 
HETATM    6  C   UNL     1      42.658 -13.483   3.667  1.00  0.00     0.029 C 
HETATM    7  C   UNL     1      43.428 -14.369   4.640  1.00  0.00     0.235 C 
ENDROOT
BRANCH   1   8
HETATM    8  C   UNL     1      43.687 -16.784   5.329  1.00  0.00     0.313 C 
BRANCH   8   9
HETATM    9  C   UNL     1      43.874 -18.088   4.624  1.00  0.00     0.131 A 
HETATM   10  N   UNL     1      44.470 -19.163   5.104  1.00  0.00    -0.232 NA
HETATM   11  C   UNL     1      44.364 -20.121   4.123  1.00  0.00     0.085 A 
HETATM   12  C   UNL     1      43.695 -19.616   3.016  1.00  0.00     0.062 A 
HETATM   13  C   UNL     1      44.810 -21.449   4.114  1.00  0.00     0.034 A 
HETATM   14  C   UNL     1      43.437 -20.370   1.869  1.00  0.00     0.032 A 
HETATM   15  N   UNL     1      43.403 -18.318   3.352  1.00  0.00    -0.341 N 
HETATM   16  C   UNL     1      43.886 -21.696   1.877  1.00  0.00     0.002 A 
HETATM   17  C   UNL     1      44.561 -22.229   2.977  1.00  0.00     0.002 A 
HETATM   18  H   UNL     1      42.911 -17.666   2.756  1.00  0.00     0.167 HD
ENDBRANCH   8   9
ENDBRANCH   1   8
BRANCH   4  19
HETATM   19  C   UNL     1      40.549 -15.588   2.660  1.00  0.00     0.165 C 
HETATM   20  O   UNL     1      41.144 -16.661   2.513  1.00  0.00    -0.292 OA
BRANCH  19  21
HETATM   21  C   UNL     1      39.838 -14.959   1.506  1.00  0.00     0.012 A 
HETATM   22  C   UNL     1      40.481 -14.643   0.305  1.00  0.00     0.039 A 
HETATM   23  C   UNL     1      39.760 -14.044  -0.731  1.00  0.00     0.035 A 
HETATM   24 CL   UNL     1      40.562 -13.655  -2.203  1.00  0.00    -0.084 Cl
HETATM   25  C   UNL     1      38.405 -13.760  -0.586  1.00  0.00     0.024 A 
HETATM   26  C   UNL     1      37.758 -14.079   0.606  1.00  0.00     0.003 A 
HETATM   27  C   UNL     1      38.471 -14.677   1.648  1.00  0.00     0.015 A 
ENDBRANCH  19  21
ENDBRANCH   4  19
TORSDOF 4
ENDMDL
MODEL 3
REMARK VINA RESULT:      -8.7      1.629      1.834
REMARK  4 active torsions:
REMARK  status: ('A' for Active; 'I' for Inactive)
REMARK    1  A    between atoms: C_6  and  C_7 
REMARK    2  A    between atoms: C_7  and  N_8 
REMARK    3  A    between atoms: C_11  and  C_12 
REMARK    4  A    between atoms: C_12  and  C_13 
ROOT
HETATM    1  N   UNL     1      42.145 -15.044   2.981  1.00  0.00    -0.064 N 
HETATM    2  H   UNL     1      42.478 -15.590   2.163  1.00  0.00     0.280 HD
HETATM    3  C   UNL     1      43.080 -15.433   4.107  1.00  0.00     0.247 C 
HETATM    4  C   UNL     1      43.084 -16.957   4.283  1.00  0.00     0.086 C 
HETATM    5  C   UNL     1      41.659 -17.492   4.469  1.00  0.00     0.016 C 
HETATM    6  C   UNL     1      40.683 -16.981   3.407  1.00  0.00     0.029 C 
HETATM    7  C   UNL     1      40.728 -15.465   3.255  1.00  0.00     0.235 C 
ENDROOT
BRANCH   1   8
HETATM    8  C   UNL     1      42.276 -13.594   2.565  1.00  0.00     0.313 C 
BRANCH   8   9
HETATM    9  C   UNL     1      42.160 -13.329   1.099  1.00  0.00     0.131 A 
HETATM   10  N   UNL     1      42.512 -12.224   0.469  1.00  0.00    -0.232 NA
HETATM   11  C   UNL     1      42.263 -12.455  -0.863  1.00  0.00     0.085 A 
HETATM   12  C   UNL     1      41.737 -13.727  -1.049  1.00  0.00     0.062 A 
HETATM   13  C   UNL     1      42.469 -11.625  -1.972  1.00  0.00     0.034 A 
HETATM   14  C   UNL     1      41.393 -14.236  -2.303  1.00  0.00     0.032 A 
HETATM   15  N   UNL     1      41.669 -14.260   0.213  1.00  0.00    -0.341 N 
HETATM   16  C   UNL     1      41.609 -13.395  -3.401  1.00  0.00     0.002 A 
HETATM   17  C   UNL     1      42.136 -12.112  -3.242  1.00  0.00     0.002 A 
HETATM   18  H   UNL     1      41.328 -15.187   0.430  1.00  0.00     0.167 HD
ENDBRANCH   8   9
ENDBRANCH   1   8
BRANCH   4  19
HETATM   19  C   UNL     1      43.751 -17.590   3.066  1.00  0.00     0.165 C 
HETATM   20  O   UNL     1      44.121 -16.862   2.139  1.00  0.00    -0.292 OA
BRANCH  19  21
HETATM   21  C   UNL     1      43.939 -19.070   2.981  1.00  0.00     0.012 A 
HETATM   22  C   UNL     1      44.479 -19.823   4.029  1.00  0.00     0.039 A 
HETATM   23  C   UNL     1      44.640 -21.202   3.881  1.00  0.00     0.035 A 
HETATM   24 CL   UNL     1      45.310 -22.118   5.174  1.00  0.00    -0.084 Cl
HETATM   25  C   UNL     1      44.266 -21.842   2.702  1.00  0.00     0.024 A 
HETATM   26  C   UNL     1      43.720 -21.098   1.658  1.00  0.00     0.003 A 
HETATM   27  C   UNL     1      43.557 -19.718   1.797  1.00  0.00     0.015 A 
ENDBRANCH  19  21
ENDBRANCH   4  19
TORSDOF 4
ENDMDL
MODEL 4
REMARK VINA RESULT:      -8.5      1.413      1.836
REMARK  4 active torsions:
REMARK  status: ('A' for Active; 'I' for Inactive)
REMARK    1  A    between atoms: C_6  and  C_7 
REMARK    2  A    between atoms: C_7  and  N_8 
REMARK    3  A    between atoms: C_11  and  C_12 
REMARK    4  A    between atoms: C_12  and  C_13 
ROOT
HETATM    1  N   UNL     1      41.923 -14.463   2.502  1.00  0.00    -0.064 N 
HETATM    2  H   UNL     1      41.533 -15.344   2.118  1.00  0.00     0.280 HD
HETATM    3  C   UNL     1      43.316 -14.831   2.969  1.00  0.00     0.247 C 
HETATM    4  C   UNL     1      43.246 -16.010   3.950  1.00  0.00     0.086 C 
HETATM    5  C   UNL     1      42.282 -15.708   5.103  1.00  0.00     0.016 C 
HETATM    6  C   UNL     1      40.919 -15.199   4.628  1.00  0.00     0.029 C 
HETATM    7  C   UNL     1      41.039 -14.041   3.644  1.00  0.00     0.235 C 
ENDROOT
BRANCH   1   8
HETATM    8  C   UNL     1      41.916 -13.490   1.342  1.00  0.00     0.313 C 
BRANCH   8   9
HETATM    9  C   UNL     1      41.151 -13.928   0.135  1.00  0.00     0.131 A 
HETATM   10  N   UNL     1      39.945 -13.528  -0.220  1.00  0.00    -0.232 NA
HETATM   11  C   UNL     1      39.674 -14.162  -1.409  1.00  0.00     0.085 A 
HETATM   12  C   UNL     1      40.735 -14.976  -1.784  1.00  0.00     0.062 A 
HETATM   13  C   UNL     1      38.542 -14.084  -2.230  1.00  0.00     0.034 A 
HETATM   14  C   UNL     1      40.739 -15.737  -2.954  1.00  0.00     0.032 A 
HETATM   15  N   UNL     1      41.659 -14.821  -0.781  1.00  0.00    -0.341 N 
HETATM   16  C   UNL     1      39.602 -15.645  -3.765  1.00  0.00     0.002 A 
HETATM   17  C   UNL     1      38.520 -14.835  -3.412  1.00  0.00     0.002 A 
HETATM   18  H   UNL     1      42.558 -15.281  -0.750  1.00  0.00     0.167 HD
ENDBRANCH   8   9
ENDBRANCH   1   8
BRANCH   4  19
HETATM   19  C   UNL     1      42.811 -17.257   3.186  1.00  0.00     0.165 C 
HETATM   20  O   UNL     1      41.853 -17.182   2.410  1.00  0.00    -0.292 OA
BRANCH  19  21
HETATM   21  C   UNL     1      43.517 -18.560   3.384  1.00  0.00     0.012 A 
HETATM   22  C   UNL     1      43.530 -19.566   2.413  1.00  0.00     0.039 A 
HETATM   23  C   UNL     1      44.200 -20.765   2.666  1.00  0.00     0.035 A 
HETATM   24 CL   UNL     1      44.205 -21.999   1.467  1.00  0.00    -0.084 Cl
HETATM   25  C   UNL     1      44.860 -20.973   3.874  1.00  0.00     0.024 A 
HETATM   26  C   UNL     1      44.857 -19.970   4.842  1.00  0.00     0.003 A 
HETATM   27  C   UNL     1      44.188 -18.768   4.598  1.00  0.00     0.015 A 
ENDBRANCH  19  21
ENDBRANCH   4  19
TORSDOF 4
ENDMDL
MODEL 5
REMARK VINA RESULT:      -8.1      2.155      2.941
REMARK  4 active torsions:
REMARK  status: ('A' for Active; 'I' for Inactive)
REMARK    1  A    between atoms: C_6  and  C_7 
REMARK    2  A    between atoms: C_7  and  N_8 
REMARK    3  A    between atoms: C_11  and  C_12 
REMARK    4  A    between atoms: C_12  and  C_13 
ROOT
HETATM    1  N   UNL     1      42.000 -15.082   4.557  1.00  0.00    -0.064 N 
HETATM    2  H   UNL     1      42.039 -15.651   3.689  1.00  0.00     0.280 HD
HETATM    3  C   UNL     1      43.332 -15.327   5.234  1.00  0.00     0.247 C 
HETATM    4  C   UNL     1      43.549 -16.833   5.436  1.00  0.00     0.086 C 
HETATM    5  C   UNL     1      42.367 -17.462   6.183  1.00  0.00     0.016 C 
HETATM    6  C   UNL     1      41.011 -17.095   5.576  1.00  0.00     0.029 C 
HETATM    7  C   UNL     1      40.848 -15.592   5.378  1.00  0.00     0.235 C 
ENDROOT
BRANCH   1   8
HETATM    8  C   UNL     1      41.820 -13.655   4.083  1.00  0.00     0.313 C 
BRANCH   8   9
HETATM    9  C   UNL     1      41.879 -13.452   2.604  1.00  0.00     0.131 A 
HETATM   10  N   UNL     1      41.641 -14.359   1.675  1.00  0.00    -0.232 NA
HETATM   11  C   UNL     1      41.772 -13.708   0.472  1.00  0.00     0.085 A 
HETATM   12  C   UNL     1      42.107 -12.375   0.670  1.00  0.00     0.062 A 
HETATM   13  C   UNL     1      41.611 -14.192  -0.833  1.00  0.00     0.034 A 
HETATM   14  C   UNL     1      42.299 -11.471  -0.377  1.00  0.00     0.032 A 
HETATM   15  N   UNL     1      42.181 -12.237   2.033  1.00  0.00    -0.341 N 
HETATM   16  C   UNL     1      42.131 -11.970  -1.673  1.00  0.00     0.002 A 
HETATM   17  C   UNL     1      41.794 -13.306  -1.901  1.00  0.00     0.002 A 
HETATM   18  H   UNL     1      42.406 -11.377   2.514  1.00  0.00     0.167 HD
ENDBRANCH   8   9
ENDBRANCH   1   8
BRANCH   4  19
HETATM   19  C   UNL     1      43.746 -17.487   4.073  1.00  0.00     0.165 C 
HETATM   20  O   UNL     1      43.608 -16.803   3.053  1.00  0.00    -0.292 OA
BRANCH  19  21
HETATM   21  C   UNL     1      44.082 -18.940   3.964  1.00  0.00     0.012 A 
HETATM   22  C   UNL     1      43.899 -19.670   2.785  1.00  0.00     0.039 A 
HETATM   23  C   UNL     1      44.222 -21.028   2.753  1.00  0.00     0.035 A 
HETATM   24 CL   UNL     1      43.988 -21.919   1.300  1.00  0.00    -0.084 Cl
HETATM   25  C   UNL     1      44.729 -21.668   3.882  1.00  0.00     0.024 A 
HETATM   26  C   UNL     1      44.920 -20.943   5.057  1.00  0.00     0.003 A 
HETATM   27  C   UNL     1      44.598 -19.584   5.097  1.00  0.00     0.015 A 
ENDBRANCH  19  21
ENDBRANCH   4  19
TORSDOF 4
ENDMDL
MODEL 6
REMARK VINA RESULT:      -8.1      2.018      2.389
REMARK  4 active torsions:
REMARK  status: ('A' for Active; 'I' for Inactive)
REMARK    1  A    between atoms: C_6  and  C_7 
REMARK    2  A    between atoms: C_7  and  N_8 
REMARK    3  A    between atoms: C_11  and  C_12 
REMARK    4  A    between atoms: C_12  and  C_13 
ROOT
HETATM    1  N   UNL     1      41.994 -15.453   4.513  1.00  0.00    -0.064 N 
HETATM    2  H   UNL     1      41.888 -15.964   3.615  1.00  0.00     0.280 HD
HETATM    3  C   UNL     1      43.418 -15.733   4.947  1.00  0.00     0.247 C 
HETATM    4  C   UNL     1      43.658 -17.248   5.012  1.00  0.00     0.086 C 
HETATM    5  C   UNL     1      42.610 -17.932   5.898  1.00  0.00     0.016 C 
HETATM    6  C   UNL     1      41.175 -17.534   5.546  1.00  0.00     0.029 C 
HETATM    7  C   UNL     1      40.989 -16.022   5.475  1.00  0.00     0.235 C 
ENDROOT
BRANCH   1   8
HETATM    8  C   UNL     1      41.746 -13.999   4.169  1.00  0.00     0.313 C 
BRANCH   8   9
HETATM    9  C   UNL     1      40.914 -13.755   2.953  1.00  0.00     0.131 A 
HETATM   10  N   UNL     1      41.263 -13.061   1.886  1.00  0.00    -0.232 NA
HETATM   11  C   UNL     1      40.202 -13.146   1.018  1.00  0.00     0.085 A 
HETATM   12  C   UNL     1      39.176 -13.903   1.570  1.00  0.00     0.062 A 
HETATM   13  C   UNL     1      40.047 -12.609  -0.267  1.00  0.00     0.034 A 
HETATM   14  C   UNL     1      37.975 -14.163   0.908  1.00  0.00     0.032 A 
HETATM   15  N   UNL     1      39.646 -14.270   2.806  1.00  0.00    -0.341 N 
HETATM   16  C   UNL     1      37.838 -13.621  -0.376  1.00  0.00     0.002 A 
HETATM   17  C   UNL     1      38.853 -12.857  -0.955  1.00  0.00     0.002 A 
HETATM   18  H   UNL     1      39.137 -14.835   3.472  1.00  0.00     0.167 HD
ENDBRANCH   8   9
ENDBRANCH   1   8
BRANCH   4  19
HETATM   19  C   UNL     1      43.626 -17.811   3.595  1.00  0.00     0.165 C 
HETATM   20  O   UNL     1      43.370 -17.053   2.653  1.00  0.00    -0.292 OA
BRANCH  19  21
HETATM   21  C   UNL     1      43.883 -19.262   3.343  1.00  0.00     0.012 A 
HETATM   22  C   UNL     1      44.472 -20.099   4.295  1.00  0.00     0.039 A 
HETATM   23  C   UNL     1      44.696 -21.444   3.992  1.00  0.00     0.035 A 
HETATM   24 CL   UNL     1      45.426 -22.466   5.169  1.00  0.00    -0.084 Cl
HETATM   25  C   UNL     1      44.336 -21.966   2.753  1.00  0.00     0.024 A 
HETATM   26  C   UNL     1      43.742 -21.137   1.803  1.00  0.00     0.003 A 
HETATM   27  C   UNL     1      43.516 -19.791   2.097  1.00  0.00     0.015 A 
ENDBRANCH  19  21
ENDBRANCH   4  19
TORSDOF 4
ENDMDL
MODEL 7
REMARK VINA RESULT:      -8.0      4.041      5.810
REMARK  4 active torsions:
REMARK  status: ('A' for Active; 'I' for Inactive)
REMARK    1  A    between atoms: C_6  and  C_7 
REMARK    2  A    between atoms: C_7  and  N_8 
REMARK    3  A    between atoms: C_11  and  C_12 
REMARK    4  A    between atoms: C_12  and  C_13 
ROOT
HETATM    1  N   UNL     1      43.647 -19.534   5.919  1.00  0.00    -0.064 N 
HETATM    2  H   UNL     1      42.930 -19.709   5.189  1.00  0.00     0.280 HD
HETATM    3  C   UNL     1      44.913 -19.227   5.147  1.00  0.00     0.247 C 
HETATM    4  C   UNL     1      45.223 -20.370   4.171  1.00  0.00     0.086 C 
HETATM    5  C   UNL     1      45.273 -21.717   4.901  1.00  0.00     0.016 C 
HETATM    6  C   UNL     1      44.054 -21.961   5.793  1.00  0.00     0.029 C 
HETATM    7  C   UNL     1      43.775 -20.793   6.732  1.00  0.00     0.235 C 
ENDROOT
BRANCH   1   8
HETATM    8  C   UNL     1      43.124 -18.354   6.710  1.00  0.00     0.313 C 
BRANCH   8   9
HETATM    9  C   UNL     1      42.765 -17.146   5.908  1.00  0.00     0.131 A 
HETATM   10  N   UNL     1      41.547 -16.721   5.626  1.00  0.00    -0.232 NA
HETATM   11  C   UNL     1      41.710 -15.561   4.908  1.00  0.00     0.085 A 
HETATM   12  C   UNL     1      43.059 -15.276   4.738  1.00  0.00     0.062 A 
HETATM   13  C   UNL     1      40.749 -14.693   4.374  1.00  0.00     0.034 A 
HETATM   14  C   UNL     1      43.522 -14.152   4.051  1.00  0.00     0.032 A 
HETATM   15  N   UNL     1      43.711 -16.303   5.372  1.00  0.00    -0.341 N 
HETATM   16  C   UNL     1      42.549 -13.293   3.527  1.00  0.00     0.002 A 
HETATM   17  C   UNL     1      41.186 -13.556   3.683  1.00  0.00     0.002 A 
HETATM   18  H   UNL     1      44.716 -16.396   5.435  1.00  0.00     0.167 HD
ENDBRANCH   8   9
ENDBRANCH   1   8
BRANCH   4  19
HETATM   19  C   UNL     1      44.161 -20.381   3.076  1.00  0.00     0.165 C 
HETATM   20  O   UNL     1      43.752 -21.465   2.647  1.00  0.00    -0.292 OA
BRANCH  19  21
HETATM   21  C   UNL     1      43.632 -19.102   2.512  1.00  0.00     0.012 A 
HETATM   22  C   UNL     1      42.272 -18.778   2.525  1.00  0.00     0.039 A 
HETATM   23  C   UNL     1      41.841 -17.571   1.970  1.00  0.00     0.035 A 
HETATM   24 CL   UNL     1      40.164 -17.184   1.986  1.00  0.00    -0.084 Cl
HETATM   25  C   UNL     1      42.750 -16.680   1.406  1.00  0.00     0.024 A 
HETATM   26  C   UNL     1      44.108 -16.995   1.397  1.00  0.00     0.003 A 
HETATM   27  C   UNL     1      44.547 -18.200   1.948  1.00  0.00     0.015 A 
ENDBRANCH  19  21
ENDBRANCH   4  19
TORSDOF 4
ENDMDL
MODEL 8
REMARK VINA RESULT:      -7.9      3.503      7.739
REMARK  4 active torsions:
REMARK  status: ('A' for Active; 'I' for Inactive)
REMARK    1  A    between atoms: C_6  and  C_7 
REMARK    2  A    between atoms: C_7  and  N_8 
REMARK    3  A    between atoms: C_11  and  C_12 
REMARK    4  A    between atoms: C_12  and  C_13 
ROOT
HETATM    1  N   UNL     1      42.153 -14.845   3.539  1.00  0.00    -0.064 N 
HETATM    2  H   UNL     1      42.322 -15.326   2.635  1.00  0.00     0.280 HD
HETATM    3  C   UNL     1      40.645 -14.767   3.656  1.00  0.00     0.247 C 
HETATM    4  C   UNL     1      40.058 -14.077   2.417  1.00  0.00     0.086 C 
HETATM    5  C   UNL     1      40.718 -12.712   2.185  1.00  0.00     0.016 C 
HETATM    6  C   UNL     1      42.247 -12.773   2.210  1.00  0.00     0.029 C 
HETATM    7  C   UNL     1      42.783 -13.483   3.448  1.00  0.00     0.235 C 
ENDROOT
BRANCH   1   8
HETATM    8  C   UNL     1      42.791 -15.738   4.583  1.00  0.00     0.313 C 
BRANCH   8   9
HETATM    9  C   UNL     1      43.199 -17.095   4.111  1.00  0.00     0.131 A 
HETATM   10  N   UNL     1      44.006 -17.935   4.733  1.00  0.00    -0.232 NA
HETATM   11  C   UNL     1      44.051 -19.063   3.948  1.00  0.00     0.085 A 
HETATM   12  C   UNL     1      43.261 -18.905   2.817  1.00  0.00     0.062 A 
HETATM   13  C   UNL     1      44.741 -20.266   4.145  1.00  0.00     0.034 A 
HETATM   14  C   UNL     1      43.113 -19.895   1.843  1.00  0.00     0.032 A 
HETATM   15  N   UNL     1      42.738 -17.642   2.935  1.00  0.00    -0.341 N 
HETATM   16  C   UNL     1      43.806 -21.091   2.057  1.00  0.00     0.002 A 
HETATM   17  C   UNL     1      44.608 -21.277   3.186  1.00  0.00     0.002 A 
HETATM   18  H   UNL     1      42.111 -17.213   2.268  1.00  0.00     0.167 HD
ENDBRANCH   8   9
ENDBRANCH   1   8
BRANCH   4  19
HETATM   19  C   UNL     1      40.250 -14.989   1.210  1.00  0.00     0.165 C 
HETATM   20  O   UNL     1      40.531 -16.178   1.394  1.00  0.00    -0.292 OA
BRANCH  19  21
HETATM   21  C   UNL     1      40.121 -14.454  -0.180  1.00  0.00     0.012 A 
HETATM   22  C   UNL     1      38.940 -13.878  -0.659  1.00  0.00     0.039 A 
HETATM   23  C   UNL     1      38.881 -13.408  -1.973  1.00  0.00     0.035 A 
HETATM   24 CL   UNL     1      37.422 -12.706  -2.555  1.00  0.00    -0.084 Cl
HETATM   25  C   UNL     1      39.987 -13.501  -2.815  1.00  0.00     0.024 A 
HETATM   26  C   UNL     1      41.169 -14.068  -2.339  1.00  0.00     0.003 A 
HETATM   27  C   UNL     1      41.235 -14.541  -1.027  1.00  0.00     0.015 A 
ENDBRANCH  19  21
ENDBRANCH   4  19
TORSDOF 4
ENDMDL
MODEL 9
REMARK VINA RESULT:      -7.7      3.507      5.700
REMARK  4 active torsions:
REMARK  status: ('A' for Active; 'I' for Inactive)
REMARK    1  A    between atoms: C_6  and  C_7 
REMARK    2  A    between atoms: C_7  and  N_8 
REMARK    3  A    between atoms: C_11  and  C_12 
REMARK    4  A    between atoms: C_12  and  C_13 
ROOT
HETATM    1  N   UNL     1      43.274 -17.826   4.643  1.00  0.00    -0.064 N 
HETATM    2  H   UNL     1      43.822 -16.982   4.389  1.00  0.00     0.280 HD
HETATM    3  C   UNL     1      42.275 -17.339   5.672  1.00  0.00     0.247 C 
HETATM    4  C   UNL     1      43.009 -16.649   6.830  1.00  0.00     0.086 C 
HETATM    5  C   UNL     1      44.087 -17.566   7.421  1.00  0.00     0.016 C 
HETATM    6  C   UNL     1      45.008 -18.170   6.359  1.00  0.00     0.029 C 
HETATM    7  C   UNL     1      44.236 -18.827   5.221  1.00  0.00     0.235 C 
ENDROOT
BRANCH   1   8
HETATM    8  C   UNL     1      42.631 -18.282   3.350  1.00  0.00     0.313 C 
BRANCH   8   9
HETATM    9  C   UNL     1      41.878 -17.233   2.598  1.00  0.00     0.131 A 
HETATM   10  N   UNL     1      42.279 -16.605   1.509  1.00  0.00    -0.232 NA
HETATM   11  C   UNL     1      41.247 -15.769   1.155  1.00  0.00     0.085 A 
HETATM   12  C   UNL     1      40.194 -15.883   2.055  1.00  0.00     0.062 A 
HETATM   13  C   UNL     1      41.136 -14.889   0.071  1.00  0.00     0.034 A 
HETATM   14  C   UNL     1      39.009 -15.155   1.940  1.00  0.00     0.032 A 
HETATM   15  N   UNL     1      40.622 -16.811   2.970  1.00  0.00    -0.341 N 
HETATM   16  C   UNL     1      38.912 -14.283   0.850  1.00  0.00     0.002 A 
HETATM   17  C   UNL     1      39.955 -14.149  -0.070  1.00  0.00     0.002 A 
HETATM   18  H   UNL     1      40.084 -17.127   3.765  1.00  0.00     0.167 HD
ENDBRANCH   8   9
ENDBRANCH   1   8
BRANCH   4  19
HETATM   19  C   UNL     1      43.620 -15.348   6.318  1.00  0.00     0.165 C 
HETATM   20  O   UNL     1      44.733 -15.005   6.729  1.00  0.00    -0.292 OA
BRANCH  19  21
HETATM   21  C   UNL     1      42.879 -14.487   5.347  1.00  0.00     0.012 A 
HETATM   22  C   UNL     1      41.595 -13.994   5.603  1.00  0.00     0.039 A 
HETATM   23  C   UNL     1      40.952 -13.204   4.648  1.00  0.00     0.035 A 
HETATM   24 CL   UNL     1      39.370 -12.608   4.970  1.00  0.00    -0.084 Cl
HETATM   25  C   UNL     1      41.574 -12.895   3.441  1.00  0.00     0.024 A 
HETATM   26  C   UNL     1      42.857 -13.377   3.185  1.00  0.00     0.003 A 
HETATM   27  C   UNL     1      43.506 -14.169   4.134  1.00  0.00     0.015 A 
ENDBRANCH  19  21
ENDBRANCH   4  19
TORSDOF 4
ENDMDL
MODEL 10
REMARK VINA RESULT:      -7.6      3.169      5.333
REMARK  4 active torsions:
REMARK  status: ('A' for Active; 'I' for Inactive)
REMARK    1  A    between atoms: C_6  and  C_7 
REMARK    2  A    between atoms: C_7  and  N_8 
REMARK    3  A    between atoms: C_11  and  C_12 
REMARK    4  A    between atoms: C_12  and  C_13 
ROOT
HETATM    1  N   UNL     1      43.197 -18.413   3.754  1.00  0.00    -0.064 N 
HETATM    2  H   UNL     1      43.635 -17.472   3.767  1.00  0.00     0.280 HD
HETATM    3  C   UNL     1      42.120 -18.348   4.817  1.00  0.00     0.247 C 
HETATM    4  C   UNL     1      42.732 -17.918   6.158  1.00  0.00     0.086 C 
HETATM    5  C   UNL     1      43.906 -18.827   6.541  1.00  0.00     0.016 C 
HETATM    6  C   UNL     1      44.922 -19.003   5.410  1.00  0.00     0.029 C 
HETATM    7  C   UNL     1      44.267 -19.412   4.096  1.00  0.00     0.235 C 
ENDROOT
BRANCH   1   8
HETATM    8  C   UNL     1      42.648 -18.571   2.352  1.00  0.00     0.313 C 
BRANCH   8   9
HETATM    9  C   UNL     1      41.757 -17.469   1.877  1.00  0.00     0.131 A 
HETATM   10  N   UNL     1      40.606 -17.103   2.410  1.00  0.00    -0.232 NA
HETATM   11  C   UNL     1      40.174 -16.029   1.669  1.00  0.00     0.085 A 
HETATM   12  C   UNL     1      41.077 -15.738   0.655  1.00  0.00     0.062 A 
HETATM   13  C   UNL     1      39.021 -15.246   1.811  1.00  0.00     0.034 A 
HETATM   14  C   UNL     1      40.898 -14.691  -0.251  1.00  0.00     0.032 A 
HETATM   15  N   UNL     1      42.070 -16.674   0.799  1.00  0.00    -0.341 N 
HETATM   16  C   UNL     1      39.744 -13.917  -0.094  1.00  0.00     0.002 A 
HETATM   17  C   UNL     1      38.819 -14.187   0.918  1.00  0.00     0.002 A 
HETATM   18  H   UNL     1      42.890 -16.739   0.211  1.00  0.00     0.167 HD
ENDBRANCH   8   9
ENDBRANCH   1   8
BRANCH   4  19
HETATM   19  C   UNL     1      43.179 -16.464   6.049  1.00  0.00     0.165 C 
HETATM   20  O   UNL     1      44.284 -16.141   6.497  1.00  0.00    -0.292 OA
BRANCH  19  21
HETATM   21  C   UNL     1      42.290 -15.436   5.427  1.00  0.00     0.012 A 
HETATM   22  C   UNL     1      42.681 -14.667   4.326  1.00  0.00     0.039 A 
HETATM   23  C   UNL     1      41.806 -13.714   3.800  1.00  0.00     0.035 A 
HETATM   24 CL   UNL     1      42.299 -12.770   2.448  1.00  0.00    -0.084 Cl
HETATM   25  C   UNL     1      40.544 -13.520   4.355  1.00  0.00     0.024 A 
HETATM   26  C   UNL     1      40.147 -14.289   5.448  1.00  0.00     0.003 A 
HETATM   27  C   UNL     1      41.016 -15.243   5.981  1.00  0.00     0.015 A 
ENDBRANCH  19  21
ENDBRANCH   4  19
TORSDOF 4
ENDMDL
