MODEL 1
REMARK VINA RESULT:      -9.9      0.000      0.000
REMARK  5 active torsions:
REMARK  status: ('A' for Active; 'I' for Inactive)
REMARK    1  A    between atoms: C_4  and  C_5 
REMARK    2  A    between atoms: C_6  and  N_7 
REMARK    3  A    between atoms: C_9  and  C_10 
REMARK       I    between atoms: C_10  and  N_11 
REMARK    4  A    between atoms: N_11  and  C_12 
REMARK    5  A    between atoms: C_12  and  C_13 
ROOT
HETATM    1  C   UNL     1      42.917 -17.866   4.288  1.00  0.00     0.019 A 
HETATM    2  C   UNL     1      42.805 -17.152   5.441  1.00  0.00     0.111 A 
HETATM    3  C   UNL     1      43.329 -17.762   6.738  1.00  0.00     0.273 A 
HETATM    4  O   UNL     1      43.234 -17.193   7.826  1.00  0.00    -0.266 OA
HETATM    5  N   UNL     1      43.917 -18.992   6.676  1.00  0.00    -0.321 N 
HETATM    6  C   UNL     1      44.068 -19.721   5.501  1.00  0.00     0.046 A 
HETATM    7  C   UNL     1      43.585 -19.196   4.299  1.00  0.00     0.006 A 
HETATM    8  C   UNL     1      44.709 -20.962   5.550  1.00  0.00     0.032 A 
HETATM    9  C   UNL     1      44.884 -21.695   4.378  1.00  0.00     0.026 A 
HETATM   10  C   UNL     1      44.416 -21.182   3.170  1.00  0.00     0.035 A 
HETATM   11 CL   UNL     1      44.641 -22.081   1.720  1.00  0.00    -0.084 Cl
HETATM   12  C   UNL     1      43.771 -19.945   3.126  1.00  0.00     0.038 A 
HETATM   13  H   UNL     1      44.251 -19.354   7.557  1.00  0.00     0.169 HD
ENDROOT
BRANCH   2  14
HETATM   14  N   UNL     1      42.227 -15.862   5.522  1.00  0.00    -0.375 N 
HETATM   15  C   UNL     1      43.078 -14.706   5.867  1.00  0.00     0.137 C 
HETATM   16  C   UNL     1      42.498 -13.408   5.288  1.00  0.00     0.096 C 
HETATM   17  C   UNL     1      41.042 -13.233   5.750  1.00  0.00     0.017 C 
HETATM   18  C   UNL     1      40.199 -14.488   5.506  1.00  0.00     0.021 C 
HETATM   19  C   UNL     1      40.868 -15.737   6.075  1.00  0.00     0.123 C 
BRANCH  16  20
HETATM   20  C   UNL     1      42.639 -13.320   3.766  1.00  0.00     0.223 C 
HETATM   21  N   UNL     1      41.511 -12.883   3.107  1.00  0.00    -0.358 N 
HETATM   22  H   UNL     1      40.621 -12.864   3.589  1.00  0.00     0.162 HD
HETATM   23  O   UNL     1      43.643 -13.686   3.160  1.00  0.00    -0.273 OA
BRANCH  21  24
HETATM   24  C   UNL     1      41.463 -12.732   1.664  1.00  0.00     0.154 C 
BRANCH  24  25
HETATM   25  C   UNL     1      40.034 -12.578   1.151  1.00  0.00     0.139 C 
HETATM   26  O   UNL     1      39.929 -13.105  -0.191  1.00  0.00    -0.384 OA
HETATM   27  C   UNL     1      38.690 -13.822  -0.300  1.00  0.00     0.168 C 
HETATM   28  C   UNL     1      37.925 -13.594   0.986  1.00  0.00     0.029 C 
HETATM   29  C   UNL     1      39.031 -13.363   1.981  1.00  0.00     0.035 C 
ENDBRANCH  24  25
ENDBRANCH  21  24
ENDBRANCH  16  20
ENDBRANCH   2  14
BRANCH   1  30
HETATM   30  C   UNL     1      42.397 -17.253   3.039  1.00  0.00    -0.023 A 
HETATM   31  C   UNL     1      43.281 -16.751   2.076  1.00  0.00     0.012 A 
HETATM   32  C   UNL     1      42.794 -16.197   0.892  1.00  0.00     0.001 A 
HETATM   33  C   UNL     1      41.421 -16.144   0.659  1.00  0.00     0.000 A 
HETATM   34  C   UNL     1      40.532 -16.648   1.609  1.00  0.00     0.001 A 
HETATM   35  C   UNL     1      41.017 -17.204   2.794  1.00  0.00     0.012 A 
ENDBRANCH   1  30
TORSDOF 5
ENDMDL
MODEL 2
REMARK VINA RESULT:      -9.2      1.206      1.848
REMARK  5 active torsions:
REMARK  status: ('A' for Active; 'I' for Inactive)
REMARK    1  A    between atoms: C_4  and  C_5 
REMARK    2  A    between atoms: C_6  and  N_7 
REMARK    3  A    between atoms: C_9  and  C_10 
REMARK       I    between atoms: C_10  and  N_11 
REMARK    4  A    between atoms: N_11  and  C_12 
REMARK    5  A    between atoms: C_12  and  C_13 
ROOT
HETATM    1  C   UNL     1      42.906 -17.768   4.155  1.00  0.00     0.019 A 
HETATM    2  C   UNL     1      42.895 -17.032   5.299  1.00  0.00     0.111 A 
HETATM    3  C   UNL     1      43.542 -17.612   6.554  1.00  0.00     0.273 A 
HETATM    4  O   UNL     1      43.543 -17.021   7.635  1.00  0.00    -0.266 OA
HETATM    5  N   UNL     1      44.133 -18.839   6.461  1.00  0.00    -0.321 N 
HETATM    6  C   UNL     1      44.181 -19.590   5.292  1.00  0.00     0.046 A 
HETATM    7  C   UNL     1      43.585 -19.093   4.130  1.00  0.00     0.006 A 
HETATM    8  C   UNL     1      44.835 -20.825   5.305  1.00  0.00     0.032 A 
HETATM    9  C   UNL     1      44.907 -21.581   4.136  1.00  0.00     0.026 A 
HETATM   10  C   UNL     1      44.325 -21.095   2.968  1.00  0.00     0.035 A 
HETATM   11 CL   UNL     1      44.423 -22.022   1.520  1.00  0.00    -0.084 Cl
HETATM   12  C   UNL     1      43.668 -19.864   2.960  1.00  0.00     0.038 A 
HETATM   13  H   UNL     1      44.551 -19.181   7.314  1.00  0.00     0.169 HD
ENDROOT
BRANCH   2  14
HETATM   14  N   UNL     1      42.316 -15.745   5.408  1.00  0.00    -0.375 N 
HETATM   15  C   UNL     1      43.181 -14.579   5.676  1.00  0.00     0.137 C 
HETATM   16  C   UNL     1      42.552 -13.292   5.127  1.00  0.00     0.096 C 
HETATM   17  C   UNL     1      41.132 -13.121   5.695  1.00  0.00     0.017 C 
HETATM   18  C   UNL     1      40.283 -14.383   5.527  1.00  0.00     0.021 C 
HETATM   19  C   UNL     1      41.001 -15.622   6.059  1.00  0.00     0.123 C 
BRANCH  16  20
HETATM   20  C   UNL     1      42.578 -13.221   3.598  1.00  0.00     0.223 C 
HETATM   21  N   UNL     1      41.413 -12.765   3.022  1.00  0.00    -0.358 N 
HETATM   22  H   UNL     1      40.563 -12.722   3.569  1.00  0.00     0.162 HD
HETATM   23  O   UNL     1      43.525 -13.616   2.921  1.00  0.00    -0.273 OA
BRANCH  21  24
HETATM   24  C   UNL     1      41.258 -12.627   1.584  1.00  0.00     0.154 C 
BRANCH  24  25
HETATM   25  C   UNL     1      41.726 -11.261   1.088  1.00  0.00     0.139 C 
HETATM   26  O   UNL     1      42.839 -11.419   0.179  1.00  0.00    -0.384 OA
HETATM   27  C   UNL     1      42.668 -10.500  -0.910  1.00  0.00     0.168 C 
HETATM   28  C   UNL     1      41.477  -9.626  -0.577  1.00  0.00     0.029 C 
HETATM   29  C   UNL     1      40.651 -10.531   0.299  1.00  0.00     0.035 C 
ENDBRANCH  24  25
ENDBRANCH  21  24
ENDBRANCH  16  20
ENDBRANCH   2  14
BRANCH   1  30
HETATM   30  C   UNL     1      42.267 -17.184   2.948  1.00  0.00    -0.023 A 
HETATM   31  C   UNL     1      40.873 -17.082   2.865  1.00  0.00     0.012 A 
HETATM   32  C   UNL     1      40.273 -16.512   1.742  1.00  0.00     0.001 A 
HETATM   33  C   UNL     1      41.062 -16.035   0.696  1.00  0.00     0.000 A 
HETATM   34  C   UNL     1      42.451 -16.124   0.773  1.00  0.00     0.001 A 
HETATM   35  C   UNL     1      43.054 -16.694   1.896  1.00  0.00     0.012 A 
ENDBRANCH   1  30
TORSDOF 5
ENDMDL
MODEL 3
REMARK VINA RESULT:      -8.4      2.690      7.269
REMARK  5 active torsions:
REMARK  status: ('A' for Active; 'I' for Inactive)
REMARK    1  A    between atoms: C_4  and  C_5 
REMARK    2  A    between atoms: C_6  and  N_7 
REMARK    3  A    between atoms: C_9  and  C_10 
REMARK       I    between atoms: C_10  and  N_11 
REMARK    4  A    between atoms: N_11  and  C_12 
REMARK    5  A    between atoms: C_12  and  C_13 
ROOT
HETATM    1  C   UNL     1      40.416 -14.320   2.573  1.00  0.00     0.019 A 
HETATM    2  C   UNL     1      40.577 -13.870   3.846  1.00  0.00     0.111 A 
HETATM    3  C   UNL     1      39.739 -12.686   4.320  1.00  0.00     0.273 A 
HETATM    4  O   UNL     1      39.851 -12.201   5.447  1.00  0.00    -0.266 OA
HETATM    5  N   UNL     1      38.838 -12.149   3.447  1.00  0.00    -0.321 N 
HETATM    6  C   UNL     1      38.639 -12.617   2.153  1.00  0.00     0.046 A 
HETATM    7  C   UNL     1      39.402 -13.690   1.684  1.00  0.00     0.006 A 
HETATM    8  C   UNL     1      37.671 -12.005   1.351  1.00  0.00     0.032 A 
HETATM    9  C   UNL     1      37.447 -12.476   0.058  1.00  0.00     0.026 A 
HETATM   10  C   UNL     1      38.194 -13.550  -0.420  1.00  0.00     0.035 A 
HETATM   11 CL   UNL     1      37.911 -14.139  -2.013  1.00  0.00    -0.084 Cl
HETATM   12  C   UNL     1      39.163 -14.155   0.381  1.00  0.00     0.038 A 
HETATM   13  H   UNL     1      38.304 -11.370   3.804  1.00  0.00     0.169 HD
ENDROOT
BRANCH   2  14
HETATM   14  N   UNL     1      41.483 -14.433   4.778  1.00  0.00    -0.375 N 
HETATM   15  C   UNL     1      40.963 -15.242   5.898  1.00  0.00     0.137 C 
HETATM   16  C   UNL     1      42.010 -16.258   6.372  1.00  0.00     0.096 C 
HETATM   17  C   UNL     1      43.322 -15.535   6.721  1.00  0.00     0.017 C 
HETATM   18  C   UNL     1      43.784 -14.598   5.602  1.00  0.00     0.021 C 
HETATM   19  C   UNL     1      42.669 -13.651   5.162  1.00  0.00     0.123 C 
BRANCH  16  20
HETATM   20  C   UNL     1      42.224 -17.401   5.376  1.00  0.00     0.223 C 
HETATM   21  N   UNL     1      43.544 -17.720   5.139  1.00  0.00    -0.358 N 
HETATM   22  H   UNL     1      44.275 -17.084   5.426  1.00  0.00     0.162 HD
HETATM   23  O   UNL     1      41.307 -17.943   4.763  1.00  0.00    -0.273 OA
BRANCH  21  24
HETATM   24  C   UNL     1      43.936 -18.781   4.229  1.00  0.00     0.154 C 
BRANCH  24  25
HETATM   25  C   UNL     1      44.734 -19.875   4.934  1.00  0.00     0.139 C 
HETATM   26  O   UNL     1      44.090 -20.232   6.178  1.00  0.00    -0.384 OA
HETATM   27  C   UNL     1      44.154 -21.659   6.327  1.00  0.00     0.168 C 
HETATM   28  C   UNL     1      45.014 -22.190   5.200  1.00  0.00     0.029 C 
HETATM   29  C   UNL     1      44.803 -21.158   4.123  1.00  0.00     0.035 C 
ENDBRANCH  24  25
ENDBRANCH  21  24
ENDBRANCH  16  20
ENDBRANCH   2  14
BRANCH   1  30
HETATM   30  C   UNL     1      41.246 -15.472   2.134  1.00  0.00    -0.023 A 
HETATM   31  C   UNL     1      40.646 -16.700   1.830  1.00  0.00     0.012 A 
HETATM   32  C   UNL     1      41.422 -17.774   1.394  1.00  0.00     0.001 A 
HETATM   33  C   UNL     1      42.801 -17.628   1.254  1.00  0.00     0.000 A 
HETATM   34  C   UNL     1      43.407 -16.407   1.547  1.00  0.00     0.001 A 
HETATM   35  C   UNL     1      42.633 -15.330   1.982  1.00  0.00     0.012 A 
ENDBRANCH   1  30
TORSDOF 5
ENDMDL
MODEL 4
REMARK VINA RESULT:      -8.4      2.501      4.072
REMARK  5 active torsions:
REMARK  status: ('A' for Active; 'I' for Inactive)
REMARK    1  A    between atoms: C_4  and  C_5 
REMARK    2  A    between atoms: C_6  and  N_7 
REMARK    3  A    between atoms: C_9  and  C_10 
REMARK       I    between atoms: C_10  and  N_11 
REMARK    4  A    between atoms: N_11  and  C_12 
REMARK    5  A    between atoms: C_12  and  C_13 
ROOT
HETATM    1  C   UNL     1      43.041 -17.837   3.892  1.00  0.00     0.019 A 
HETATM    2  C   UNL     1      42.367 -17.061   3.001  1.00  0.00     0.111 A 
HETATM    3  C   UNL     1      42.172 -17.576   1.577  1.00  0.00     0.273 A 
HETATM    4  O   UNL     1      41.602 -16.919   0.705  1.00  0.00    -0.266 OA
HETATM    5  N   UNL     1      42.660 -18.813   1.271  1.00  0.00    -0.321 N 
HETATM    6  C   UNL     1      43.323 -19.632   2.179  1.00  0.00     0.046 A 
HETATM    7  C   UNL     1      43.530 -19.183   3.486  1.00  0.00     0.006 A 
HETATM    8  C   UNL     1      43.760 -20.892   1.763  1.00  0.00     0.032 A 
HETATM    9  C   UNL     1      44.409 -21.731   2.668  1.00  0.00     0.026 A 
HETATM   10  C   UNL     1      44.616 -21.301   3.976  1.00  0.00     0.035 A 
HETATM   11 CL   UNL     1      45.408 -22.340   5.097  1.00  0.00    -0.084 Cl
HETATM   12  C   UNL     1      44.184 -20.040   4.386  1.00  0.00     0.038 A 
HETATM   13  H   UNL     1      42.505 -19.114   0.320  1.00  0.00     0.169 HD
ENDROOT
BRANCH   2  14
HETATM   14  N   UNL     1      41.826 -15.789   3.307  1.00  0.00    -0.375 N 
HETATM   15  C   UNL     1      42.667 -14.586   3.150  1.00  0.00     0.137 C 
HETATM   16  C   UNL     1      41.804 -13.346   2.882  1.00  0.00     0.096 C 
HETATM   17  C   UNL     1      40.747 -13.193   3.990  1.00  0.00     0.017 C 
HETATM   18  C   UNL     1      39.968 -14.488   4.233  1.00  0.00     0.021 C 
HETATM   19  C   UNL     1      40.902 -15.678   4.448  1.00  0.00     0.123 C 
BRANCH  16  20
HETATM   20  C   UNL     1      41.182 -13.345   1.483  1.00  0.00     0.223 C 
HETATM   21  N   UNL     1      42.020 -13.778   0.479  1.00  0.00    -0.358 N 
HETATM   22  H   UNL     1      43.014 -13.852   0.649  1.00  0.00     0.162 HD
HETATM   23  O   UNL     1      40.055 -12.914   1.247  1.00  0.00    -0.273 OA
BRANCH  21  24
HETATM   24  C   UNL     1      41.598 -13.849  -0.909  1.00  0.00     0.154 C 
BRANCH  24  25
HETATM   25  C   UNL     1      42.437 -12.946  -1.809  1.00  0.00     0.139 C 
HETATM   26  O   UNL     1      42.134 -13.211  -3.197  1.00  0.00    -0.384 OA
HETATM   27  C   UNL     1      42.081 -11.958  -3.896  1.00  0.00     0.168 C 
HETATM   28  C   UNL     1      42.527 -10.884  -2.926  1.00  0.00     0.029 C 
HETATM   29  C   UNL     1      42.135 -11.472  -1.595  1.00  0.00     0.035 C 
ENDBRANCH  24  25
ENDBRANCH  21  24
ENDBRANCH  16  20
ENDBRANCH   2  14
BRANCH   1  30
HETATM   30  C   UNL     1      43.221 -17.313   5.271  1.00  0.00    -0.023 A 
HETATM   31  C   UNL     1      42.409 -17.773   6.314  1.00  0.00     0.012 A 
HETATM   32  C   UNL     1      42.594 -17.299   7.613  1.00  0.00     0.001 A 
HETATM   33  C   UNL     1      43.594 -16.366   7.880  1.00  0.00     0.000 A 
HETATM   34  C   UNL     1      44.414 -15.908   6.849  1.00  0.00     0.001 A 
HETATM   35  C   UNL     1      44.232 -16.381   5.548  1.00  0.00     0.012 A 
ENDBRANCH   1  30
TORSDOF 5
ENDMDL
MODEL 5
REMARK VINA RESULT:      -8.0      2.186      3.555
REMARK  5 active torsions:
REMARK  status: ('A' for Active; 'I' for Inactive)
REMARK    1  A    between atoms: C_4  and  C_5 
REMARK    2  A    between atoms: C_6  and  N_7 
REMARK    3  A    between atoms: C_9  and  C_10 
REMARK       I    between atoms: C_10  and  N_11 
REMARK    4  A    between atoms: N_11  and  C_12 
REMARK    5  A    between atoms: C_12  and  C_13 
ROOT
HETATM    1  C   UNL     1      43.179 -17.861   3.906  1.00  0.00     0.019 A 
HETATM    2  C   UNL     1      42.580 -17.051   2.992  1.00  0.00     0.111 A 
HETATM    3  C   UNL     1      42.451 -17.536   1.551  1.00  0.00     0.273 A 
HETATM    4  O   UNL     1      41.952 -16.847   0.661  1.00  0.00    -0.266 OA
HETATM    5  N   UNL     1      42.918 -18.782   1.251  1.00  0.00    -0.321 N 
HETATM    6  C   UNL     1      43.504 -19.636   2.179  1.00  0.00     0.046 A 
HETATM    7  C   UNL     1      43.651 -19.215   3.504  1.00  0.00     0.006 A 
HETATM    8  C   UNL     1      43.926 -20.902   1.766  1.00  0.00     0.032 A 
HETATM    9  C   UNL     1      44.498 -21.775   2.690  1.00  0.00     0.026 A 
HETATM   10  C   UNL     1      44.644 -21.373   4.015  1.00  0.00     0.035 A 
HETATM   11 CL   UNL     1      45.340 -22.455   5.160  1.00  0.00    -0.084 Cl
HETATM   12  C   UNL     1      44.226 -20.106   4.424  1.00  0.00     0.038 A 
HETATM   13  H   UNL     1      42.809 -19.062   0.287  1.00  0.00     0.169 HD
ENDROOT
BRANCH   2  14
HETATM   14  N   UNL     1      42.061 -15.768   3.291  1.00  0.00    -0.375 N 
HETATM   15  C   UNL     1      42.986 -14.629   3.450  1.00  0.00     0.137 C 
HETATM   16  C   UNL     1      42.287 -13.305   3.115  1.00  0.00     0.096 C 
HETATM   17  C   UNL     1      41.011 -13.157   3.962  1.00  0.00     0.017 C 
HETATM   18  C   UNL     1      40.120 -14.399   3.892  1.00  0.00     0.021 C 
HETATM   19  C   UNL     1      40.903 -15.675   4.196  1.00  0.00     0.123 C 
BRANCH  16  20
HETATM   20  C   UNL     1      42.012 -13.138   1.618  1.00  0.00     0.223 C 
HETATM   21  N   UNL     1      40.922 -12.351   1.316  1.00  0.00    -0.358 N 
HETATM   22  H   UNL     1      40.251 -12.122   2.037  1.00  0.00     0.162 HD
HETATM   23  O   UNL     1      42.652 -13.722   0.747  1.00  0.00    -0.273 OA
BRANCH  21  24
HETATM   24  C   UNL     1      40.515 -12.078  -0.051  1.00  0.00     0.154 C 
BRANCH  24  25
HETATM   25  C   UNL     1      39.071 -12.495  -0.312  1.00  0.00     0.139 C 
HETATM   26  O   UNL     1      38.865 -13.862   0.112  1.00  0.00    -0.384 OA
HETATM   27  C   UNL     1      37.585 -13.947   0.758  1.00  0.00     0.168 C 
HETATM   28  C   UNL     1      36.904 -12.606   0.583  1.00  0.00     0.029 C 
HETATM   29  C   UNL     1      38.074 -11.664   0.479  1.00  0.00     0.035 C 
ENDBRANCH  24  25
ENDBRANCH  21  24
ENDBRANCH  16  20
ENDBRANCH   2  14
BRANCH   1  30
HETATM   30  C   UNL     1      43.297 -17.366   5.302  1.00  0.00    -0.023 A 
HETATM   31  C   UNL     1      42.377 -17.772   6.276  1.00  0.00     0.012 A 
HETATM   32  C   UNL     1      42.501 -17.326   7.592  1.00  0.00     0.001 A 
HETATM   33  C   UNL     1      43.547 -16.476   7.946  1.00  0.00     0.000 A 
HETATM   34  C   UNL     1      44.472 -16.072   6.984  1.00  0.00     0.001 A 
HETATM   35  C   UNL     1      44.351 -16.517   5.667  1.00  0.00     0.012 A 
ENDBRANCH   1  30
TORSDOF 5
ENDMDL
MODEL 6
REMARK VINA RESULT:      -7.9      2.941      4.940
REMARK  5 active torsions:
REMARK  status: ('A' for Active; 'I' for Inactive)
REMARK    1  A    between atoms: C_4  and  C_5 
REMARK    2  A    between atoms: C_6  and  N_7 
REMARK    3  A    between atoms: C_9  and  C_10 
REMARK       I    between atoms: C_10  and  N_11 
REMARK    4  A    between atoms: N_11  and  C_12 
REMARK    5  A    between atoms: C_12  and  C_13 
ROOT
HETATM    1  C   UNL     1      43.363 -17.811   3.592  1.00  0.00     0.019 A 
HETATM    2  C   UNL     1      43.681 -17.019   4.651  1.00  0.00     0.111 A 
HETATM    3  C   UNL     1      44.508 -17.608   5.790  1.00  0.00     0.273 A 
HETATM    4  O   UNL     1      44.808 -16.964   6.796  1.00  0.00    -0.266 OA
HETATM    5  N   UNL     1      44.920 -18.904   5.678  1.00  0.00    -0.321 N 
HETATM    6  C   UNL     1      44.631 -19.718   4.588  1.00  0.00     0.046 A 
HETATM    7  C   UNL     1      43.863 -19.212   3.536  1.00  0.00     0.006 A 
HETATM    8  C   UNL     1      45.125 -21.025   4.568  1.00  0.00     0.032 A 
HETATM    9  C   UNL     1      44.860 -21.847   3.474  1.00  0.00     0.026 A 
HETATM   10  C   UNL     1      44.102 -21.355   2.413  1.00  0.00     0.035 A 
HETATM   11 CL   UNL     1      43.782 -22.365   1.057  1.00  0.00    -0.084 Cl
HETATM   12  C   UNL     1      43.605 -20.051   2.440  1.00  0.00     0.038 A 
HETATM   13  H   UNL     1      45.467 -19.250   6.453  1.00  0.00     0.169 HD
ENDROOT
BRANCH   2  14
HETATM   14  N   UNL     1      43.291 -15.663   4.771  1.00  0.00    -0.375 N 
HETATM   15  C   UNL     1      42.379 -15.263   5.862  1.00  0.00     0.137 C 
HETATM   16  C   UNL     1      42.586 -13.790   6.236  1.00  0.00     0.096 C 
HETATM   17  C   UNL     1      42.439 -12.906   4.986  1.00  0.00     0.017 C 
HETATM   18  C   UNL     1      43.291 -13.407   3.817  1.00  0.00     0.021 C 
HETATM   19  C   UNL     1      43.056 -14.890   3.540  1.00  0.00     0.123 C 
BRANCH  16  20
HETATM   20  C   UNL     1      43.906 -13.542   6.970  1.00  0.00     0.223 C 
HETATM   21  N   UNL     1      43.809 -12.715   8.068  1.00  0.00    -0.358 N 
HETATM   22  H   UNL     1      42.978 -12.153   8.204  1.00  0.00     0.162 HD
HETATM   23  O   UNL     1      44.988 -13.969   6.574  1.00  0.00    -0.273 OA
BRANCH  21  24
HETATM   24  C   UNL     1      44.957 -12.373   8.889  1.00  0.00     0.154 C 
BRANCH  24  25
HETATM   25  C   UNL     1      44.736 -11.083   9.673  1.00  0.00     0.139 C 
HETATM   26  O   UNL     1      43.467 -10.494   9.309  1.00  0.00    -0.384 OA
HETATM   27  C   UNL     1      42.841  -9.996  10.502  1.00  0.00     0.168 C 
HETATM   28  C   UNL     1      43.841 -10.145  11.629  1.00  0.00     0.029 C 
HETATM   29  C   UNL     1      44.665 -11.320  11.173  1.00  0.00     0.035 C 
ENDBRANCH  24  25
ENDBRANCH  21  24
ENDBRANCH  16  20
ENDBRANCH   2  14
BRANCH   1  30
HETATM   30  C   UNL     1      42.554 -17.216   2.497  1.00  0.00    -0.023 A 
HETATM   31  C   UNL     1      43.166 -16.810   1.306  1.00  0.00     0.012 A 
HETATM   32  C   UNL     1      42.404 -16.273   0.268  1.00  0.00     0.001 A 
HETATM   33  C   UNL     1      41.023 -16.144   0.412  1.00  0.00     0.000 A 
HETATM   34  C   UNL     1      40.403 -16.553   1.591  1.00  0.00     0.001 A 
HETATM   35  C   UNL     1      41.164 -17.092   2.631  1.00  0.00     0.012 A 
ENDBRANCH   1  30
TORSDOF 5
ENDMDL
MODEL 7
REMARK VINA RESULT:      -7.7      3.138      7.828
REMARK  5 active torsions:
REMARK  status: ('A' for Active; 'I' for Inactive)
REMARK    1  A    between atoms: C_4  and  C_5 
REMARK    2  A    between atoms: C_6  and  N_7 
REMARK    3  A    between atoms: C_9  and  C_10 
REMARK       I    between atoms: C_10  and  N_11 
REMARK    4  A    between atoms: N_11  and  C_12 
REMARK    5  A    between atoms: C_12  and  C_13 
ROOT
HETATM    1  C   UNL     1      41.423 -13.519   4.690  1.00  0.00     0.019 A 
HETATM    2  C   UNL     1      41.292 -13.631   3.341  1.00  0.00     0.111 A 
HETATM    3  C   UNL     1      41.156 -12.361   2.506  1.00  0.00     0.273 A 
HETATM    4  O   UNL     1      41.001 -12.382   1.284  1.00  0.00    -0.266 OA
HETATM    5  N   UNL     1      41.205 -11.161   3.154  1.00  0.00    -0.321 N 
HETATM    6  C   UNL     1      41.370 -11.027   4.528  1.00  0.00     0.046 A 
HETATM    7  C   UNL     1      41.482 -12.173   5.322  1.00  0.00     0.006 A 
HETATM    8  C   UNL     1      41.429  -9.747   5.083  1.00  0.00     0.032 A 
HETATM    9  C   UNL     1      41.614  -9.597   6.457  1.00  0.00     0.026 A 
HETATM   10  C   UNL     1      41.735 -10.728   7.261  1.00  0.00     0.035 A 
HETATM   11 CL   UNL     1      41.973 -10.546   8.955  1.00  0.00    -0.084 Cl
HETATM   12  C   UNL     1      41.669 -12.006   6.703  1.00  0.00     0.038 A 
HETATM   13  H   UNL     1      41.114 -10.348   2.562  1.00  0.00     0.169 HD
ENDROOT
BRANCH   2  14
HETATM   14  N   UNL     1      41.271 -14.865   2.646  1.00  0.00    -0.375 N 
HETATM   15  C   UNL     1      42.496 -15.339   1.972  1.00  0.00     0.137 C 
HETATM   16  C   UNL     1      42.506 -16.869   1.865  1.00  0.00     0.096 C 
HETATM   17  C   UNL     1      41.221 -17.354   1.172  1.00  0.00     0.017 C 
HETATM   18  C   UNL     1      39.960 -16.753   1.799  1.00  0.00     0.021 C 
HETATM   19  C   UNL     1      40.052 -15.232   1.907  1.00  0.00     0.123 C 
BRANCH  16  20
HETATM   20  C   UNL     1      42.734 -17.559   3.213  1.00  0.00     0.223 C 
HETATM   21  N   UNL     1      44.045 -17.890   3.476  1.00  0.00    -0.358 N 
HETATM   22  H   UNL     1      44.727 -17.883   2.729  1.00  0.00     0.162 HD
HETATM   23  O   UNL     1      41.820 -17.875   3.971  1.00  0.00    -0.273 OA
BRANCH  21  24
HETATM   24  C   UNL     1      44.449 -18.544   4.708  1.00  0.00     0.154 C 
BRANCH  24  25
HETATM   25  C   UNL     1      45.071 -19.914   4.452  1.00  0.00     0.139 C 
HETATM   26  O   UNL     1      44.793 -20.799   5.560  1.00  0.00    -0.384 OA
HETATM   27  C   UNL     1      44.475 -22.097   5.034  1.00  0.00     0.168 C 
HETATM   28  C   UNL     1      44.722 -22.049   3.542  1.00  0.00     0.029 C 
HETATM   29  C   UNL     1      44.487 -20.596   3.225  1.00  0.00     0.035 C 
ENDBRANCH  24  25
ENDBRANCH  21  24
ENDBRANCH  16  20
ENDBRANCH   2  14
BRANCH   1  30
HETATM   30  C   UNL     1      41.549 -14.770   5.481  1.00  0.00    -0.023 A 
HETATM   31  C   UNL     1      42.797 -15.173   5.972  1.00  0.00     0.012 A 
HETATM   32  C   UNL     1      42.913 -16.335   6.735  1.00  0.00     0.001 A 
HETATM   33  C   UNL     1      41.782 -17.099   7.019  1.00  0.00     0.000 A 
HETATM   34  C   UNL     1      40.534 -16.701   6.542  1.00  0.00     0.001 A 
HETATM   35  C   UNL     1      40.415 -15.539   5.778  1.00  0.00     0.012 A 
ENDBRANCH   1  30
TORSDOF 5
ENDMDL
MODEL 8
REMARK VINA RESULT:      -7.6      4.008      8.576
REMARK  5 active torsions:
REMARK  status: ('A' for Active; 'I' for Inactive)
REMARK    1  A    between atoms: C_4  and  C_5 
REMARK    2  A    between atoms: C_6  and  N_7 
REMARK    3  A    between atoms: C_9  and  C_10 
REMARK       I    between atoms: C_10  and  N_11 
REMARK    4  A    between atoms: N_11  and  C_12 
REMARK    5  A    between atoms: C_12  and  C_13 
ROOT
HETATM    1  C   UNL     1      40.973 -13.110  -1.812  1.00  0.00     0.019 A 
HETATM    2  C   UNL     1      41.278 -13.298  -0.500  1.00  0.00     0.111 A 
HETATM    3  C   UNL     1      42.227 -12.318   0.183  1.00  0.00     0.273 A 
HETATM    4  O   UNL     1      42.576 -12.440   1.358  1.00  0.00    -0.266 OA
HETATM    5  N   UNL     1      42.707 -11.273  -0.552  1.00  0.00    -0.321 N 
HETATM    6  C   UNL     1      42.381 -11.048  -1.885  1.00  0.00     0.046 A 
HETATM    7  C   UNL     1      41.525 -11.936  -2.543  1.00  0.00     0.006 A 
HETATM    8  C   UNL     1      42.912  -9.931  -2.534  1.00  0.00     0.032 A 
HETATM    9  C   UNL     1      42.579  -9.682  -3.865  1.00  0.00     0.026 A 
HETATM   10  C   UNL     1      41.722 -10.554  -4.532  1.00  0.00     0.035 A 
HETATM   11 CL   UNL     1      41.301 -10.243  -6.172  1.00  0.00    -0.084 Cl
HETATM   12  C   UNL     1      41.198 -11.672  -3.882  1.00  0.00     0.038 A 
HETATM   13  H   UNL     1      43.328 -10.649  -0.058  1.00  0.00     0.169 HD
ENDROOT
BRANCH   2  14
HETATM   14  N   UNL     1      40.766 -14.357   0.289  1.00  0.00    -0.375 N 
HETATM   15  C   UNL     1      41.051 -15.753  -0.098  1.00  0.00     0.137 C 
HETATM   16  C   UNL     1      41.016 -16.678   1.126  1.00  0.00     0.096 C 
HETATM   17  C   UNL     1      39.672 -16.527   1.858  1.00  0.00     0.017 C 
HETATM   18  C   UNL     1      39.324 -15.063   2.139  1.00  0.00     0.021 C 
HETATM   19  C   UNL     1      39.425 -14.206   0.878  1.00  0.00     0.123 C 
BRANCH  16  20
HETATM   20  C   UNL     1      42.212 -16.475   2.061  1.00  0.00     0.223 C 
HETATM   21  N   UNL     1      42.258 -17.337   3.134  1.00  0.00    -0.358 N 
HETATM   22  H   UNL     1      41.439 -17.878   3.382  1.00  0.00     0.162 HD
HETATM   23  O   UNL     1      43.026 -15.565   1.925  1.00  0.00    -0.273 OA
BRANCH  21  24
HETATM   24  C   UNL     1      43.323 -17.295   4.120  1.00  0.00     0.154 C 
BRANCH  24  25
HETATM   25  C   UNL     1      44.334 -18.420   3.919  1.00  0.00     0.139 C 
HETATM   26  O   UNL     1      44.613 -19.067   5.181  1.00  0.00    -0.384 OA
HETATM   27  C   UNL     1      44.690 -20.484   4.957  1.00  0.00     0.168 C 
HETATM   28  C   UNL     1      44.610 -20.705   3.461  1.00  0.00     0.029 C 
HETATM   29  C   UNL     1      43.811 -19.514   3.002  1.00  0.00     0.035 C 
ENDBRANCH  24  25
ENDBRANCH  21  24
ENDBRANCH  16  20
ENDBRANCH   2  14
BRANCH   1  30
HETATM   30  C   UNL     1      40.050 -14.079  -2.457  1.00  0.00    -0.023 A 
HETATM   31  C   UNL     1      38.668 -13.855  -2.443  1.00  0.00     0.012 A 
HETATM   32  C   UNL     1      37.802 -14.752  -3.069  1.00  0.00     0.001 A 
HETATM   33  C   UNL     1      38.310 -15.877  -3.716  1.00  0.00     0.000 A 
HETATM   34  C   UNL     1      39.686 -16.105  -3.742  1.00  0.00     0.001 A 
HETATM   35  C   UNL     1      40.555 -15.208  -3.117  1.00  0.00     0.012 A 
ENDBRANCH   1  30
TORSDOF 5
ENDMDL
MODEL 9
REMARK VINA RESULT:      -7.5      2.660      4.789
REMARK  5 active torsions:
REMARK  status: ('A' for Active; 'I' for Inactive)
REMARK    1  A    between atoms: C_4  and  C_5 
REMARK    2  A    between atoms: C_6  and  N_7 
REMARK    3  A    between atoms: C_9  and  C_10 
REMARK       I    between atoms: C_10  and  N_11 
REMARK    4  A    between atoms: N_11  and  C_12 
REMARK    5  A    between atoms: C_12  and  C_13 
ROOT
HETATM    1  C   UNL     1      42.004 -15.839   3.276  1.00  0.00     0.019 A 
HETATM    2  C   UNL     1      41.501 -15.740   2.016  1.00  0.00     0.111 A 
HETATM    3  C   UNL     1      41.878 -16.802   0.987  1.00  0.00     0.273 A 
HETATM    4  O   UNL     1      41.490 -16.763  -0.181  1.00  0.00    -0.266 OA
HETATM    5  N   UNL     1      42.683 -17.828   1.390  1.00  0.00    -0.321 N 
HETATM    6  C   UNL     1      43.180 -17.961   2.682  1.00  0.00     0.046 A 
HETATM    7  C   UNL     1      42.865 -16.997   3.644  1.00  0.00     0.006 A 
HETATM    8  C   UNL     1      43.977 -19.066   2.992  1.00  0.00     0.032 A 
HETATM    9  C   UNL     1      44.466 -19.223   4.288  1.00  0.00     0.026 A 
HETATM   10  C   UNL     1      44.155 -18.275   5.259  1.00  0.00     0.035 A 
HETATM   11 CL   UNL     1      44.749 -18.473   6.862  1.00  0.00    -0.084 Cl
HETATM   12  C   UNL     1      43.363 -17.170   4.945  1.00  0.00     0.038 A 
HETATM   13  H   UNL     1      42.903 -18.508   0.678  1.00  0.00     0.169 HD
ENDROOT
BRANCH   2  14
HETATM   14  N   UNL     1      40.639 -14.702   1.586  1.00  0.00    -0.375 N 
HETATM   15  C   UNL     1      41.060 -13.296   1.743  1.00  0.00     0.137 C 
HETATM   16  C   UNL     1      40.383 -12.401   0.697  1.00  0.00     0.096 C 
HETATM   17  C   UNL     1      38.857 -12.575   0.768  1.00  0.00     0.017 C 
HETATM   18  C   UNL     1      38.437 -14.047   0.735  1.00  0.00     0.021 C 
HETATM   19  C   UNL     1      39.189 -14.872   1.777  1.00  0.00     0.123 C 
BRANCH  16  20
HETATM   20  C   UNL     1      40.928 -12.621  -0.717  1.00  0.00     0.223 C 
HETATM   21  N   UNL     1      40.140 -12.109  -1.724  1.00  0.00    -0.358 N 
HETATM   22  H   UNL     1      39.186 -11.835  -1.528  1.00  0.00     0.162 HD
HETATM   23  O   UNL     1      41.941 -13.275  -0.955  1.00  0.00    -0.273 OA
BRANCH  21  24
HETATM   24  C   UNL     1      40.501 -12.219  -3.127  1.00  0.00     0.154 C 
BRANCH  24  25
HETATM   25  C   UNL     1      39.771 -13.367  -3.818  1.00  0.00     0.139 C 
HETATM   26  O   UNL     1      40.597 -14.553  -3.814  1.00  0.00    -0.384 OA
HETATM   27  C   UNL     1      39.761 -15.686  -3.532  1.00  0.00     0.168 C 
HETATM   28  C   UNL     1      38.329 -15.195  -3.516  1.00  0.00     0.029 C 
HETATM   29  C   UNL     1      38.489 -13.756  -3.099  1.00  0.00     0.035 C 
ENDBRANCH  24  25
ENDBRANCH  21  24
ENDBRANCH  16  20
ENDBRANCH   2  14
BRANCH   1  30
HETATM   30  C   UNL     1      41.626 -14.791   4.259  1.00  0.00    -0.023 A 
HETATM   31  C   UNL     1      40.426 -14.893   4.974  1.00  0.00     0.012 A 
HETATM   32  C   UNL     1      40.082 -13.922   5.915  1.00  0.00     0.001 A 
HETATM   33  C   UNL     1      40.936 -12.845   6.151  1.00  0.00     0.000 A 
HETATM   34  C   UNL     1      42.136 -12.740   5.449  1.00  0.00     0.001 A 
HETATM   35  C   UNL     1      42.483 -13.711   4.508  1.00  0.00     0.012 A 
ENDBRANCH   1  30
TORSDOF 5
ENDMDL
MODEL 10
REMARK VINA RESULT:      -7.4      3.989      8.072
REMARK  5 active torsions:
REMARK  status: ('A' for Active; 'I' for Inactive)
REMARK    1  A    between atoms: C_4  and  C_5 
REMARK    2  A    between atoms: C_6  and  N_7 
REMARK    3  A    between atoms: C_9  and  C_10 
REMARK       I    between atoms: C_10  and  N_11 
REMARK    4  A    between atoms: N_11  and  C_12 
REMARK    5  A    between atoms: C_12  and  C_13 
ROOT
HETATM    1  C   UNL     1      41.002 -13.100  -1.841  1.00  0.00     0.019 A 
HETATM    2  C   UNL     1      41.296 -13.261  -0.523  1.00  0.00     0.111 A 
HETATM    3  C   UNL     1      42.205 -12.241   0.158  1.00  0.00     0.273 A 
HETATM    4  O   UNL     1      42.543 -12.337   1.339  1.00  0.00    -0.266 OA
HETATM    5  N   UNL     1      42.659 -11.190  -0.585  1.00  0.00    -0.321 N 
HETATM    6  C   UNL     1      42.342 -10.994  -1.924  1.00  0.00     0.046 A 
HETATM    7  C   UNL     1      41.524 -11.918  -2.581  1.00  0.00     0.006 A 
HETATM    8  C   UNL     1      42.844  -9.868  -2.582  1.00  0.00     0.032 A 
HETATM    9  C   UNL     1      42.519  -9.647  -3.920  1.00  0.00     0.026 A 
HETATM   10  C   UNL     1      41.699 -10.555  -4.586  1.00  0.00     0.035 A 
HETATM   11 CL   UNL     1      41.289 -10.279  -6.235  1.00  0.00    -0.084 Cl
HETATM   12  C   UNL     1      41.204 -11.681  -3.927  1.00  0.00     0.038 A 
HETATM   13  H   UNL     1      43.253 -10.540  -0.092  1.00  0.00     0.169 HD
ENDROOT
BRANCH   2  14
HETATM   14  N   UNL     1      40.810 -14.326   0.273  1.00  0.00    -0.375 N 
HETATM   15  C   UNL     1      41.367 -15.681   0.092  1.00  0.00     0.137 C 
HETATM   16  C   UNL     1      41.242 -16.501   1.382  1.00  0.00     0.096 C 
HETATM   17  C   UNL     1      39.777 -16.519   1.852  1.00  0.00     0.017 C 
HETATM   18  C   UNL     1      39.169 -15.115   1.912  1.00  0.00     0.021 C 
HETATM   19  C   UNL     1      39.375 -14.354   0.604  1.00  0.00     0.123 C 
BRANCH  16  20
HETATM   20  C   UNL     1      42.198 -16.032   2.482  1.00  0.00     0.223 C 
HETATM   21  N   UNL     1      41.847 -16.419   3.756  1.00  0.00    -0.358 N 
HETATM   22  H   UNL     1      40.916 -16.770   3.937  1.00  0.00     0.162 HD
HETATM   23  O   UNL     1      43.160 -15.296   2.269  1.00  0.00    -0.273 OA
BRANCH  21  24
HETATM   24  C   UNL     1      42.640 -16.069   4.922  1.00  0.00     0.154 C 
BRANCH  24  25
HETATM   25  C   UNL     1      41.985 -14.966   5.749  1.00  0.00     0.139 C 
HETATM   26  O   UNL     1      42.414 -13.670   5.273  1.00  0.00    -0.384 OA
HETATM   27  C   UNL     1      41.280 -12.789   5.277  1.00  0.00     0.168 C 
HETATM   28  C   UNL     1      40.136 -13.533   5.933  1.00  0.00     0.029 C 
HETATM   29  C   UNL     1      40.471 -14.969   5.627  1.00  0.00     0.035 C 
ENDBRANCH  24  25
ENDBRANCH  21  24
ENDBRANCH  16  20
ENDBRANCH   2  14
BRANCH   1  30
HETATM   30  C   UNL     1      40.118 -14.107  -2.483  1.00  0.00    -0.023 A 
HETATM   31  C   UNL     1      38.739 -13.881  -2.575  1.00  0.00     0.012 A 
HETATM   32  C   UNL     1      37.912 -14.815  -3.200  1.00  0.00     0.001 A 
HETATM   33  C   UNL     1      38.457 -15.979  -3.741  1.00  0.00     0.000 A 
HETATM   34  C   UNL     1      39.830 -16.208  -3.661  1.00  0.00     0.001 A 
HETATM   35  C   UNL     1      40.660 -15.274  -3.038  1.00  0.00     0.012 A 
ENDBRANCH   1  30
TORSDOF 5
ENDMDL
