MODEL 1
REMARK VINA RESULT:      -9.2      0.000      0.000
REMARK  9 active torsions:
REMARK  status: ('A' for Active; 'I' for Inactive)
REMARK    1  A    between atoms: C_2  and  C_3 
REMARK    2  A    between atoms: C_4  and  N_5 
REMARK       I    between atoms: N_5  and  C_6 
REMARK    3  A    between atoms: C_6  and  C_7 
REMARK    4  A    between atoms: C_7  and  S_8 
REMARK    5  A    between atoms: S_8  and  C_9 
REMARK    6  A    between atoms: C_13  and  C_14 
REMARK       I    between atoms: C_14  and  N_15 
REMARK    7  A    between atoms: N_15  and  C_16 
REMARK    8  A    between atoms: C_17  and  O_18 
REMARK    9  A    between atoms: C_25  and  C_26 
ROOT
HETATM    1  C   UNL     1      43.805 -13.987   6.749  1.00  0.00     0.088 C 
HETATM    2  N   UNL     1      43.341 -13.016   5.875  1.00  0.00    -0.353 N 
HETATM    3  C   UNL     1      42.110 -13.098   5.227  1.00  0.00     0.019 C 
HETATM    4  C   UNL     1      41.480 -11.755   4.954  1.00  0.00     0.069 C 
HETATM    5  C   UNL     1      41.528 -14.310   5.040  1.00  0.00     0.046 C 
HETATM    6  C   UNL     1      42.186 -15.556   5.671  1.00  0.00     0.106 C 
HETATM    7  C   UNL     1      43.292 -15.236   6.684  1.00  0.00     0.069 C 
HETATM    8  C   UNL     1      43.643 -16.271   7.603  1.00  0.00     0.099 C 
HETATM    9  N   UNL     1      43.919 -17.124   8.340  1.00  0.00    -0.192 NA
HETATM   10  H   UNL     1      43.617 -12.080   6.165  1.00  0.00     0.166 HD
ENDROOT
BRANCH   1  11
HETATM   11  S   UNL     1      44.857 -13.478   8.052  1.00  0.00    -0.102 SA
BRANCH  11  12
HETATM   12  C   UNL     1      44.200 -11.838   8.488  1.00  0.00     0.184 C 
BRANCH  12  13
HETATM   13  C   UNL     1      44.055 -11.786  10.008  1.00  0.00     0.231 C 
HETATM   14  N   UNL     1      43.429 -10.626  10.447  1.00  0.00    -0.326 N 
HETATM   15  H   UNL     1      43.315  -9.896   9.759  1.00  0.00     0.169 HD
HETATM   16  O   UNL     1      44.472 -12.695  10.719  1.00  0.00    -0.272 OA
BRANCH  14  17
HETATM   17  C   UNL     1      42.815 -10.399  11.701  1.00  0.00     0.041 A 
HETATM   18  C   UNL     1      41.440 -10.687  11.858  1.00  0.00    -0.032 A 
HETATM   19  C   UNL     1      40.856 -10.574  13.135  1.00  0.00     0.009 A 
HETATM   20  C   UNL     1      41.607 -10.168  14.235  1.00  0.00     0.001 A 
HETATM   21  C   UNL     1      42.953  -9.863  14.073  1.00  0.00     0.002 A 
HETATM   22  C   UNL     1      43.550  -9.976  12.815  1.00  0.00     0.030 A 
BRANCH  18  23
HETATM   23  C   UNL     1      40.544 -11.118  10.716  1.00  0.00     0.036 C 
HETATM   24  C   UNL     1      39.465 -10.091  10.407  1.00  0.00     0.010 C 
ENDBRANCH  18  23
ENDBRANCH  14  17
ENDBRANCH  12  13
ENDBRANCH  11  12
ENDBRANCH   1  11
BRANCH   6  25
HETATM   25  C   UNL     1      42.652 -16.605   4.663  1.00  0.00    -0.044 A 
HETATM   26  C   UNL     1      43.479 -16.277   3.580  1.00  0.00     0.008 A 
HETATM   27  C   UNL     1      43.948 -17.274   2.720  1.00  0.00     0.001 A 
HETATM   28  C   UNL     1      43.600 -18.607   2.931  1.00  0.00     0.000 A 
HETATM   29  C   UNL     1      42.782 -18.947   4.005  1.00  0.00     0.001 A 
HETATM   30  C   UNL     1      42.310 -17.954   4.864  1.00  0.00     0.008 A 
ENDBRANCH   6  25
BRANCH   5  31
HETATM   31  C   UNL     1      40.120 -14.556   4.583  1.00  0.00     0.255 C 
HETATM   32  N   UNL     1      39.734 -14.853   3.315  1.00  0.00    -0.321 N 
HETATM   33  H   UNL     1      38.748 -14.643   3.205  1.00  0.00     0.169 HD
HETATM   34  O   UNL     1      39.204 -14.352   5.390  1.00  0.00    -0.268 OA
BRANCH  32  35
HETATM   35  C   UNL     1      40.371 -15.356   2.170  1.00  0.00     0.068 A 
HETATM   36  C   UNL     1      41.114 -14.607   1.253  1.00  0.00     0.095 A 
HETATM   37  C   UNL     1      41.634 -15.228   0.105  1.00  0.00     0.039 A 
HETATM   38  C   UNL     1      41.479 -16.600  -0.091  1.00  0.00     0.003 A 
HETATM   39  C   UNL     1      40.815 -17.365   0.862  1.00  0.00     0.002 A 
HETATM   40  C   UNL     1      40.274 -16.746   1.990  1.00  0.00     0.032 A 
BRANCH  36  41
HETATM   41  O   UNL     1      41.364 -13.287   1.511  1.00  0.00    -0.354 OA
HETATM   42  C   UNL     1      41.973 -12.623   0.401  1.00  0.00     0.210 C 
ENDBRANCH  36  41
ENDBRANCH  32  35
ENDBRANCH   5  31
TORSDOF 9
ENDMDL
MODEL 2
REMARK VINA RESULT:      -8.9      4.796      8.357
REMARK  9 active torsions:
REMARK  status: ('A' for Active; 'I' for Inactive)
REMARK    1  A    between atoms: C_2  and  C_3 
REMARK    2  A    between atoms: C_4  and  N_5 
REMARK       I    between atoms: N_5  and  C_6 
REMARK    3  A    between atoms: C_6  and  C_7 
REMARK    4  A    between atoms: C_7  and  S_8 
REMARK    5  A    between atoms: S_8  and  C_9 
REMARK    6  A    between atoms: C_13  and  C_14 
REMARK       I    between atoms: C_14  and  N_15 
REMARK    7  A    between atoms: N_15  and  C_16 
REMARK    8  A    between atoms: C_17  and  O_18 
REMARK    9  A    between atoms: C_25  and  C_26 
ROOT
HETATM    1  C   UNL     1      40.199 -14.415   3.930  1.00  0.00     0.088 C 
HETATM    2  N   UNL     1      40.688 -15.164   2.872  1.00  0.00    -0.353 N 
HETATM    3  C   UNL     1      41.238 -14.596   1.724  1.00  0.00     0.019 C 
HETATM    4  C   UNL     1      42.312 -15.441   1.085  1.00  0.00     0.069 C 
HETATM    5  C   UNL     1      40.899 -13.330   1.372  1.00  0.00     0.046 C 
HETATM    6  C   UNL     1      40.012 -12.504   2.331  1.00  0.00     0.106 C 
HETATM    7  C   UNL     1      39.843 -13.127   3.721  1.00  0.00     0.069 C 
HETATM    8  C   UNL     1      39.417 -12.257   4.770  1.00  0.00     0.099 C 
HETATM    9  N   UNL     1      39.068 -11.537   5.610  1.00  0.00    -0.192 NA
HETATM   10  H   UNL     1      41.137 -16.022   3.188  1.00  0.00     0.166 HD
ENDROOT
BRANCH   1  11
HETATM   11  S   UNL     1      40.297 -15.106   5.536  1.00  0.00    -0.102 SA
BRANCH  11  12
HETATM   12  C   UNL     1      41.982 -15.791   5.580  1.00  0.00     0.184 C 
BRANCH  12  13
HETATM   13  C   UNL     1      41.969 -17.108   4.804  1.00  0.00     0.231 C 
HETATM   14  N   UNL     1      43.159 -17.344   4.129  1.00  0.00    -0.326 N 
HETATM   15  H   UNL     1      43.800 -16.566   4.076  1.00  0.00     0.169 HD
HETATM   16  O   UNL     1      40.982 -17.837   4.805  1.00  0.00    -0.272 OA
BRANCH  14  17
HETATM   17  C   UNL     1      43.636 -18.577   3.627  1.00  0.00     0.041 A 
HETATM   18  C   UNL     1      44.386 -19.424   4.474  1.00  0.00    -0.032 A 
HETATM   19  C   UNL     1      44.759 -20.701   4.014  1.00  0.00     0.009 A 
HETATM   20  C   UNL     1      44.415 -21.133   2.735  1.00  0.00     0.001 A 
HETATM   21  C   UNL     1      43.698 -20.290   1.896  1.00  0.00     0.002 A 
HETATM   22  C   UNL     1      43.313 -19.022   2.338  1.00  0.00     0.030 A 
BRANCH  18  23
HETATM   23  C   UNL     1      44.819 -19.032   5.871  1.00  0.00     0.036 C 
HETATM   24  C   UNL     1      43.882 -19.569   6.941  1.00  0.00     0.010 C 
ENDBRANCH  18  23
ENDBRANCH  14  17
ENDBRANCH  12  13
ENDBRANCH  11  12
ENDBRANCH   1  11
BRANCH   6  25
HETATM   25  C   UNL     1      38.664 -12.089   1.746  1.00  0.00    -0.044 A 
HETATM   26  C   UNL     1      38.245 -10.752   1.722  1.00  0.00     0.008 A 
HETATM   27  C   UNL     1      37.038 -10.399   1.111  1.00  0.00     0.001 A 
HETATM   28  C   UNL     1      36.239 -11.374   0.517  1.00  0.00     0.000 A 
HETATM   29  C   UNL     1      36.644 -12.705   0.530  1.00  0.00     0.001 A 
HETATM   30  C   UNL     1      37.847 -13.062   1.141  1.00  0.00     0.008 A 
ENDBRANCH   6  25
BRANCH   5  31
HETATM   31  C   UNL     1      41.566 -12.494   0.320  1.00  0.00     0.255 C 
HETATM   32  N   UNL     1      41.177 -12.387  -0.978  1.00  0.00    -0.321 N 
HETATM   33  H   UNL     1      41.953 -12.050  -1.536  1.00  0.00     0.169 HD
HETATM   34  O   UNL     1      42.636 -11.944   0.607  1.00  0.00    -0.268 OA
BRANCH  32  35
HETATM   35  C   UNL     1      39.992 -12.636  -1.688  1.00  0.00     0.068 A 
HETATM   36  C   UNL     1      39.538 -13.892  -2.104  1.00  0.00     0.095 A 
HETATM   37  C   UNL     1      38.371 -13.989  -2.878  1.00  0.00     0.039 A 
HETATM   38  C   UNL     1      37.618 -12.852  -3.173  1.00  0.00     0.003 A 
HETATM   39  C   UNL     1      38.020 -11.612  -2.689  1.00  0.00     0.002 A 
HETATM   40  C   UNL     1      39.194 -11.509  -1.942  1.00  0.00     0.032 A 
BRANCH  36  41
HETATM   41  O   UNL     1      40.215 -15.014  -1.710  1.00  0.00    -0.354 OA
HETATM   42  C   UNL     1      40.992 -15.578  -2.770  1.00  0.00     0.210 C 
ENDBRANCH  36  41
ENDBRANCH  32  35
ENDBRANCH   5  31
TORSDOF 9
ENDMDL
MODEL 3
REMARK VINA RESULT:      -8.9      4.751      8.214
REMARK  9 active torsions:
REMARK  status: ('A' for Active; 'I' for Inactive)
REMARK    1  A    between atoms: C_2  and  C_3 
REMARK    2  A    between atoms: C_4  and  N_5 
REMARK       I    between atoms: N_5  and  C_6 
REMARK    3  A    between atoms: C_6  and  C_7 
REMARK    4  A    between atoms: C_7  and  S_8 
REMARK    5  A    between atoms: S_8  and  C_9 
REMARK    6  A    between atoms: C_13  and  C_14 
REMARK       I    between atoms: C_14  and  N_15 
REMARK    7  A    between atoms: N_15  and  C_16 
REMARK    8  A    between atoms: C_17  and  O_18 
REMARK    9  A    between atoms: C_25  and  C_26 
ROOT
HETATM    1  C   UNL     1      40.364 -14.575   3.985  1.00  0.00     0.088 C 
HETATM    2  N   UNL     1      40.877 -15.301   2.921  1.00  0.00    -0.353 N 
HETATM    3  C   UNL     1      41.399 -14.707   1.773  1.00  0.00     0.019 C 
HETATM    4  C   UNL     1      42.502 -15.509   1.126  1.00  0.00     0.069 C 
HETATM    5  C   UNL     1      41.011 -13.454   1.428  1.00  0.00     0.046 C 
HETATM    6  C   UNL     1      40.097 -12.667   2.394  1.00  0.00     0.106 C 
HETATM    7  C   UNL     1      39.958 -13.301   3.783  1.00  0.00     0.069 C 
HETATM    8  C   UNL     1      39.504 -12.452   4.837  1.00  0.00     0.099 C 
HETATM    9  N   UNL     1      39.131 -11.750   5.682  1.00  0.00    -0.192 NA
HETATM   10  H   UNL     1      41.359 -16.142   3.232  1.00  0.00     0.166 HD
ENDROOT
BRANCH   1  11
HETATM   11  S   UNL     1      40.496 -15.269   5.586  1.00  0.00    -0.102 SA
BRANCH  11  12
HETATM   12  C   UNL     1      42.219 -15.850   5.637  1.00  0.00     0.184 C 
BRANCH  12  13
HETATM   13  C   UNL     1      42.238 -17.292   5.131  1.00  0.00     0.231 C 
HETATM   14  N   UNL     1      43.512 -17.844   5.130  1.00  0.00    -0.326 N 
HETATM   15  H   UNL     1      44.274 -17.198   5.280  1.00  0.00     0.169 HD
HETATM   16  O   UNL     1      41.208 -17.852   4.767  1.00  0.00    -0.272 OA
BRANCH  14  17
HETATM   17  C   UNL     1      43.859 -19.214   5.082  1.00  0.00     0.041 A 
HETATM   18  C   UNL     1      44.263 -19.780   3.851  1.00  0.00    -0.032 A 
HETATM   19  C   UNL     1      44.721 -21.112   3.825  1.00  0.00     0.009 A 
HETATM   20  C   UNL     1      44.766 -21.879   4.987  1.00  0.00     0.001 A 
HETATM   21  C   UNL     1      44.346 -21.327   6.191  1.00  0.00     0.002 A 
HETATM   22  C   UNL     1      43.895 -20.006   6.236  1.00  0.00     0.030 A 
BRANCH  18  23
HETATM   23  C   UNL     1      44.232 -19.028   2.538  1.00  0.00     0.036 C 
HETATM   24  C   UNL     1      42.921 -19.219   1.791  1.00  0.00     0.010 C 
ENDBRANCH  18  23
ENDBRANCH  14  17
ENDBRANCH  12  13
ENDBRANCH  11  12
ENDBRANCH   1  11
BRANCH   6  25
HETATM   25  C   UNL     1      38.732 -12.301   1.817  1.00  0.00    -0.044 A 
HETATM   26  C   UNL     1      38.265 -10.980   1.793  1.00  0.00     0.008 A 
HETATM   27  C   UNL     1      37.043 -10.671   1.189  1.00  0.00     0.001 A 
HETATM   28  C   UNL     1      36.275 -11.675   0.601  1.00  0.00     0.000 A 
HETATM   29  C   UNL     1      36.728 -12.991   0.614  1.00  0.00     0.001 A 
HETATM   30  C   UNL     1      37.946 -13.303   1.218  1.00  0.00     0.008 A 
ENDBRANCH   6  25
BRANCH   5  31
HETATM   31  C   UNL     1      41.640 -12.589   0.376  1.00  0.00     0.255 C 
HETATM   32  N   UNL     1      41.241 -12.491  -0.919  1.00  0.00    -0.321 N 
HETATM   33  H   UNL     1      42.001 -12.122  -1.479  1.00  0.00     0.169 HD
HETATM   34  O   UNL     1      42.691 -12.001   0.661  1.00  0.00    -0.268 OA
BRANCH  32  35
HETATM   35  C   UNL     1      40.063 -12.781  -1.625  1.00  0.00     0.068 A 
HETATM   36  C   UNL     1      39.652 -14.052  -2.041  1.00  0.00     0.095 A 
HETATM   37  C   UNL     1      38.486 -14.190  -2.810  1.00  0.00     0.039 A 
HETATM   38  C   UNL     1      37.692 -13.080  -3.100  1.00  0.00     0.003 A 
HETATM   39  C   UNL     1      38.051 -11.827  -2.616  1.00  0.00     0.002 A 
HETATM   40  C   UNL     1      39.224 -11.683  -1.873  1.00  0.00     0.032 A 
BRANCH  36  41
HETATM   41  O   UNL     1      40.371 -15.150  -1.652  1.00  0.00    -0.354 OA
HETATM   42  C   UNL     1      40.971 -15.825  -2.760  1.00  0.00     0.210 C 
ENDBRANCH  36  41
ENDBRANCH  32  35
ENDBRANCH   5  31
TORSDOF 9
ENDMDL
MODEL 4
REMARK VINA RESULT:      -8.9      5.321      8.239
REMARK  9 active torsions:
REMARK  status: ('A' for Active; 'I' for Inactive)
REMARK    1  A    between atoms: C_2  and  C_3 
REMARK    2  A    between atoms: C_4  and  N_5 
REMARK       I    between atoms: N_5  and  C_6 
REMARK    3  A    between atoms: C_6  and  C_7 
REMARK    4  A    between atoms: C_7  and  S_8 
REMARK    5  A    between atoms: S_8  and  C_9 
REMARK    6  A    between atoms: C_13  and  C_14 
REMARK       I    between atoms: C_14  and  N_15 
REMARK    7  A    between atoms: N_15  and  C_16 
REMARK    8  A    between atoms: C_17  and  O_18 
REMARK    9  A    between atoms: C_25  and  C_26 
ROOT
HETATM    1  C   UNL     1      42.077 -14.357   2.429  1.00  0.00     0.088 C 
HETATM    2  N   UNL     1      41.304 -13.244   2.722  1.00  0.00    -0.353 N 
HETATM    3  C   UNL     1      40.023 -13.049   2.210  1.00  0.00     0.019 C 
HETATM    4  C   UNL     1      39.115 -12.273   3.132  1.00  0.00     0.069 C 
HETATM    5  C   UNL     1      39.658 -13.666   1.058  1.00  0.00     0.046 C 
HETATM    6  C   UNL     1      40.633 -14.677   0.415  1.00  0.00     0.106 C 
HETATM    7  C   UNL     1      41.806 -15.078   1.318  1.00  0.00     0.069 C 
HETATM    8  C   UNL     1      42.489 -16.287   0.988  1.00  0.00     0.099 C 
HETATM    9  N   UNL     1      43.036 -17.271   0.704  1.00  0.00    -0.192 NA
HETATM   10  H   UNL     1      41.441 -12.928   3.680  1.00  0.00     0.166 HD
ENDROOT
BRANCH   1  11
HETATM   11  S   UNL     1      43.210 -14.909   3.645  1.00  0.00    -0.102 SA
BRANCH  11  12
HETATM   12  C   UNL     1      42.135 -15.750   4.848  1.00  0.00     0.184 C 
BRANCH  12  13
HETATM   13  C   UNL     1      42.185 -17.247   4.548  1.00  0.00     0.231 C 
HETATM   14  N   UNL     1      43.393 -17.643   3.990  1.00  0.00    -0.326 N 
HETATM   15  H   UNL     1      44.005 -16.899   3.686  1.00  0.00     0.169 HD
HETATM   16  O   UNL     1      41.226 -17.976   4.786  1.00  0.00    -0.272 OA
BRANCH  14  17
HETATM   17  C   UNL     1      43.925 -18.952   3.922  1.00  0.00     0.041 A 
HETATM   18  C   UNL     1      44.487 -19.529   5.083  1.00  0.00    -0.032 A 
HETATM   19  C   UNL     1      44.908 -20.873   5.047  1.00  0.00     0.009 A 
HETATM   20  C   UNL     1      44.794 -21.630   3.884  1.00  0.00     0.001 A 
HETATM   21  C   UNL     1      44.263 -21.053   2.738  1.00  0.00     0.002 A 
HETATM   22  C   UNL     1      43.834 -19.723   2.757  1.00  0.00     0.030 A 
BRANCH  18  23
HETATM   23  C   UNL     1      44.665 -18.777   6.385  1.00  0.00     0.036 C 
HETATM   24  C   UNL     1      43.812 -19.348   7.507  1.00  0.00     0.010 C 
ENDBRANCH  18  23
ENDBRANCH  14  17
ENDBRANCH  12  13
ENDBRANCH  11  12
ENDBRANCH   1  11
BRANCH   6  25
HETATM   25  C   UNL     1      41.121 -14.287  -0.979  1.00  0.00    -0.044 A 
HETATM   26  C   UNL     1      40.709 -14.975  -2.128  1.00  0.00     0.008 A 
HETATM   27  C   UNL     1      41.114 -14.544  -3.395  1.00  0.00     0.001 A 
HETATM   28  C   UNL     1      41.932 -13.424  -3.528  1.00  0.00     0.000 A 
HETATM   29  C   UNL     1      42.346 -12.729  -2.396  1.00  0.00     0.001 A 
HETATM   30  C   UNL     1      41.945 -13.158  -1.130  1.00  0.00     0.008 A 
ENDBRANCH   6  25
BRANCH   5  31
HETATM   31  C   UNL     1      38.267 -13.754   0.501  1.00  0.00     0.255 C 
HETATM   32  N   UNL     1      37.752 -12.972  -0.483  1.00  0.00    -0.321 N 
HETATM   33  H   UNL     1      36.739 -13.000  -0.440  1.00  0.00     0.169 HD
HETATM   34  O   UNL     1      37.466 -14.515   1.060  1.00  0.00    -0.268 OA
BRANCH  32  35
HETATM   35  C   UNL     1      38.286 -12.163  -1.497  1.00  0.00     0.068 A 
HETATM   36  C   UNL     1      38.163 -12.388  -2.872  1.00  0.00     0.095 A 
HETATM   37  C   UNL     1      38.816 -11.538  -3.779  1.00  0.00     0.039 A 
HETATM   38  C   UNL     1      39.525 -10.426  -3.324  1.00  0.00     0.003 A 
HETATM   39  C   UNL     1      39.579 -10.150  -1.963  1.00  0.00     0.002 A 
HETATM   40  C   UNL     1      38.953 -11.008  -1.058  1.00  0.00     0.032 A 
BRANCH  36  41
HETATM   41  O   UNL     1      37.367 -13.410  -3.316  1.00  0.00    -0.354 OA
HETATM   42  C   UNL     1      36.375 -12.961  -4.242  1.00  0.00     0.210 C 
ENDBRANCH  36  41
ENDBRANCH  32  35
ENDBRANCH   5  31
TORSDOF 9
ENDMDL
MODEL 5
REMARK VINA RESULT:      -8.7      2.292      4.456
REMARK  9 active torsions:
REMARK  status: ('A' for Active; 'I' for Inactive)
REMARK    1  A    between atoms: C_2  and  C_3 
REMARK    2  A    between atoms: C_4  and  N_5 
REMARK       I    between atoms: N_5  and  C_6 
REMARK    3  A    between atoms: C_6  and  C_7 
REMARK    4  A    between atoms: C_7  and  S_8 
REMARK    5  A    between atoms: S_8  and  C_9 
REMARK    6  A    between atoms: C_13  and  C_14 
REMARK       I    between atoms: C_14  and  N_15 
REMARK    7  A    between atoms: N_15  and  C_16 
REMARK    8  A    between atoms: C_17  and  O_18 
REMARK    9  A    between atoms: C_25  and  C_26 
ROOT
HETATM    1  C   UNL     1      41.019 -11.640   5.978  1.00  0.00     0.088 C 
HETATM    2  N   UNL     1      41.479 -12.853   6.466  1.00  0.00    -0.353 N 
HETATM    3  C   UNL     1      42.425 -13.633   5.802  1.00  0.00     0.019 C 
HETATM    4  C   UNL     1      43.299 -14.442   6.729  1.00  0.00     0.069 C 
HETATM    5  C   UNL     1      42.586 -13.499   4.462  1.00  0.00     0.046 C 
HETATM    6  C   UNL     1      41.806 -12.386   3.727  1.00  0.00     0.106 C 
HETATM    7  C   UNL     1      41.139 -11.368   4.659  1.00  0.00     0.069 C 
HETATM    8  C   UNL     1      40.777 -10.110   4.087  1.00  0.00     0.099 C 
HETATM    9  N   UNL     1      40.487  -9.095   3.606  1.00  0.00    -0.192 NA
HETATM   10  H   UNL     1      41.554 -12.851   7.481  1.00  0.00     0.166 HD
ENDROOT
BRANCH   1  11
HETATM   11  S   UNL     1      40.529 -10.425   7.139  1.00  0.00    -0.102 SA
BRANCH  11  12
HETATM   12  C   UNL     1      39.676 -11.403   8.415  1.00  0.00     0.184 C 
BRANCH  12  13
HETATM   13  C   UNL     1      39.952 -10.746   9.766  1.00  0.00     0.231 C 
HETATM   14  N   UNL     1      40.857 -11.464  10.537  1.00  0.00    -0.326 N 
HETATM   15  H   UNL     1      41.078 -12.394  10.210  1.00  0.00     0.169 HD
HETATM   16  O   UNL     1      39.399  -9.700  10.090  1.00  0.00    -0.272 OA
BRANCH  14  17
HETATM   17  C   UNL     1      41.607 -11.000  11.643  1.00  0.00     0.041 A 
HETATM   18  C   UNL     1      42.904 -10.482  11.429  1.00  0.00    -0.032 A 
HETATM   19  C   UNL     1      43.604  -9.912  12.510  1.00  0.00     0.009 A 
HETATM   20  C   UNL     1      43.043  -9.868  13.785  1.00  0.00     0.001 A 
HETATM   21  C   UNL     1      41.777 -10.399  13.997  1.00  0.00     0.002 A 
HETATM   22  C   UNL     1      41.067 -10.962  12.934  1.00  0.00     0.030 A 
BRANCH  18  23
HETATM   23  C   UNL     1      43.598 -10.503  10.084  1.00  0.00     0.036 C 
HETATM   24  C   UNL     1      45.078 -10.835  10.199  1.00  0.00     0.010 C 
ENDBRANCH  18  23
ENDBRANCH  14  17
ENDBRANCH  12  13
ENDBRANCH  11  12
ENDBRANCH   1  11
BRANCH   6  25
HETATM   25  C   UNL     1      40.824 -12.892   2.672  1.00  0.00    -0.044 A 
HETATM   26  C   UNL     1      40.941 -12.543   1.320  1.00  0.00     0.008 A 
HETATM   27  C   UNL     1      40.071 -13.084   0.370  1.00  0.00     0.001 A 
HETATM   28  C   UNL     1      39.077 -13.981   0.758  1.00  0.00     0.000 A 
HETATM   29  C   UNL     1      38.951 -14.340   2.097  1.00  0.00     0.001 A 
HETATM   30  C   UNL     1      39.817 -13.799   3.048  1.00  0.00     0.008 A 
ENDBRANCH   6  25
BRANCH   5  31
HETATM   31  C   UNL     1      43.701 -14.077   3.641  1.00  0.00     0.255 C 
HETATM   32  N   UNL     1      43.642 -15.220   2.909  1.00  0.00    -0.321 N 
HETATM   33  H   UNL     1      44.582 -15.557   2.734  1.00  0.00     0.169 HD
HETATM   34  O   UNL     1      44.817 -13.549   3.724  1.00  0.00    -0.268 OA
BRANCH  32  35
HETATM   35  C   UNL     1      42.613 -16.008   2.371  1.00  0.00     0.068 A 
HETATM   36  C   UNL     1      41.749 -16.832   3.099  1.00  0.00     0.095 A 
HETATM   37  C   UNL     1      40.811 -17.629   2.423  1.00  0.00     0.039 A 
HETATM   38  C   UNL     1      40.682 -17.551   1.036  1.00  0.00     0.003 A 
HETATM   39  C   UNL     1      41.481 -16.670   0.316  1.00  0.00     0.002 A 
HETATM   40  C   UNL     1      42.432 -15.896   0.982  1.00  0.00     0.032 A 
BRANCH  36  41
HETATM   41  O   UNL     1      41.800 -16.814   4.467  1.00  0.00    -0.354 OA
HETATM   42  C   UNL     1      42.523 -17.928   4.997  1.00  0.00     0.210 C 
ENDBRANCH  36  41
ENDBRANCH  32  35
ENDBRANCH   5  31
TORSDOF 9
ENDMDL
MODEL 6
REMARK VINA RESULT:      -8.6      4.959      8.300
REMARK  9 active torsions:
REMARK  status: ('A' for Active; 'I' for Inactive)
REMARK    1  A    between atoms: C_2  and  C_3 
REMARK    2  A    between atoms: C_4  and  N_5 
REMARK       I    between atoms: N_5  and  C_6 
REMARK    3  A    between atoms: C_6  and  C_7 
REMARK    4  A    between atoms: C_7  and  S_8 
REMARK    5  A    between atoms: S_8  and  C_9 
REMARK    6  A    between atoms: C_13  and  C_14 
REMARK       I    between atoms: C_14  and  N_15 
REMARK    7  A    between atoms: N_15  and  C_16 
REMARK    8  A    between atoms: C_17  and  O_18 
REMARK    9  A    between atoms: C_25  and  C_26 
ROOT
HETATM    1  C   UNL     1      40.389 -14.600   3.365  1.00  0.00     0.088 C 
HETATM    2  N   UNL     1      40.561 -15.513   2.336  1.00  0.00    -0.353 N 
HETATM    3  C   UNL     1      41.052 -15.163   1.079  1.00  0.00     0.019 C 
HETATM    4  C   UNL     1      41.828 -16.267   0.404  1.00  0.00     0.069 C 
HETATM    5  C   UNL     1      40.939 -13.882   0.646  1.00  0.00     0.046 C 
HETATM    6  C   UNL     1      40.385 -12.815   1.616  1.00  0.00     0.106 C 
HETATM    7  C   UNL     1      40.284 -13.284   3.072  1.00  0.00     0.069 C 
HETATM    8  C   UNL     1      40.198 -12.268   4.072  1.00  0.00     0.099 C 
HETATM    9  N   UNL     1      40.126 -11.431   4.872  1.00  0.00    -0.192 NA
HETATM   10  H   UNL     1      40.860 -16.423   2.681  1.00  0.00     0.166 HD
ENDROOT
BRANCH   1  11
HETATM   11  S   UNL     1      40.563 -15.179   5.008  1.00  0.00    -0.102 SA
BRANCH  11  12
HETATM   12  C   UNL     1      42.293 -15.739   5.060  1.00  0.00     0.184 C 
BRANCH  12  13
HETATM   13  C   UNL     1      42.306 -17.236   4.753  1.00  0.00     0.231 C 
HETATM   14  N   UNL     1      43.549 -17.817   4.965  1.00  0.00    -0.326 N 
HETATM   15  H   UNL     1      44.317 -17.177   5.112  1.00  0.00     0.169 HD
HETATM   16  O   UNL     1      41.298 -17.812   4.354  1.00  0.00    -0.272 OA
BRANCH  14  17
HETATM   17  C   UNL     1      43.843 -19.190   5.135  1.00  0.00     0.041 A 
HETATM   18  C   UNL     1      44.339 -19.930   4.038  1.00  0.00    -0.032 A 
HETATM   19  C   UNL     1      44.743 -21.265   4.236  1.00  0.00     0.009 A 
HETATM   20  C   UNL     1      44.644 -21.866   5.488  1.00  0.00     0.001 A 
HETATM   21  C   UNL     1      44.134 -21.144   6.559  1.00  0.00     0.002 A 
HETATM   22  C   UNL     1      43.735 -19.817   6.383  1.00  0.00     0.030 A 
BRANCH  18  23
HETATM   23  C   UNL     1      44.465 -19.364   2.640  1.00  0.00     0.036 C 
HETATM   24  C   UNL     1      43.208 -19.580   1.811  1.00  0.00     0.010 C 
ENDBRANCH  18  23
ENDBRANCH  14  17
ENDBRANCH  12  13
ENDBRANCH  11  12
ENDBRANCH   1  11
BRANCH   6  25
HETATM   25  C   UNL     1      39.084 -12.158   1.159  1.00  0.00    -0.044 A 
HETATM   26  C   UNL     1      39.023 -10.805   0.800  1.00  0.00     0.008 A 
HETATM   27  C   UNL     1      37.834 -10.254   0.313  1.00  0.00     0.001 A 
HETATM   28  C   UNL     1      36.695 -11.047   0.178  1.00  0.00     0.000 A 
HETATM   29  C   UNL     1      36.743 -12.393   0.527  1.00  0.00     0.001 A 
HETATM   30  C   UNL     1      37.928 -12.945   1.015  1.00  0.00     0.008 A 
ENDBRANCH   6  25
BRANCH   5  31
HETATM   31  C   UNL     1      41.612 -13.290  -0.557  1.00  0.00     0.255 C 
HETATM   32  N   UNL     1      41.356 -13.612  -1.853  1.00  0.00    -0.321 N 
HETATM   33  H   UNL     1      42.143 -13.338  -2.430  1.00  0.00     0.169 HD
HETATM   34  O   UNL     1      42.574 -12.534  -0.371  1.00  0.00    -0.268 OA
BRANCH  32  35
HETATM   35  C   UNL     1      40.293 -14.219  -2.539  1.00  0.00     0.068 A 
HETATM   36  C   UNL     1      39.037 -13.650  -2.768  1.00  0.00     0.095 A 
HETATM   37  C   UNL     1      38.036 -14.402  -3.404  1.00  0.00     0.039 A 
HETATM   38  C   UNL     1      38.306 -15.687  -3.875  1.00  0.00     0.003 A 
HETATM   39  C   UNL     1      39.579 -16.226  -3.725  1.00  0.00     0.002 A 
HETATM   40  C   UNL     1      40.568 -15.490  -3.071  1.00  0.00     0.032 A 
BRANCH  36  41
HETATM   41  O   UNL     1      38.816 -12.347  -2.411  1.00  0.00    -0.354 OA
HETATM   42  C   UNL     1      38.871 -11.461  -3.532  1.00  0.00     0.210 C 
ENDBRANCH  36  41
ENDBRANCH  32  35
ENDBRANCH   5  31
TORSDOF 9
ENDMDL
MODEL 7
REMARK VINA RESULT:      -8.5      5.960      9.236
REMARK  9 active torsions:
REMARK  status: ('A' for Active; 'I' for Inactive)
REMARK    1  A    between atoms: C_2  and  C_3 
REMARK    2  A    between atoms: C_4  and  N_5 
REMARK       I    between atoms: N_5  and  C_6 
REMARK    3  A    between atoms: C_6  and  C_7 
REMARK    4  A    between atoms: C_7  and  S_8 
REMARK    5  A    between atoms: S_8  and  C_9 
REMARK    6  A    between atoms: C_13  and  C_14 
REMARK       I    between atoms: C_14  and  N_15 
REMARK    7  A    between atoms: N_15  and  C_16 
REMARK    8  A    between atoms: C_17  and  O_18 
REMARK    9  A    between atoms: C_25  and  C_26 
ROOT
HETATM    1  C   UNL     1      39.829 -13.581   0.651  1.00  0.00     0.088 C 
HETATM    2  N   UNL     1      38.959 -13.659  -0.425  1.00  0.00    -0.353 N 
HETATM    3  C   UNL     1      39.387 -13.751  -1.748  1.00  0.00     0.019 C 
HETATM    4  C   UNL     1      38.446 -14.528  -2.635  1.00  0.00     0.069 C 
HETATM    5  C   UNL     1      40.619 -13.298  -2.089  1.00  0.00     0.046 C 
HETATM    6  C   UNL     1      41.568 -12.812  -0.971  1.00  0.00     0.106 C 
HETATM    7  C   UNL     1      41.099 -13.163   0.446  1.00  0.00     0.069 C 
HETATM    8  C   UNL     1      42.087 -13.139   1.477  1.00  0.00     0.099 C 
HETATM    9  N   UNL     1      42.901 -13.111   2.303  1.00  0.00    -0.192 NA
HETATM   10  H   UNL     1      38.125 -14.199  -0.200  1.00  0.00     0.166 HD
ENDROOT
BRANCH   1  11
HETATM   11  S   UNL     1      39.306 -14.259   2.177  1.00  0.00    -0.102 SA
BRANCH  11  12
HETATM   12  C   UNL     1      39.860 -15.988   2.064  1.00  0.00     0.184 C 
BRANCH  12  13
HETATM   13  C   UNL     1      40.796 -16.254   3.242  1.00  0.00     0.231 C 
HETATM   14  N   UNL     1      41.138 -17.595   3.364  1.00  0.00    -0.326 N 
HETATM   15  H   UNL     1      40.604 -18.241   2.800  1.00  0.00     0.169 HD
HETATM   16  O   UNL     1      41.169 -15.344   3.977  1.00  0.00    -0.272 OA
BRANCH  14  17
HETATM   17  C   UNL     1      42.228 -18.146   4.077  1.00  0.00     0.041 A 
HETATM   18  C   UNL     1      43.329 -18.666   3.359  1.00  0.00    -0.032 A 
HETATM   19  C   UNL     1      44.465 -19.106   4.067  1.00  0.00     0.009 A 
HETATM   20  C   UNL     1      44.510 -19.051   5.458  1.00  0.00     0.001 A 
HETATM   21  C   UNL     1      43.417 -18.561   6.162  1.00  0.00     0.002 A 
HETATM   22  C   UNL     1      42.285 -18.114   5.476  1.00  0.00     0.030 A 
BRANCH  18  23
HETATM   23  C   UNL     1      43.361 -18.779   1.850  1.00  0.00     0.036 C 
HETATM   24  C   UNL     1      43.929 -17.534   1.187  1.00  0.00     0.010 C 
ENDBRANCH  18  23
ENDBRANCH  14  17
ENDBRANCH  12  13
ENDBRANCH  11  12
ENDBRANCH   1  11
BRANCH   6  25
HETATM   25  C   UNL     1      41.962 -11.340  -1.071  1.00  0.00    -0.044 A 
HETATM   26  C   UNL     1      41.019 -10.310  -0.962  1.00  0.00     0.008 A 
HETATM   27  C   UNL     1      41.424  -8.972  -0.982  1.00  0.00     0.001 A 
HETATM   28  C   UNL     1      42.774  -8.648  -1.108  1.00  0.00     0.000 A 
HETATM   29  C   UNL     1      43.723  -9.661  -1.214  1.00  0.00     0.001 A 
HETATM   30  C   UNL     1      43.321 -10.997  -1.197  1.00  0.00     0.008 A 
ENDBRANCH   6  25
BRANCH   5  31
HETATM   31  C   UNL     1      41.320 -13.531  -3.395  1.00  0.00     0.255 C 
HETATM   32  N   UNL     1      41.417 -12.641  -4.418  1.00  0.00    -0.321 N 
HETATM   33  H   UNL     1      41.631 -13.136  -5.276  1.00  0.00     0.169 HD
HETATM   34  O   UNL     1      41.744 -14.669  -3.631  1.00  0.00    -0.268 OA
BRANCH  32  35
HETATM   35  C   UNL     1      41.285 -11.250  -4.545  1.00  0.00     0.068 A 
HETATM   36  C   UNL     1      40.083 -10.536  -4.509  1.00  0.00     0.095 A 
HETATM   37  C   UNL     1      40.089  -9.149  -4.728  1.00  0.00     0.039 A 
HETATM   38  C   UNL     1      41.292  -8.465  -4.908  1.00  0.00     0.003 A 
HETATM   39  C   UNL     1      42.496  -9.157  -4.859  1.00  0.00     0.002 A 
HETATM   40  C   UNL     1      42.491 -10.540  -4.668  1.00  0.00     0.032 A 
BRANCH  36  41
HETATM   41  O   UNL     1      38.921 -11.195  -4.214  1.00  0.00    -0.354 OA
HETATM   42  C   UNL     1      38.085 -10.449  -3.325  1.00  0.00     0.210 C 
ENDBRANCH  36  41
ENDBRANCH  32  35
ENDBRANCH   5  31
TORSDOF 9
ENDMDL
MODEL 8
REMARK VINA RESULT:      -8.4      6.061      9.496
REMARK  9 active torsions:
REMARK  status: ('A' for Active; 'I' for Inactive)
REMARK    1  A    between atoms: C_2  and  C_3 
REMARK    2  A    between atoms: C_4  and  N_5 
REMARK       I    between atoms: N_5  and  C_6 
REMARK    3  A    between atoms: C_6  and  C_7 
REMARK    4  A    between atoms: C_7  and  S_8 
REMARK    5  A    between atoms: S_8  and  C_9 
REMARK    6  A    between atoms: C_13  and  C_14 
REMARK       I    between atoms: C_14  and  N_15 
REMARK    7  A    between atoms: N_15  and  C_16 
REMARK    8  A    between atoms: C_17  and  O_18 
REMARK    9  A    between atoms: C_25  and  C_26 
ROOT
HETATM    1  C   UNL     1      40.677 -15.170   1.123  1.00  0.00     0.088 C 
HETATM    2  N   UNL     1      40.538 -15.620  -0.181  1.00  0.00    -0.353 N 
HETATM    3  C   UNL     1      40.687 -14.793  -1.292  1.00  0.00     0.019 C 
HETATM    4  C   UNL     1      41.218 -15.508  -2.510  1.00  0.00     0.069 C 
HETATM    5  C   UNL     1      40.504 -13.455  -1.165  1.00  0.00     0.046 C 
HETATM    6  C   UNL     1      40.265 -12.868   0.244  1.00  0.00     0.106 C 
HETATM    7  C   UNL     1      40.540 -13.851   1.388  1.00  0.00     0.069 C 
HETATM    8  C   UNL     1      40.758 -13.290   2.682  1.00  0.00     0.099 C 
HETATM    9  N   UNL     1      40.929 -12.818   3.728  1.00  0.00    -0.192 NA
HETATM   10  H   UNL     1      40.888 -16.569  -0.295  1.00  0.00     0.166 HD
ENDROOT
BRANCH   1  11
HETATM   11  S   UNL     1      41.263 -16.305   2.321  1.00  0.00    -0.102 SA
BRANCH  11  12
HETATM   12  C   UNL     1      43.014 -15.842   2.495  1.00  0.00     0.184 C 
BRANCH  12  13
HETATM   13  C   UNL     1      43.854 -17.088   2.216  1.00  0.00     0.231 C 
HETATM   14  N   UNL     1      43.644 -18.096   3.148  1.00  0.00    -0.326 N 
HETATM   15  H   UNL     1      43.125 -17.835   3.973  1.00  0.00     0.169 HD
HETATM   16  O   UNL     1      44.623 -17.136   1.261  1.00  0.00    -0.272 OA
BRANCH  14  17
HETATM   17  C   UNL     1      43.951 -19.471   3.015  1.00  0.00     0.041 A 
HETATM   18  C   UNL     1      44.571 -20.145   4.091  1.00  0.00    -0.032 A 
HETATM   19  C   UNL     1      44.769 -21.537   4.007  1.00  0.00     0.009 A 
HETATM   20  C   UNL     1      44.380 -22.251   2.876  1.00  0.00     0.001 A 
HETATM   21  C   UNL     1      43.792 -21.581   1.810  1.00  0.00     0.002 A 
HETATM   22  C   UNL     1      43.582 -20.202   1.880  1.00  0.00     0.030 A 
BRANCH  18  23
HETATM   23  C   UNL     1      45.043 -19.449   5.350  1.00  0.00     0.036 C 
HETATM   24  C   UNL     1      44.000 -19.484   6.457  1.00  0.00     0.010 C 
ENDBRANCH  18  23
ENDBRANCH  14  17
ENDBRANCH  12  13
ENDBRANCH  11  12
ENDBRANCH   1  11
BRANCH   6  25
HETATM   25  C   UNL     1      38.912 -12.183   0.422  1.00  0.00    -0.044 A 
HETATM   26  C   UNL     1      37.703 -12.869   0.245  1.00  0.00     0.008 A 
HETATM   27  C   UNL     1      36.483 -12.232   0.491  1.00  0.00     0.001 A 
HETATM   28  C   UNL     1      36.457 -10.905   0.917  1.00  0.00     0.000 A 
HETATM   29  C   UNL     1      37.650 -10.212   1.101  1.00  0.00     0.001 A 
HETATM   30  C   UNL     1      38.868 -10.845   0.854  1.00  0.00     0.008 A 
ENDBRANCH   6  25
BRANCH   5  31
HETATM   31  C   UNL     1      40.852 -12.411  -2.186  1.00  0.00     0.255 C 
HETATM   32  N   UNL     1      39.994 -11.856  -3.082  1.00  0.00    -0.321 N 
HETATM   33  H   UNL     1      40.522 -11.451  -3.847  1.00  0.00     0.169 HD
HETATM   34  O   UNL     1      42.044 -12.108  -2.323  1.00  0.00    -0.268 OA
BRANCH  32  35
HETATM   35  C   UNL     1      38.600 -11.730  -3.182  1.00  0.00     0.068 A 
HETATM   36  C   UNL     1      37.717 -12.733  -3.596  1.00  0.00     0.095 A 
HETATM   37  C   UNL     1      36.349 -12.446  -3.725  1.00  0.00     0.039 A 
HETATM   38  C   UNL     1      35.850 -11.192  -3.375  1.00  0.00     0.003 A 
HETATM   39  C   UNL     1      36.712 -10.218  -2.882  1.00  0.00     0.002 A 
HETATM   40  C   UNL     1      38.076 -10.492  -2.777  1.00  0.00     0.032 A 
BRANCH  36  41
HETATM   41  O   UNL     1      38.195 -13.995  -3.823  1.00  0.00    -0.354 OA
HETATM   42  C   UNL     1      37.247 -15.005  -3.469  1.00  0.00     0.210 C 
ENDBRANCH  36  41
ENDBRANCH  32  35
ENDBRANCH   5  31
TORSDOF 9
ENDMDL
MODEL 9
REMARK VINA RESULT:      -8.3      4.603      8.969
REMARK  9 active torsions:
REMARK  status: ('A' for Active; 'I' for Inactive)
REMARK    1  A    between atoms: C_2  and  C_3 
REMARK    2  A    between atoms: C_4  and  N_5 
REMARK       I    between atoms: N_5  and  C_6 
REMARK    3  A    between atoms: C_6  and  C_7 
REMARK    4  A    between atoms: C_7  and  S_8 
REMARK    5  A    between atoms: S_8  and  C_9 
REMARK    6  A    between atoms: C_13  and  C_14 
REMARK       I    between atoms: C_14  and  N_15 
REMARK    7  A    between atoms: N_15  and  C_16 
REMARK    8  A    between atoms: C_17  and  O_18 
REMARK    9  A    between atoms: C_25  and  C_26 
ROOT
HETATM    1  C   UNL     1      39.673 -14.862   2.106  1.00  0.00     0.088 C 
HETATM    2  N   UNL     1      39.497 -14.756   3.477  1.00  0.00    -0.353 N 
HETATM    3  C   UNL     1      40.541 -14.489   4.361  1.00  0.00     0.019 C 
HETATM    4  C   UNL     1      40.114 -13.717   5.585  1.00  0.00     0.069 C 
HETATM    5  C   UNL     1      41.816 -14.788   4.006  1.00  0.00     0.046 C 
HETATM    6  C   UNL     1      42.090 -15.294   2.573  1.00  0.00     0.106 C 
HETATM    7  C   UNL     1      40.902 -15.136   1.615  1.00  0.00     0.069 C 
HETATM    8  C   UNL     1      41.192 -15.173   0.217  1.00  0.00     0.099 C 
HETATM    9  N   UNL     1      41.445 -15.208  -0.915  1.00  0.00    -0.192 NA
HETATM   10  H   UNL     1      38.607 -14.323   3.714  1.00  0.00     0.166 HD
ENDROOT
BRANCH   1  11
HETATM   11  S   UNL     1      38.339 -14.396   1.073  1.00  0.00    -0.102 SA
BRANCH  11  12
HETATM   12  C   UNL     1      38.229 -12.599   1.337  1.00  0.00     0.184 C 
BRANCH  12  13
HETATM   13  C   UNL     1      38.643 -11.912   0.037  1.00  0.00     0.231 C 
HETATM   14  N   UNL     1      39.988 -12.088  -0.259  1.00  0.00    -0.326 N 
HETATM   15  H   UNL     1      40.557 -12.474   0.481  1.00  0.00     0.169 HD
HETATM   16  O   UNL     1      37.833 -11.277  -0.632  1.00  0.00    -0.272 OA
BRANCH  14  17
HETATM   17  C   UNL     1      40.626 -11.920  -1.510  1.00  0.00     0.041 A 
HETATM   18  C   UNL     1      41.871 -11.253  -1.565  1.00  0.00    -0.032 A 
HETATM   19  C   UNL     1      42.562 -11.189  -2.791  1.00  0.00     0.009 A 
HETATM   20  C   UNL     1      42.030 -11.757  -3.946  1.00  0.00     0.001 A 
HETATM   21  C   UNL     1      40.795 -12.391  -3.893  1.00  0.00     0.002 A 
HETATM   22  C   UNL     1      40.098 -12.470  -2.685  1.00  0.00     0.030 A 
BRANCH  18  23
HETATM   23  C   UNL     1      42.516 -10.593  -0.365  1.00  0.00     0.036 C 
HETATM   24  C   UNL     1      43.552  -9.553  -0.763  1.00  0.00     0.010 C 
ENDBRANCH  18  23
ENDBRANCH  14  17
ENDBRANCH  12  13
ENDBRANCH  11  12
ENDBRANCH   1  11
BRANCH   6  25
HETATM   25  C   UNL     1      42.670 -16.705   2.500  1.00  0.00    -0.044 A 
HETATM   26  C   UNL     1      43.830 -16.993   1.767  1.00  0.00     0.008 A 
HETATM   27  C   UNL     1      44.377 -18.279   1.784  1.00  0.00     0.001 A 
HETATM   28  C   UNL     1      43.775 -19.290   2.532  1.00  0.00     0.000 A 
HETATM   29  C   UNL     1      42.626 -19.017   3.268  1.00  0.00     0.001 A 
HETATM   30  C   UNL     1      42.076 -17.734   3.251  1.00  0.00     0.008 A 
ENDBRANCH   6  25
BRANCH   5  31
HETATM   31  C   UNL     1      43.061 -14.357   4.725  1.00  0.00     0.255 C 
HETATM   32  N   UNL     1      43.716 -15.068   5.680  1.00  0.00    -0.321 N 
HETATM   33  H   UNL     1      44.299 -14.443   6.225  1.00  0.00     0.169 HD
HETATM   34  O   UNL     1      43.471 -13.205   4.537  1.00  0.00    -0.268 OA
BRANCH  32  35
HETATM   35  C   UNL     1      43.758 -16.416   6.067  1.00  0.00     0.068 A 
HETATM   36  C   UNL     1      42.754 -17.098   6.761  1.00  0.00     0.095 A 
HETATM   37  C   UNL     1      42.960 -18.430   7.155  1.00  0.00     0.039 A 
HETATM   38  C   UNL     1      44.127 -19.104   6.795  1.00  0.00     0.003 A 
HETATM   39  C   UNL     1      45.092 -18.456   6.031  1.00  0.00     0.002 A 
HETATM   40  C   UNL     1      44.901 -17.124   5.661  1.00  0.00     0.032 A 
BRANCH  36  41
HETATM   41  O   UNL     1      41.563 -16.470   7.007  1.00  0.00    -0.354 OA
HETATM   42  C   UNL     1      40.441 -17.251   6.587  1.00  0.00     0.210 C 
ENDBRANCH  36  41
ENDBRANCH  32  35
ENDBRANCH   5  31
TORSDOF 9
ENDMDL
MODEL 10
REMARK VINA RESULT:      -8.3      4.836     10.165
REMARK  9 active torsions:
REMARK  status: ('A' for Active; 'I' for Inactive)
REMARK    1  A    between atoms: C_2  and  C_3 
REMARK    2  A    between atoms: C_4  and  N_5 
REMARK       I    between atoms: N_5  and  C_6 
REMARK    3  A    between atoms: C_6  and  C_7 
REMARK    4  A    between atoms: C_7  and  S_8 
REMARK    5  A    between atoms: S_8  and  C_9 
REMARK    6  A    between atoms: C_13  and  C_14 
REMARK       I    between atoms: C_14  and  N_15 
REMARK    7  A    between atoms: N_15  and  C_16 
REMARK    8  A    between atoms: C_17  and  O_18 
REMARK    9  A    between atoms: C_25  and  C_26 
ROOT
HETATM    1  C   UNL     1      41.994 -12.580  -0.109  1.00  0.00     0.088 C 
HETATM    2  N   UNL     1      42.127 -13.910  -0.477  1.00  0.00    -0.353 N 
HETATM    3  C   UNL     1      41.401 -14.941   0.115  1.00  0.00     0.019 C 
HETATM    4  C   UNL     1      41.115 -16.092  -0.818  1.00  0.00     0.069 C 
HETATM    5  C   UNL     1      40.898 -14.779   1.365  1.00  0.00     0.046 C 
HETATM    6  C   UNL     1      41.034 -13.400   2.047  1.00  0.00     0.106 C 
HETATM    7  C   UNL     1      41.485 -12.276   1.106  1.00  0.00     0.069 C 
HETATM    8  C   UNL     1      41.227 -10.937   1.530  1.00  0.00     0.099 C 
HETATM    9  N   UNL     1      41.013  -9.856   1.891  1.00  0.00    -0.192 NA
HETATM   10  H   UNL     1      42.292 -14.013  -1.476  1.00  0.00     0.166 HD
ENDROOT
BRANCH   1  11
HETATM   11  S   UNL     1      42.267 -11.362  -1.336  1.00  0.00    -0.102 SA
BRANCH  11  12
HETATM   12  C   UNL     1      40.594 -10.719  -1.650  1.00  0.00     0.184 C 
BRANCH  12  13
HETATM   13  C   UNL     1      39.980 -11.552  -2.775  1.00  0.00     0.231 C 
HETATM   14  N   UNL     1      38.791 -12.164  -2.401  1.00  0.00    -0.326 N 
HETATM   15  H   UNL     1      38.573 -12.144  -1.415  1.00  0.00     0.169 HD
HETATM   16  O   UNL     1      40.526 -11.643  -3.870  1.00  0.00    -0.272 OA
BRANCH  14  17
HETATM   17  C   UNL     1      37.788 -12.690  -3.249  1.00  0.00     0.041 A 
HETATM   18  C   UNL     1      37.859 -14.046  -3.641  1.00  0.00    -0.032 A 
HETATM   19  C   UNL     1      36.800 -14.602  -4.386  1.00  0.00     0.009 A 
HETATM   20  C   UNL     1      35.699 -13.832  -4.753  1.00  0.00     0.001 A 
HETATM   21  C   UNL     1      35.644 -12.493  -4.386  1.00  0.00     0.002 A 
HETATM   22  C   UNL     1      36.682 -11.927  -3.642  1.00  0.00     0.030 A 
BRANCH  18  23
HETATM   23  C   UNL     1      39.023 -14.952  -3.302  1.00  0.00     0.036 C 
HETATM   24  C   UNL     1      39.022 -16.231  -4.125  1.00  0.00     0.010 C 
ENDBRANCH  18  23
ENDBRANCH  14  17
ENDBRANCH  12  13
ENDBRANCH  11  12
ENDBRANCH   1  11
BRANCH   6  25
HETATM   25  C   UNL     1      41.861 -13.407   3.331  1.00  0.00    -0.044 A 
HETATM   26  C   UNL     1      41.321 -13.019   4.564  1.00  0.00     0.008 A 
HETATM   27  C   UNL     1      42.084 -13.110   5.732  1.00  0.00     0.001 A 
HETATM   28  C   UNL     1      43.392 -13.590   5.682  1.00  0.00     0.000 A 
HETATM   29  C   UNL     1      43.940 -13.982   4.464  1.00  0.00     0.001 A 
HETATM   30  C   UNL     1      43.182 -13.890   3.297  1.00  0.00     0.008 A 
ENDBRANCH   6  25
BRANCH   5  31
HETATM   31  C   UNL     1      39.909 -15.678   2.047  1.00  0.00     0.255 C 
HETATM   32  N   UNL     1      40.212 -16.713   2.875  1.00  0.00    -0.321 N 
HETATM   33  H   UNL     1      39.420 -17.344   2.928  1.00  0.00     0.169 HD
HETATM   34  O   UNL     1      38.715 -15.563   1.744  1.00  0.00    -0.268 OA
BRANCH  32  35
HETATM   35  C   UNL     1      41.330 -17.090   3.633  1.00  0.00     0.068 A 
HETATM   36  C   UNL     1      42.491 -17.689   3.135  1.00  0.00     0.095 A 
HETATM   37  C   UNL     1      43.506 -18.087   4.020  1.00  0.00     0.039 A 
HETATM   38  C   UNL     1      43.400 -17.822   5.385  1.00  0.00     0.003 A 
HETATM   39  C   UNL     1      42.286 -17.149   5.875  1.00  0.00     0.002 A 
HETATM   40  C   UNL     1      41.264 -16.777   5.001  1.00  0.00     0.032 A 
BRANCH  36  41
HETATM   41  O   UNL     1      42.641 -17.838   1.782  1.00  0.00    -0.354 OA
HETATM   42  C   UNL     1      43.927 -17.407   1.329  1.00  0.00     0.210 C 
ENDBRANCH  36  41
ENDBRANCH  32  35
ENDBRANCH   5  31
TORSDOF 9
ENDMDL
