MODEL 1
REMARK VINA RESULT:      -8.8      0.000      0.000
REMARK  8 active torsions:
REMARK  status: ('A' for Active; 'I' for Inactive)
REMARK    1  A    between atoms: N_4  and  C_5 
REMARK    2  A    between atoms: C_5  and  C_6 
REMARK    3  A    between atoms: C_11  and  C_12 
REMARK    4  A    between atoms: C_12  and  C_13 
REMARK       I    between atoms: C_13  and  N_14 
REMARK    5  A    between atoms: N_14  and  N_15 
REMARK       I    between atoms: N_15  and  C_16 
REMARK    6  A    between atoms: C_16  and  C_17 
REMARK    7  A    between atoms: C_21  and  C_22 
REMARK    8  A    between atoms: C_25  and  O_26 
ROOT
HETATM    1  N   UNL     1      44.244 -13.715   8.604  1.00  0.00    -0.262 N 
HETATM    2  C   UNL     1      44.652 -14.090   7.342  1.00  0.00     0.288 C 
HETATM    3  O   UNL     1      45.256 -13.316   6.601  1.00  0.00    -0.264 OA
HETATM    4  H   UNL     1      43.734 -14.319   9.243  1.00  0.00     0.190 HD
ENDROOT
BRANCH   1   5
HETATM    5  N   UNL     1      44.457 -12.400   9.022  1.00  0.00    -0.267 N 
HETATM    6  C   UNL     1      44.461 -12.130  10.374  1.00  0.00     0.240 C 
HETATM    7  O   UNL     1      44.322 -13.012  11.223  1.00  0.00    -0.272 OA
HETATM    8  H   UNL     1      44.591 -11.700   8.295  1.00  0.00     0.190 HD
BRANCH   6   9
HETATM    9  C   UNL     1      44.599 -10.661  10.717  1.00  0.00     0.147 C 
BRANCH   9  10
HETATM   10  C   UNL     1      43.292 -10.027  11.058  1.00  0.00     0.001 A 
HETATM   11  C   UNL     1      42.867  -9.527  12.318  1.00  0.00     0.059 A 
HETATM   12  C   UNL     1      43.588  -9.532  13.616  1.00  0.00     0.073 C 
HETATM   13  N   UNL     1      41.644  -9.000  12.252  1.00  0.00    -0.177 NA
HETATM   14  N   UNL     1      41.292  -9.112  10.959  1.00  0.00    -0.273 N 
HETATM   15  C   UNL     1      42.233  -9.766  10.201  1.00  0.00     0.035 A 
HETATM   16  C   UNL     1      42.085 -10.056   8.750  1.00  0.00     0.070 C 
BRANCH  14  17
HETATM   17  C   UNL     1      40.026  -8.531  10.544  1.00  0.00     0.155 C 
BRANCH  17  18
HETATM   18  C   UNL     1      38.839  -9.504  10.662  1.00  0.00    -0.003 C 
HETATM   19  C   UNL     1      37.640  -8.864  11.364  1.00  0.00     0.011 C 
HETATM   20  C   UNL     1      38.426  -9.991   9.271  1.00  0.00     0.011 C 
ENDBRANCH  17  18
ENDBRANCH  14  17
ENDBRANCH   9  10
ENDBRANCH   6   9
ENDBRANCH   1   5
BRANCH   2  21
HETATM   21  C   UNL     1      44.316 -15.431   6.954  1.00  0.00     0.121 A 
HETATM   22  N   UNL     1      43.336 -16.140   7.588  1.00  0.00    -0.272 N 
HETATM   23  H   UNL     1      42.757 -15.823   8.360  1.00  0.00     0.189 HD
HETATM   24  N   UNL     1      43.154 -17.377   7.108  1.00  0.00    -0.174 NA
HETATM   25  C   UNL     1      44.057 -17.500   6.122  1.00  0.00     0.089 A 
HETATM   26  C   UNL     1      44.801 -16.292   5.991  1.00  0.00     0.071 A 
BRANCH  25  27
HETATM   27  C   UNL     1      44.187 -18.740   5.345  1.00  0.00    -0.005 A 
HETATM   28  C   UNL     1      44.010 -18.729   3.954  1.00  0.00     0.016 A 
HETATM   29  C   UNL     1      44.138 -19.904   3.207  1.00  0.00     0.037 A 
HETATM   30  C   UNL     1      44.446 -21.114   3.829  1.00  0.00     0.068 A 
HETATM   31  C   UNL     1      44.614 -21.139   5.212  1.00  0.00     0.037 A 
HETATM   32  C   UNL     1      44.486 -19.961   5.963  1.00  0.00     0.016 A 
BRANCH  30  33
HETATM   33  O   UNL     1      44.547 -22.184   2.986  1.00  0.00    -0.356 OA
HETATM   34  C   UNL     1      44.221 -21.959   1.620  1.00  0.00     0.210 C 
ENDBRANCH  30  33
ENDBRANCH  25  27
ENDBRANCH   2  21
TORSDOF 8
ENDMDL
MODEL 2
REMARK VINA RESULT:      -8.4      2.921      4.220
REMARK  8 active torsions:
REMARK  status: ('A' for Active; 'I' for Inactive)
REMARK    1  A    between atoms: N_4  and  C_5 
REMARK    2  A    between atoms: C_5  and  C_6 
REMARK    3  A    between atoms: C_11  and  C_12 
REMARK    4  A    between atoms: C_12  and  C_13 
REMARK       I    between atoms: C_13  and  N_14 
REMARK    5  A    between atoms: N_14  and  N_15 
REMARK       I    between atoms: N_15  and  C_16 
REMARK    6  A    between atoms: C_16  and  C_17 
REMARK    7  A    between atoms: C_21  and  C_22 
REMARK    8  A    between atoms: C_25  and  O_26 
ROOT
HETATM    1  N   UNL     1      39.921 -13.667   6.690  1.00  0.00    -0.262 N 
HETATM    2  C   UNL     1      39.880 -13.761   5.315  1.00  0.00     0.288 C 
HETATM    3  O   UNL     1      39.318 -12.912   4.625  1.00  0.00    -0.264 OA
HETATM    4  H   UNL     1      40.365 -14.350   7.297  1.00  0.00     0.190 HD
ENDROOT
BRANCH   1   5
HETATM    5  N   UNL     1      39.243 -12.619   7.317  1.00  0.00    -0.267 N 
HETATM    6  C   UNL     1      39.932 -11.458   7.592  1.00  0.00     0.240 C 
HETATM    7  O   UNL     1      41.111 -11.299   7.269  1.00  0.00    -0.272 OA
HETATM    8  H   UNL     1      38.264 -12.776   7.550  1.00  0.00     0.190 HD
BRANCH   6   9
HETATM    9  C   UNL     1      39.135 -10.425   8.363  1.00  0.00     0.147 C 
BRANCH   9  10
HETATM   10  C   UNL     1      39.960  -9.708   9.379  1.00  0.00     0.001 A 
HETATM   11  C   UNL     1      40.543  -8.416   9.275  1.00  0.00     0.059 A 
HETATM   12  C   UNL     1      40.513  -7.467   8.133  1.00  0.00     0.073 C 
HETATM   13  N   UNL     1      41.192  -8.077  10.389  1.00  0.00    -0.177 NA
HETATM   14  N   UNL     1      40.998  -9.111  11.226  1.00  0.00    -0.273 N 
HETATM   15  C   UNL     1      40.298 -10.144  10.651  1.00  0.00     0.035 A 
HETATM   16  C   UNL     1      39.974 -11.421  11.340  1.00  0.00     0.070 C 
BRANCH  14  17
HETATM   17  C   UNL     1      41.514  -8.998  12.581  1.00  0.00     0.155 C 
BRANCH  17  18
HETATM   18  C   UNL     1      43.048  -9.106  12.662  1.00  0.00    -0.003 C 
HETATM   19  C   UNL     1      43.543  -9.148  14.109  1.00  0.00     0.011 C 
HETATM   20  C   UNL     1      43.521 -10.355  11.915  1.00  0.00     0.011 C 
ENDBRANCH  17  18
ENDBRANCH  14  17
ENDBRANCH   9  10
ENDBRANCH   6   9
ENDBRANCH   1   5
BRANCH   2  21
HETATM   21  C   UNL     1      40.526 -14.914   4.753  1.00  0.00     0.121 A 
HETATM   22  N   UNL     1      40.157 -15.426   3.542  1.00  0.00    -0.272 N 
HETATM   23  H   UNL     1      39.431 -15.073   2.926  1.00  0.00     0.189 HD
HETATM   24  N   UNL     1      40.855 -16.507   3.167  1.00  0.00    -0.174 NA
HETATM   25  C   UNL     1      41.714 -16.729   4.175  1.00  0.00     0.089 A 
HETATM   26  C   UNL     1      41.542 -15.741   5.187  1.00  0.00     0.071 A 
BRANCH  25  27
HETATM   27  C   UNL     1      42.659 -17.853   4.150  1.00  0.00    -0.005 A 
HETATM   28  C   UNL     1      43.185 -18.367   5.343  1.00  0.00     0.016 A 
HETATM   29  C   UNL     1      44.080 -19.441   5.328  1.00  0.00     0.037 A 
HETATM   30  C   UNL     1      44.471 -20.025   4.123  1.00  0.00     0.068 A 
HETATM   31  C   UNL     1      43.964 -19.516   2.929  1.00  0.00     0.037 A 
HETATM   32  C   UNL     1      43.065 -18.439   2.943  1.00  0.00     0.016 A 
BRANCH  30  33
HETATM   33  O   UNL     1      45.345 -21.068   4.247  1.00  0.00    -0.356 OA
HETATM   34  C   UNL     1      44.967 -22.123   5.122  1.00  0.00     0.210 C 
ENDBRANCH  30  33
ENDBRANCH  25  27
ENDBRANCH   2  21
TORSDOF 8
ENDMDL
MODEL 3
REMARK VINA RESULT:      -8.4      2.491      3.623
REMARK  8 active torsions:
REMARK  status: ('A' for Active; 'I' for Inactive)
REMARK    1  A    between atoms: N_4  and  C_5 
REMARK    2  A    between atoms: C_5  and  C_6 
REMARK    3  A    between atoms: C_11  and  C_12 
REMARK    4  A    between atoms: C_12  and  C_13 
REMARK       I    between atoms: C_13  and  N_14 
REMARK    5  A    between atoms: N_14  and  N_15 
REMARK       I    between atoms: N_15  and  C_16 
REMARK    6  A    between atoms: C_16  and  C_17 
REMARK    7  A    between atoms: C_21  and  C_22 
REMARK    8  A    between atoms: C_25  and  O_26 
ROOT
HETATM    1  N   UNL     1      41.519 -12.820   6.625  1.00  0.00    -0.262 N 
HETATM    2  C   UNL     1      40.491 -13.583   6.117  1.00  0.00     0.288 C 
HETATM    3  O   UNL     1      39.342 -13.151   6.038  1.00  0.00    -0.264 OA
HETATM    4  H   UNL     1      42.479 -13.141   6.717  1.00  0.00     0.190 HD
ENDROOT
BRANCH   1   5
HETATM    5  N   UNL     1      41.234 -11.550   7.131  1.00  0.00    -0.267 N 
HETATM    6  C   UNL     1      42.182 -10.921   7.909  1.00  0.00     0.240 C 
HETATM    7  O   UNL     1      43.284 -11.423   8.140  1.00  0.00    -0.272 OA
HETATM    8  H   UNL     1      40.323 -11.155   6.903  1.00  0.00     0.190 HD
BRANCH   6   9
HETATM    9  C   UNL     1      41.734  -9.596   8.491  1.00  0.00     0.147 C 
BRANCH   9  10
HETATM   10  C   UNL     1      41.201  -9.731   9.878  1.00  0.00     0.001 A 
HETATM   11  C   UNL     1      39.842  -9.774  10.290  1.00  0.00     0.059 A 
HETATM   12  C   UNL     1      38.612  -9.667   9.465  1.00  0.00     0.073 C 
HETATM   13  N   UNL     1      39.731  -9.932  11.609  1.00  0.00    -0.177 NA
HETATM   14  N   UNL     1      40.998 -10.035  12.049  1.00  0.00    -0.273 N 
HETATM   15  C   UNL     1      41.928  -9.876  11.051  1.00  0.00     0.035 A 
HETATM   16  C   UNL     1      43.399  -9.909  11.263  1.00  0.00     0.070 C 
BRANCH  14  17
HETATM   17  C   UNL     1      41.210 -10.313  13.460  1.00  0.00     0.155 C 
BRANCH  17  18
HETATM   18  C   UNL     1      41.840  -9.136  14.227  1.00  0.00    -0.003 C 
HETATM   19  C   UNL     1      41.004  -7.861  14.107  1.00  0.00     0.011 C 
HETATM   20  C   UNL     1      42.009  -9.509  15.702  1.00  0.00     0.011 C 
ENDBRANCH  17  18
ENDBRANCH  14  17
ENDBRANCH   9  10
ENDBRANCH   6   9
ENDBRANCH   1   5
BRANCH   2  21
HETATM   21  C   UNL     1      40.851 -14.909   5.699  1.00  0.00     0.121 A 
HETATM   22  N   UNL     1      40.137 -16.006   6.091  1.00  0.00    -0.272 N 
HETATM   23  H   UNL     1      39.313 -16.017   6.685  1.00  0.00     0.189 HD
HETATM   24  N   UNL     1      40.610 -17.167   5.619  1.00  0.00    -0.174 NA
HETATM   25  C   UNL     1      41.688 -16.830   4.893  1.00  0.00     0.089 A 
HETATM   26  C   UNL     1      41.866 -15.417   4.913  1.00  0.00     0.071 A 
BRANCH  25  27
HETATM   27  C   UNL     1      42.506 -17.841   4.211  1.00  0.00    -0.005 A 
HETATM   28  C   UNL     1      43.464 -18.579   4.921  1.00  0.00     0.016 A 
HETATM   29  C   UNL     1      44.242 -19.547   4.279  1.00  0.00     0.037 A 
HETATM   30  C   UNL     1      44.082 -19.803   2.917  1.00  0.00     0.068 A 
HETATM   31  C   UNL     1      43.140 -19.069   2.198  1.00  0.00     0.037 A 
HETATM   32  C   UNL     1      42.359 -18.097   2.841  1.00  0.00     0.016 A 
BRANCH  30  33
HETATM   33  O   UNL     1      44.900 -20.775   2.415  1.00  0.00    -0.356 OA
HETATM   34  C   UNL     1      44.274 -21.846   1.720  1.00  0.00     0.210 C 
ENDBRANCH  30  33
ENDBRANCH  25  27
ENDBRANCH   2  21
TORSDOF 8
ENDMDL
MODEL 4
REMARK VINA RESULT:      -8.3      2.392      3.391
REMARK  8 active torsions:
REMARK  status: ('A' for Active; 'I' for Inactive)
REMARK    1  A    between atoms: N_4  and  C_5 
REMARK    2  A    between atoms: C_5  and  C_6 
REMARK    3  A    between atoms: C_11  and  C_12 
REMARK    4  A    between atoms: C_12  and  C_13 
REMARK       I    between atoms: C_13  and  N_14 
REMARK    5  A    between atoms: N_14  and  N_15 
REMARK       I    between atoms: N_15  and  C_16 
REMARK    6  A    between atoms: C_16  and  C_17 
REMARK    7  A    between atoms: C_21  and  C_22 
REMARK    8  A    between atoms: C_25  and  O_26 
ROOT
HETATM    1  N   UNL     1      42.215 -13.335   6.252  1.00  0.00    -0.262 N 
HETATM    2  C   UNL     1      42.236 -13.320   4.875  1.00  0.00     0.288 C 
HETATM    3  O   UNL     1      42.162 -12.271   4.238  1.00  0.00    -0.264 OA
HETATM    4  H   UNL     1      42.264 -14.180   6.816  1.00  0.00     0.190 HD
ENDROOT
BRANCH   1   5
HETATM    5  N   UNL     1      42.030 -12.134   6.939  1.00  0.00    -0.267 N 
HETATM    6  C   UNL     1      42.983 -11.744   7.857  1.00  0.00     0.240 C 
HETATM    7  O   UNL     1      44.008 -12.398   8.061  1.00  0.00    -0.272 OA
HETATM    8  H   UNL     1      41.184 -11.607   6.731  1.00  0.00     0.190 HD
BRANCH   6   9
HETATM    9  C   UNL     1      42.637 -10.481   8.619  1.00  0.00     0.147 C 
BRANCH   9  10
HETATM   10  C   UNL     1      42.890 -10.610  10.084  1.00  0.00     0.001 A 
HETATM   11  C   UNL     1      44.142 -10.630  10.755  1.00  0.00     0.059 A 
HETATM   12  C   UNL     1      45.510 -10.560  10.182  1.00  0.00     0.073 C 
HETATM   13  N   UNL     1      43.991 -10.728  12.076  1.00  0.00    -0.177 NA
HETATM   14  N   UNL     1      42.661 -10.728  12.271  1.00  0.00    -0.273 N 
HETATM   15  C   UNL     1      41.947 -10.704  11.097  1.00  0.00     0.035 A 
HETATM   16  C   UNL     1      40.462 -10.730  11.020  1.00  0.00     0.070 C 
BRANCH  14  17
HETATM   17  C   UNL     1      42.171 -10.731  13.639  1.00  0.00     0.155 C 
BRANCH  17  18
HETATM   18  C   UNL     1      42.662  -9.529  14.467  1.00  0.00    -0.003 C 
HETATM   19  C   UNL     1      42.377  -8.198  13.769  1.00  0.00     0.011 C 
HETATM   20  C   UNL     1      42.001  -9.544  15.847  1.00  0.00     0.011 C 
ENDBRANCH  17  18
ENDBRANCH  14  17
ENDBRANCH   9  10
ENDBRANCH   6   9
ENDBRANCH   1   5
BRANCH   2  21
HETATM   21  C   UNL     1      42.341 -14.605   4.242  1.00  0.00     0.121 A 
HETATM   22  N   UNL     1      41.554 -14.951   3.180  1.00  0.00    -0.272 N 
HETATM   23  H   UNL     1      40.847 -14.376   2.733  1.00  0.00     0.189 HD
HETATM   24  N   UNL     1      41.773 -16.188   2.714  1.00  0.00    -0.174 NA
HETATM   25  C   UNL     1      42.737 -16.688   3.503  1.00  0.00     0.089 A 
HETATM   26  C   UNL     1      43.125 -15.718   4.471  1.00  0.00     0.071 A 
BRANCH  25  27
HETATM   27  C   UNL     1      43.255 -18.051   3.320  1.00  0.00    -0.005 A 
HETATM   28  C   UNL     1      42.927 -18.788   2.174  1.00  0.00     0.016 A 
HETATM   29  C   UNL     1      43.421 -20.083   1.990  1.00  0.00     0.037 A 
HETATM   30  C   UNL     1      44.253 -20.671   2.944  1.00  0.00     0.068 A 
HETATM   31  C   UNL     1      44.578 -19.951   4.092  1.00  0.00     0.037 A 
HETATM   32  C   UNL     1      44.083 -18.652   4.278  1.00  0.00     0.016 A 
BRANCH  30  33
HETATM   33  O   UNL     1      44.669 -21.936   2.640  1.00  0.00    -0.356 OA
HETATM   34  C   UNL     1      44.680 -22.881   3.703  1.00  0.00     0.210 C 
ENDBRANCH  30  33
ENDBRANCH  25  27
ENDBRANCH   2  21
TORSDOF 8
ENDMDL
MODEL 5
REMARK VINA RESULT:      -8.3      2.742      4.002
REMARK  8 active torsions:
REMARK  status: ('A' for Active; 'I' for Inactive)
REMARK    1  A    between atoms: N_4  and  C_5 
REMARK    2  A    between atoms: C_5  and  C_6 
REMARK    3  A    between atoms: C_11  and  C_12 
REMARK    4  A    between atoms: C_12  and  C_13 
REMARK       I    between atoms: C_13  and  N_14 
REMARK    5  A    between atoms: N_14  and  N_15 
REMARK       I    between atoms: N_15  and  C_16 
REMARK    6  A    between atoms: C_16  and  C_17 
REMARK    7  A    between atoms: C_21  and  C_22 
REMARK    8  A    between atoms: C_25  and  O_26 
ROOT
HETATM    1  N   UNL     1      41.223 -12.729   6.661  1.00  0.00    -0.262 N 
HETATM    2  C   UNL     1      41.515 -12.711   5.314  1.00  0.00     0.288 C 
HETATM    3  O   UNL     1      41.676 -11.657   4.700  1.00  0.00    -0.264 OA
HETATM    4  H   UNL     1      41.073 -13.575   7.202  1.00  0.00     0.190 HD
ENDROOT
BRANCH   1   5
HETATM    5  N   UNL     1      41.032 -11.517   7.328  1.00  0.00    -0.267 N 
HETATM    6  C   UNL     1      39.907 -11.363   8.110  1.00  0.00     0.240 C 
HETATM    7  O   UNL     1      39.088 -12.270   8.271  1.00  0.00    -0.272 OA
HETATM    8  H   UNL     1      41.739 -10.797   7.190  1.00  0.00     0.190 HD
BRANCH   6   9
HETATM    9  C   UNL     1      39.743  -9.980   8.706  1.00  0.00     0.147 C 
BRANCH   9  10
HETATM   10  C   UNL     1      39.897  -9.975  10.189  1.00  0.00     0.001 A 
HETATM   11  C   UNL     1      38.950  -9.560  11.164  1.00  0.00     0.059 A 
HETATM   12  C   UNL     1      37.589  -9.001  10.964  1.00  0.00     0.073 C 
HETATM   13  N   UNL     1      39.415  -9.720  12.403  1.00  0.00    -0.177 NA
HETATM   14  N   UNL     1      40.630 -10.273  12.244  1.00  0.00    -0.273 N 
HETATM   15  C   UNL     1      40.991 -10.408  10.926  1.00  0.00     0.035 A 
HETATM   16  C   UNL     1      42.293 -10.958  10.466  1.00  0.00     0.070 C 
BRANCH  14  17
HETATM   17  C   UNL     1      41.364 -10.660  13.438  1.00  0.00     0.155 C 
BRANCH  17  18
HETATM   18  C   UNL     1      41.984  -9.468  14.189  1.00  0.00    -0.003 C 
HETATM   19  C   UNL     1      41.866  -9.623  15.706  1.00  0.00     0.011 C 
HETATM   20  C   UNL     1      43.455  -9.315  13.796  1.00  0.00     0.011 C 
ENDBRANCH  17  18
ENDBRANCH  14  17
ENDBRANCH   9  10
ENDBRANCH   6   9
ENDBRANCH   1   5
BRANCH   2  21
HETATM   21  C   UNL     1      41.608 -13.998   4.683  1.00  0.00     0.121 A 
HETATM   22  N   UNL     1      40.578 -14.516   3.950  1.00  0.00    -0.272 N 
HETATM   23  H   UNL     1      39.679 -14.080   3.769  1.00  0.00     0.189 HD
HETATM   24  N   UNL     1      40.825 -15.728   3.436  1.00  0.00    -0.174 NA
HETATM   25  C   UNL     1      42.065 -16.033   3.853  1.00  0.00     0.089 A 
HETATM   26  C   UNL     1      42.592 -14.964   4.633  1.00  0.00     0.071 A 
BRANCH  25  27
HETATM   27  C   UNL     1      42.704 -17.309   3.505  1.00  0.00    -0.005 A 
HETATM   28  C   UNL     1      43.575 -17.938   4.406  1.00  0.00     0.016 A 
HETATM   29  C   UNL     1      44.182 -19.155   4.084  1.00  0.00     0.037 A 
HETATM   30  C   UNL     1      43.935 -19.773   2.858  1.00  0.00     0.068 A 
HETATM   31  C   UNL     1      43.079 -19.153   1.949  1.00  0.00     0.037 A 
HETATM   32  C   UNL     1      42.469 -17.931   2.271  1.00  0.00     0.016 A 
BRANCH  30  33
HETATM   33  O   UNL     1      44.586 -20.959   2.671  1.00  0.00    -0.356 OA
HETATM   34  C   UNL     1      44.046 -21.841   1.695  1.00  0.00     0.210 C 
ENDBRANCH  30  33
ENDBRANCH  25  27
ENDBRANCH   2  21
TORSDOF 8
ENDMDL
MODEL 6
REMARK VINA RESULT:      -8.0      8.945     12.636
REMARK  8 active torsions:
REMARK  status: ('A' for Active; 'I' for Inactive)
REMARK    1  A    between atoms: N_4  and  C_5 
REMARK    2  A    between atoms: C_5  and  C_6 
REMARK    3  A    between atoms: C_11  and  C_12 
REMARK    4  A    between atoms: C_12  and  C_13 
REMARK       I    between atoms: C_13  and  N_14 
REMARK    5  A    between atoms: N_14  and  N_15 
REMARK       I    between atoms: N_15  and  C_16 
REMARK    6  A    between atoms: C_16  and  C_17 
REMARK    7  A    between atoms: C_21  and  C_22 
REMARK    8  A    between atoms: C_25  and  O_26 
ROOT
HETATM    1  N   UNL     1      40.548 -15.305   0.303  1.00  0.00    -0.262 N 
HETATM    2  C   UNL     1      40.766 -14.428  -0.737  1.00  0.00     0.288 C 
HETATM    3  O   UNL     1      41.754 -13.696  -0.769  1.00  0.00    -0.264 OA
HETATM    4  H   UNL     1      39.741 -15.919   0.374  1.00  0.00     0.190 HD
ENDROOT
BRANCH   1   5
HETATM    5  N   UNL     1      41.433 -15.309   1.383  1.00  0.00    -0.267 N 
HETATM    6  C   UNL     1      41.243 -16.231   2.390  1.00  0.00     0.240 C 
HETATM    7  O   UNL     1      40.345 -17.075   2.349  1.00  0.00    -0.272 OA
HETATM    8  H   UNL     1      42.176 -14.613   1.374  1.00  0.00     0.190 HD
BRANCH   6   9
HETATM    9  C   UNL     1      42.193 -16.084   3.560  1.00  0.00     0.147 C 
BRANCH   9  10
HETATM   10  C   UNL     1      42.962 -17.333   3.834  1.00  0.00     0.001 A 
HETATM   11  C   UNL     1      43.023 -18.072   5.046  1.00  0.00     0.059 A 
HETATM   12  C   UNL     1      42.374 -17.783   6.350  1.00  0.00     0.073 C 
HETATM   13  N   UNL     1      43.787 -19.158   4.923  1.00  0.00    -0.177 NA
HETATM   14  N   UNL     1      44.183 -19.155   3.638  1.00  0.00    -0.273 N 
HETATM   15  C   UNL     1      43.750 -18.051   2.946  1.00  0.00     0.035 A 
HETATM   16  C   UNL     1      44.070 -17.778   1.519  1.00  0.00     0.070 C 
BRANCH  14  17
HETATM   17  C   UNL     1      44.966 -20.284   3.163  1.00  0.00     0.155 C 
BRANCH  17  18
HETATM   18  C   UNL     1      44.121 -21.539   2.882  1.00  0.00    -0.003 C 
HETATM   19  C   UNL     1      44.132 -21.917   1.399  1.00  0.00     0.011 C 
HETATM   20  C   UNL     1      44.637 -22.711   3.719  1.00  0.00     0.011 C 
ENDBRANCH  17  18
ENDBRANCH  14  17
ENDBRANCH   9  10
ENDBRANCH   6   9
ENDBRANCH   1   5
BRANCH   2  21
HETATM   21  C   UNL     1      39.763 -14.423  -1.765  1.00  0.00     0.121 A 
HETATM   22  N   UNL     1      39.742 -15.365  -2.754  1.00  0.00    -0.272 N 
HETATM   23  H   UNL     1      40.389 -16.138  -2.874  1.00  0.00     0.189 HD
HETATM   24  N   UNL     1      38.746 -15.212  -3.637  1.00  0.00    -0.174 NA
HETATM   25  C   UNL     1      38.085 -14.119  -3.224  1.00  0.00     0.089 A 
HETATM   26  C   UNL     1      38.691 -13.600  -2.044  1.00  0.00     0.071 A 
BRANCH  25  27
HETATM   27  C   UNL     1      36.915 -13.605  -3.949  1.00  0.00    -0.005 A 
HETATM   28  C   UNL     1      36.152 -14.455  -4.762  1.00  0.00     0.016 A 
HETATM   29  C   UNL     1      35.033 -13.975  -5.450  1.00  0.00     0.037 A 
HETATM   30  C   UNL     1      34.651 -12.638  -5.342  1.00  0.00     0.068 A 
HETATM   31  C   UNL     1      35.407 -11.780  -4.545  1.00  0.00     0.037 A 
HETATM   32  C   UNL     1      36.529 -12.261  -3.854  1.00  0.00     0.016 A 
BRANCH  30  33
HETATM   33  O   UNL     1      33.538 -12.299  -6.060  1.00  0.00    -0.356 OA
HETATM   34  C   UNL     1      33.648 -12.352  -7.477  1.00  0.00     0.210 C 
ENDBRANCH  30  33
ENDBRANCH  25  27
ENDBRANCH   2  21
TORSDOF 8
ENDMDL
MODEL 7
REMARK VINA RESULT:      -7.9      9.351     12.549
REMARK  8 active torsions:
REMARK  status: ('A' for Active; 'I' for Inactive)
REMARK    1  A    between atoms: N_4  and  C_5 
REMARK    2  A    between atoms: C_5  and  C_6 
REMARK    3  A    between atoms: C_11  and  C_12 
REMARK    4  A    between atoms: C_12  and  C_13 
REMARK       I    between atoms: C_13  and  N_14 
REMARK    5  A    between atoms: N_14  and  N_15 
REMARK       I    between atoms: N_15  and  C_16 
REMARK    6  A    between atoms: C_16  and  C_17 
REMARK    7  A    between atoms: C_21  and  C_22 
REMARK    8  A    between atoms: C_25  and  O_26 
ROOT
HETATM    1  N   UNL     1      40.688 -15.758  -1.205  1.00  0.00    -0.262 N 
HETATM    2  C   UNL     1      40.707 -15.491  -2.557  1.00  0.00     0.288 C 
HETATM    3  O   UNL     1      41.743 -15.565  -3.216  1.00  0.00    -0.264 OA
HETATM    4  H   UNL     1      39.858 -15.699  -0.622  1.00  0.00     0.190 HD
ENDROOT
BRANCH   1   5
HETATM    5  N   UNL     1      41.889 -16.049  -0.555  1.00  0.00    -0.267 N 
HETATM    6  C   UNL     1      41.861 -16.884   0.541  1.00  0.00     0.240 C 
HETATM    7  O   UNL     1      40.821 -17.412   0.941  1.00  0.00    -0.272 OA
HETATM    8  H   UNL     1      42.732 -15.614  -0.925  1.00  0.00     0.190 HD
BRANCH   6   9
HETATM    9  C   UNL     1      43.199 -17.053   1.233  1.00  0.00     0.147 C 
BRANCH   9  10
HETATM   10  C   UNL     1      43.058 -17.509   2.646  1.00  0.00     0.001 A 
HETATM   11  C   UNL     1      43.380 -18.783   3.188  1.00  0.00     0.059 A 
HETATM   12  C   UNL     1      43.902 -19.988   2.495  1.00  0.00     0.073 C 
HETATM   13  N   UNL     1      43.154 -18.831   4.502  1.00  0.00    -0.177 NA
HETATM   14  N   UNL     1      42.734 -17.595   4.822  1.00  0.00    -0.273 N 
HETATM   15  C   UNL     1      42.614 -16.768   3.732  1.00  0.00     0.035 A 
HETATM   16  C   UNL     1      42.139 -15.361   3.796  1.00  0.00     0.070 C 
BRANCH  14  17
HETATM   17  C   UNL     1      42.492 -17.299   6.225  1.00  0.00     0.155 C 
BRANCH  17  18
HETATM   18  C   UNL     1      43.778 -17.004   7.018  1.00  0.00    -0.003 C 
HETATM   19  C   UNL     1      44.166 -15.526   6.950  1.00  0.00     0.011 C 
HETATM   20  C   UNL     1      43.595 -17.425   8.478  1.00  0.00     0.011 C 
ENDBRANCH  17  18
ENDBRANCH  14  17
ENDBRANCH   9  10
ENDBRANCH   6   9
ENDBRANCH   1   5
BRANCH   2  21
HETATM   21  C   UNL     1      39.447 -15.114  -3.132  1.00  0.00     0.121 A 
HETATM   22  N   UNL     1      38.735 -15.966  -3.928  1.00  0.00    -0.272 N 
HETATM   23  H   UNL     1      38.991 -16.913  -4.189  1.00  0.00     0.189 HD
HETATM   24  N   UNL     1      37.585 -15.455  -4.389  1.00  0.00    -0.174 NA
HETATM   25  C   UNL     1      37.536 -14.210  -3.889  1.00  0.00     0.089 A 
HETATM   26  C   UNL     1      38.686 -13.963  -3.086  1.00  0.00     0.071 A 
BRANCH  25  27
HETATM   27  C   UNL     1      36.417 -13.305  -4.181  1.00  0.00    -0.005 A 
HETATM   28  C   UNL     1      35.343 -13.734  -4.975  1.00  0.00     0.016 A 
HETATM   29  C   UNL     1      34.272 -12.880  -5.252  1.00  0.00     0.037 A 
HETATM   30  C   UNL     1      34.246 -11.581  -4.745  1.00  0.00     0.068 A 
HETATM   31  C   UNL     1      35.312 -11.139  -3.964  1.00  0.00     0.037 A 
HETATM   32  C   UNL     1      36.388 -11.995  -3.684  1.00  0.00     0.016 A 
BRANCH  30  33
HETATM   33  O   UNL     1      33.141 -10.853  -5.087  1.00  0.00    -0.356 OA
HETATM   34  C   UNL     1      32.416 -11.284  -6.231  1.00  0.00     0.210 C 
ENDBRANCH  30  33
ENDBRANCH  25  27
ENDBRANCH   2  21
TORSDOF 8
ENDMDL
MODEL 8
REMARK VINA RESULT:      -7.8      7.391     11.706
REMARK  8 active torsions:
REMARK  status: ('A' for Active; 'I' for Inactive)
REMARK    1  A    between atoms: N_4  and  C_5 
REMARK    2  A    between atoms: C_5  and  C_6 
REMARK    3  A    between atoms: C_11  and  C_12 
REMARK    4  A    between atoms: C_12  and  C_13 
REMARK       I    between atoms: C_13  and  N_14 
REMARK    5  A    between atoms: N_14  and  N_15 
REMARK       I    between atoms: N_15  and  C_16 
REMARK    6  A    between atoms: C_16  and  C_17 
REMARK    7  A    between atoms: C_21  and  C_22 
REMARK    8  A    between atoms: C_25  and  O_26 
ROOT
HETATM    1  N   UNL     1      41.002 -15.019   1.639  1.00  0.00    -0.262 N 
HETATM    2  C   UNL     1      41.207 -15.538   0.379  1.00  0.00     0.288 C 
HETATM    3  O   UNL     1      41.161 -16.748   0.162  1.00  0.00    -0.264 OA
HETATM    4  H   UNL     1      41.041 -14.029   1.863  1.00  0.00     0.190 HD
ENDROOT
BRANCH   1   5
HETATM    5  N   UNL     1      40.810 -15.896   2.709  1.00  0.00    -0.267 N 
HETATM    6  C   UNL     1      41.738 -15.907   3.728  1.00  0.00     0.240 C 
HETATM    7  O   UNL     1      42.706 -15.144   3.746  1.00  0.00    -0.272 OA
HETATM    8  H   UNL     1      39.988 -16.496   2.673  1.00  0.00     0.190 HD
BRANCH   6   9
HETATM    9  C   UNL     1      41.492 -16.963   4.787  1.00  0.00     0.147 C 
BRANCH   9  10
HETATM   10  C   UNL     1      42.639 -17.905   4.932  1.00  0.00     0.001 A 
HETATM   11  C   UNL     1      43.303 -18.295   6.126  1.00  0.00     0.059 A 
HETATM   12  C   UNL     1      43.056 -17.848   7.520  1.00  0.00     0.073 C 
HETATM   13  N   UNL     1      44.270 -19.181   5.886  1.00  0.00    -0.177 NA
HETATM   14  N   UNL     1      44.210 -19.403   4.561  1.00  0.00    -0.273 N 
HETATM   15  C   UNL     1      43.272 -18.624   3.928  1.00  0.00     0.035 A 
HETATM   16  C   UNL     1      43.019 -18.643   2.463  1.00  0.00     0.070 C 
BRANCH  14  17
HETATM   17  C   UNL     1      45.093 -20.411   3.998  1.00  0.00     0.155 C 
BRANCH  17  18
HETATM   18  C   UNL     1      44.357 -21.686   3.549  1.00  0.00    -0.003 C 
HETATM   19  C   UNL     1      44.621 -22.013   2.078  1.00  0.00     0.011 C 
HETATM   20  C   UNL     1      44.781 -22.866   4.426  1.00  0.00     0.011 C 
ENDBRANCH  17  18
ENDBRANCH  14  17
ENDBRANCH   9  10
ENDBRANCH   6   9
ENDBRANCH   1   5
BRANCH   2  21
HETATM   21  C   UNL     1      41.485 -14.576  -0.650  1.00  0.00     0.121 A 
HETATM   22  N   UNL     1      41.711 -14.950  -1.944  1.00  0.00    -0.272 N 
HETATM   23  H   UNL     1      41.705 -15.895  -2.314  1.00  0.00     0.189 HD
HETATM   24  N   UNL     1      41.963 -13.930  -2.775  1.00  0.00    -0.174 NA
HETATM   25  C   UNL     1      41.913 -12.834  -2.001  1.00  0.00     0.089 A 
HETATM   26  C   UNL     1      41.606 -13.200  -0.659  1.00  0.00     0.071 A 
BRANCH  25  27
HETATM   27  C   UNL     1      42.153 -11.492  -2.547  1.00  0.00    -0.005 A 
HETATM   28  C   UNL     1      42.280 -10.388  -1.692  1.00  0.00     0.016 A 
HETATM   29  C   UNL     1      42.514  -9.109  -2.205  1.00  0.00     0.037 A 
HETATM   30  C   UNL     1      42.628  -8.901  -3.580  1.00  0.00     0.068 A 
HETATM   31  C   UNL     1      42.493  -9.989  -4.440  1.00  0.00     0.037 A 
HETATM   32  C   UNL     1      42.258 -11.273  -3.928  1.00  0.00     0.016 A 
BRANCH  30  33
HETATM   33  O   UNL     1      42.861  -7.606  -3.948  1.00  0.00    -0.356 OA
HETATM   34  C   UNL     1      42.638  -7.276  -5.312  1.00  0.00     0.210 C 
ENDBRANCH  30  33
ENDBRANCH  25  27
ENDBRANCH   2  21
TORSDOF 8
ENDMDL
MODEL 9
REMARK VINA RESULT:      -7.7      7.880     10.322
REMARK  8 active torsions:
REMARK  status: ('A' for Active; 'I' for Inactive)
REMARK    1  A    between atoms: N_4  and  C_5 
REMARK    2  A    between atoms: C_5  and  C_6 
REMARK    3  A    between atoms: C_11  and  C_12 
REMARK    4  A    between atoms: C_12  and  C_13 
REMARK       I    between atoms: C_13  and  N_14 
REMARK    5  A    between atoms: N_14  and  N_15 
REMARK       I    between atoms: N_15  and  C_16 
REMARK    6  A    between atoms: C_16  and  C_17 
REMARK    7  A    between atoms: C_21  and  C_22 
REMARK    8  A    between atoms: C_25  and  O_26 
ROOT
HETATM    1  N   UNL     1      40.170 -15.338  -0.356  1.00  0.00    -0.262 N 
HETATM    2  C   UNL     1      39.918 -15.099   0.977  1.00  0.00     0.288 C 
HETATM    3  O   UNL     1      39.161 -14.201   1.342  1.00  0.00    -0.264 OA
HETATM    4  H   UNL     1      40.796 -16.062  -0.699  1.00  0.00     0.190 HD
ENDROOT
BRANCH   1   5
HETATM    5  N   UNL     1      39.609 -14.491  -1.314  1.00  0.00    -0.267 N 
HETATM    6  C   UNL     1      40.107 -14.524  -2.599  1.00  0.00     0.240 C 
HETATM    7  O   UNL     1      41.002 -15.301  -2.939  1.00  0.00    -0.272 OA
HETATM    8  H   UNL     1      38.857 -13.878  -1.004  1.00  0.00     0.190 HD
BRANCH   6   9
HETATM    9  C   UNL     1      39.500 -13.496  -3.532  1.00  0.00     0.147 C 
BRANCH   9  10
HETATM   10  C   UNL     1      39.784 -12.096  -3.103  1.00  0.00     0.001 A 
HETATM   11  C   UNL     1      38.900 -11.180  -2.472  1.00  0.00     0.059 A 
HETATM   12  C   UNL     1      37.472 -11.361  -2.108  1.00  0.00     0.073 C 
HETATM   13  N   UNL     1      39.501 -10.020  -2.203  1.00  0.00    -0.177 NA
HETATM   14  N   UNL     1      40.771 -10.190  -2.611  1.00  0.00    -0.273 N 
HETATM   15  C   UNL     1      40.987 -11.411  -3.203  1.00  0.00     0.035 A 
HETATM   16  C   UNL     1      42.289 -11.847  -3.773  1.00  0.00     0.070 C 
BRANCH  14  17
HETATM   17  C   UNL     1      41.717  -9.115  -2.361  1.00  0.00     0.155 C 
BRANCH  17  18
HETATM   18  C   UNL     1      42.519  -9.295  -1.060  1.00  0.00    -0.003 C 
HETATM   19  C   UNL     1      44.000  -9.565  -1.331  1.00  0.00     0.011 C 
HETATM   20  C   UNL     1      42.371  -8.050  -0.182  1.00  0.00     0.011 C 
ENDBRANCH  17  18
ENDBRANCH  14  17
ENDBRANCH   9  10
ENDBRANCH   6   9
ENDBRANCH   1   5
BRANCH   2  21
HETATM   21  C   UNL     1      40.603 -15.959   1.902  1.00  0.00     0.121 A 
HETATM   22  N   UNL     1      40.340 -15.930   3.242  1.00  0.00    -0.272 N 
HETATM   23  H   UNL     1      39.667 -15.337   3.718  1.00  0.00     0.189 HD
HETATM   24  N   UNL     1      41.071 -16.790   3.964  1.00  0.00    -0.174 NA
HETATM   25  C   UNL     1      41.859 -17.408   3.069  1.00  0.00     0.089 A 
HETATM   26  C   UNL     1      41.586 -16.918   1.760  1.00  0.00     0.071 A 
BRANCH  25  27
HETATM   27  C   UNL     1      42.832 -18.431   3.475  1.00  0.00    -0.005 A 
HETATM   28  C   UNL     1      43.177 -18.589   4.825  1.00  0.00     0.016 A 
HETATM   29  C   UNL     1      44.097 -19.565   5.219  1.00  0.00     0.037 A 
HETATM   30  C   UNL     1      44.694 -20.403   4.277  1.00  0.00     0.068 A 
HETATM   31  C   UNL     1      44.367 -20.249   2.931  1.00  0.00     0.037 A 
HETATM   32  C   UNL     1      43.444 -19.271   2.534  1.00  0.00     0.016 A 
BRANCH  30  33
HETATM   33  O   UNL     1      45.571 -21.315   4.794  1.00  0.00    -0.356 OA
HETATM   34  C   UNL     1      45.051 -22.600   5.108  1.00  0.00     0.210 C 
ENDBRANCH  30  33
ENDBRANCH  25  27
ENDBRANCH   2  21
TORSDOF 8
ENDMDL
MODEL 10
REMARK VINA RESULT:      -7.6      8.083     11.888
REMARK  8 active torsions:
REMARK  status: ('A' for Active; 'I' for Inactive)
REMARK    1  A    between atoms: N_4  and  C_5 
REMARK    2  A    between atoms: C_5  and  C_6 
REMARK    3  A    between atoms: C_11  and  C_12 
REMARK    4  A    between atoms: C_12  and  C_13 
REMARK       I    between atoms: C_13  and  N_14 
REMARK    5  A    between atoms: N_14  and  N_15 
REMARK       I    between atoms: N_15  and  C_16 
REMARK    6  A    between atoms: C_16  and  C_17 
REMARK    7  A    between atoms: C_21  and  C_22 
REMARK    8  A    between atoms: C_25  and  O_26 
ROOT
HETATM    1  N   UNL     1      42.103 -15.881   0.013  1.00  0.00    -0.262 N 
HETATM    2  C   UNL     1      41.281 -14.796   0.226  1.00  0.00     0.288 C 
HETATM    3  O   UNL     1      40.443 -14.786   1.126  1.00  0.00    -0.264 OA
HETATM    4  H   UNL     1      42.800 -15.935  -0.724  1.00  0.00     0.190 HD
ENDROOT
BRANCH   1   5
HETATM    5  N   UNL     1      41.928 -17.026   0.793  1.00  0.00    -0.267 N 
HETATM    6  C   UNL     1      43.046 -17.694   1.246  1.00  0.00     0.240 C 
HETATM    7  O   UNL     1      44.189 -17.294   1.019  1.00  0.00    -0.272 OA
HETATM    8  H   UNL     1      40.970 -17.316   0.980  1.00  0.00     0.190 HD
BRANCH   6   9
HETATM    9  C   UNL     1      42.747 -18.977   1.994  1.00  0.00     0.147 C 
BRANCH   9  10
HETATM   10  C   UNL     1      43.571 -19.124   3.229  1.00  0.00     0.001 A 
HETATM   11  C   UNL     1      44.427 -20.201   3.585  1.00  0.00     0.059 A 
HETATM   12  C   UNL     1      44.697 -21.461   2.847  1.00  0.00     0.073 C 
HETATM   13  N   UNL     1      45.033 -19.984   4.752  1.00  0.00    -0.177 NA
HETATM   14  N   UNL     1      44.617 -18.764   5.134  1.00  0.00    -0.273 N 
HETATM   15  C   UNL     1      43.697 -18.217   4.272  1.00  0.00     0.035 A 
HETATM   16  C   UNL     1      43.048 -16.894   4.470  1.00  0.00     0.070 C 
BRANCH  14  17
HETATM   17  C   UNL     1      45.186 -18.197   6.345  1.00  0.00     0.155 C 
BRANCH  17  18
HETATM   18  C   UNL     1      44.390 -18.545   7.616  1.00  0.00    -0.003 C 
HETATM   19  C   UNL     1      43.382 -17.453   7.979  1.00  0.00     0.011 C 
HETATM   20  C   UNL     1      43.664 -19.878   7.425  1.00  0.00     0.011 C 
ENDBRANCH  17  18
ENDBRANCH  14  17
ENDBRANCH   9  10
ENDBRANCH   6   9
ENDBRANCH   1   5
BRANCH   2  21
HETATM   21  C   UNL     1      41.465 -13.693  -0.675  1.00  0.00     0.121 A 
HETATM   22  N   UNL     1      42.142 -12.566  -0.304  1.00  0.00    -0.272 N 
HETATM   23  H   UNL     1      42.576 -12.384   0.595  1.00  0.00     0.189 HD
HETATM   24  N   UNL     1      42.217 -11.630  -1.260  1.00  0.00    -0.174 NA
HETATM   25  C   UNL     1      41.553 -12.151  -2.305  1.00  0.00     0.089 A 
HETATM   26  C   UNL     1      41.073 -13.452  -1.977  1.00  0.00     0.071 A 
BRANCH  25  27
HETATM   27  C   UNL     1      41.396 -11.413  -3.565  1.00  0.00    -0.005 A 
HETATM   28  C   UNL     1      40.126 -11.235  -4.131  1.00  0.00     0.016 A 
HETATM   29  C   UNL     1      39.967 -10.529  -5.327  1.00  0.00     0.037 A 
HETATM   30  C   UNL     1      41.071  -9.984  -5.985  1.00  0.00     0.068 A 
HETATM   31  C   UNL     1      42.340 -10.163  -5.437  1.00  0.00     0.037 A 
HETATM   32  C   UNL     1      42.500 -10.872  -4.237  1.00  0.00     0.016 A 
BRANCH  30  33
HETATM   33  O   UNL     1      40.779  -9.314  -7.139  1.00  0.00    -0.356 OA
HETATM   34  C   UNL     1      40.365 -10.100  -8.250  1.00  0.00     0.210 C 
ENDBRANCH  30  33
ENDBRANCH  25  27
ENDBRANCH   2  21
TORSDOF 8
ENDMDL
