MODEL 1
REMARK VINA RESULT:      -8.4      0.000      0.000
REMARK  7 active torsions:
REMARK  status: ('A' for Active; 'I' for Inactive)
REMARK    1  A    between atoms: C_2  and  N_3 
REMARK       I    between atoms: N_3  and  C_4 
REMARK    2  A    between atoms: N_3  and  C_21 
REMARK    3  A    between atoms: C_4  and  C_5 
REMARK    4  A    between atoms: C_14  and  O_15 
REMARK    5  A    between atoms: C_21  and  C_22 
REMARK       I    between atoms: C_22  and  N_23 
REMARK    6  A    between atoms: N_23  and  C_24 
REMARK    7  A    between atoms: C_27  and  N_28 
REMARK       I    between atoms: N_28  and  C_29 
ROOT
HETATM    1  N   UNL     1      39.729 -12.647   1.900  1.00  0.00    -0.339 N 
HETATM    2  C   UNL     1      39.808 -12.392   3.285  1.00  0.00     0.261 C 
HETATM    3  O   UNL     1      38.933 -11.676   3.785  1.00  0.00    -0.267 OA
ENDROOT
BRANCH   1   4
HETATM    4  C   UNL     1      38.495 -12.240   1.213  1.00  0.00     0.122 C 
HETATM    5  C   UNL     1      37.601 -13.423   0.861  1.00  0.00     0.026 C 
ENDBRANCH   1   4
BRANCH   1   6
HETATM    6  C   UNL     1      40.886 -12.908   1.034  1.00  0.00     0.229 C 
BRANCH   6   7
HETATM    7  C   UNL     1      41.154 -14.394   0.745  1.00  0.00     0.240 C 
HETATM    8  N   UNL     1      41.863 -15.028   1.748  1.00  0.00    -0.326 N 
HETATM    9  H   UNL     1      42.050 -14.462   2.568  1.00  0.00     0.169 HD
HETATM   10  O   UNL     1      40.835 -14.876  -0.338  1.00  0.00    -0.271 OA
BRANCH   8  11
HETATM   11  C   UNL     1      42.429 -16.315   1.731  1.00  0.00     0.034 A 
HETATM   12  C   UNL     1      43.799 -16.567   1.694  1.00  0.00     0.032 A 
HETATM   13  C   UNL     1      44.285 -17.883   1.713  1.00  0.00     0.032 A 
HETATM   14  C   UNL     1      43.410 -18.966   1.770  1.00  0.00     0.034 A 
HETATM   15  C   UNL     1      42.034 -18.712   1.798  1.00  0.00     0.032 A 
HETATM   16  C   UNL     1      41.549 -17.400   1.775  1.00  0.00     0.032 A 
BRANCH  14  17
HETATM   17  N   UNL     1      43.817 -20.315   1.808  1.00  0.00    -0.328 N 
HETATM   18  C   UNL     1      44.405 -20.987   2.865  1.00  0.00     0.218 C 
HETATM   19  C   UNL     1      44.699 -22.435   2.554  1.00  0.00     0.117 C 
HETATM   20  O   UNL     1      44.681 -20.527   3.968  1.00  0.00    -0.274 OA
HETATM   21  H   UNL     1      43.652 -20.848   0.964  1.00  0.00     0.169 HD
ENDBRANCH  14  17
ENDBRANCH   8  11
ENDBRANCH   6   7
ENDBRANCH   1   6
BRANCH   2  22
HETATM   22  C   UNL     1      40.815 -13.060   4.127  1.00  0.00     0.074 A 
HETATM   23  S   UNL     1      40.507 -14.729   4.492  1.00  0.00    -0.084 SA
HETATM   24  C   UNL     1      42.009 -14.949   5.240  1.00  0.00     0.023 A 
HETATM   25  C   UNL     1      42.723 -13.773   5.308  1.00  0.00    -0.038 A 
HETATM   26  C   UNL     1      42.505 -16.226   5.765  1.00  0.00    -0.012 A 
HETATM   27  C   UNL     1      44.089 -13.739   5.926  1.00  0.00     0.044 C 
HETATM   28  C   UNL     1      42.032 -12.690   4.676  1.00  0.00     0.033 A 
HETATM   29  C   UNL     1      44.270 -14.852   6.977  1.00  0.00     0.044 C 
HETATM   30  C   UNL     1      43.659 -16.186   6.581  1.00  0.00    -0.044 A 
HETATM   31  C   UNL     1      44.184 -17.380   7.099  1.00  0.00     0.044 A 
HETATM   32  C   UNL     1      43.590 -18.611   6.805  1.00  0.00     0.068 A 
HETATM   33  C   UNL     1      42.465 -18.649   5.983  1.00  0.00     0.037 A 
HETATM   34  C   UNL     1      41.925 -17.465   5.468  1.00  0.00     0.016 A 
BRANCH  32  35
HETATM   35  O   UNL     1      44.202 -19.693   7.375  1.00  0.00    -0.356 OA
HETATM   36  C   UNL     1      43.510 -20.934   7.294  1.00  0.00     0.210 C 
ENDBRANCH  32  35
ENDBRANCH   2  22
TORSDOF 7
ENDMDL
MODEL 2
REMARK VINA RESULT:      -8.3      3.975      7.166
REMARK  7 active torsions:
REMARK  status: ('A' for Active; 'I' for Inactive)
REMARK    1  A    between atoms: C_2  and  N_3 
REMARK       I    between atoms: N_3  and  C_4 
REMARK    2  A    between atoms: N_3  and  C_21 
REMARK    3  A    between atoms: C_4  and  C_5 
REMARK    4  A    between atoms: C_14  and  O_15 
REMARK    5  A    between atoms: C_21  and  C_22 
REMARK       I    between atoms: C_22  and  N_23 
REMARK    6  A    between atoms: N_23  and  C_24 
REMARK    7  A    between atoms: C_27  and  N_28 
REMARK       I    between atoms: N_28  and  C_29 
ROOT
HETATM    1  N   UNL     1      40.870 -12.177   3.318  1.00  0.00    -0.339 N 
HETATM    2  C   UNL     1      41.927 -12.962   2.812  1.00  0.00     0.261 C 
HETATM    3  O   UNL     1      42.507 -12.555   1.800  1.00  0.00    -0.267 OA
ENDROOT
BRANCH   1   4
HETATM    4  C   UNL     1      40.698 -10.834   2.744  1.00  0.00     0.122 C 
HETATM    5  C   UNL     1      39.244 -10.518   2.414  1.00  0.00     0.026 C 
ENDBRANCH   1   4
BRANCH   1   6
HETATM    6  C   UNL     1      39.715 -12.709   4.054  1.00  0.00     0.229 C 
BRANCH   6   7
HETATM    7  C   UNL     1      39.865 -12.697   5.584  1.00  0.00     0.240 C 
HETATM    8  N   UNL     1      40.065 -11.432   6.105  1.00  0.00    -0.326 N 
HETATM    9  H   UNL     1      40.015 -10.675   5.432  1.00  0.00     0.169 HD
HETATM   10  O   UNL     1      39.900 -13.754   6.205  1.00  0.00    -0.271 OA
BRANCH   8  11
HETATM   11  C   UNL     1      40.417 -11.081   7.421  1.00  0.00     0.034 A 
HETATM   12  C   UNL     1      39.566 -11.201   8.517  1.00  0.00     0.032 A 
HETATM   13  C   UNL     1      40.006 -10.859   9.804  1.00  0.00     0.032 A 
HETATM   14  C   UNL     1      41.303 -10.394  10.016  1.00  0.00     0.034 A 
HETATM   15  C   UNL     1      42.154 -10.266   8.912  1.00  0.00     0.032 A 
HETATM   16  C   UNL     1      41.714 -10.602   7.627  1.00  0.00     0.032 A 
BRANCH  14  17
HETATM   17  N   UNL     1      41.826 -10.046  11.278  1.00  0.00    -0.328 N 
HETATM   18  C   UNL     1      42.758 -10.744  12.024  1.00  0.00     0.218 C 
HETATM   19  C   UNL     1      43.097 -10.066  13.330  1.00  0.00     0.117 C 
HETATM   20  O   UNL     1      43.300 -11.801  11.722  1.00  0.00    -0.274 OA
HETATM   21  H   UNL     1      41.480  -9.180  11.672  1.00  0.00     0.169 HD
ENDBRANCH  14  17
ENDBRANCH   8  11
ENDBRANCH   6   7
ENDBRANCH   1   6
BRANCH   2  22
HETATM   22  C   UNL     1      42.409 -14.149   3.537  1.00  0.00     0.074 A 
HETATM   23  S   UNL     1      42.398 -15.637   2.643  1.00  0.00    -0.084 SA
HETATM   24  C   UNL     1      43.202 -16.494   3.861  1.00  0.00     0.023 A 
HETATM   25  C   UNL     1      43.412 -15.717   4.979  1.00  0.00    -0.038 A 
HETATM   26  C   UNL     1      43.625 -17.895   3.761  1.00  0.00    -0.012 A 
HETATM   27  C   UNL     1      44.117 -16.275   6.179  1.00  0.00     0.044 C 
HETATM   28  C   UNL     1      42.949 -14.375   4.793  1.00  0.00     0.033 A 
HETATM   29  C   UNL     1      43.953 -17.804   6.282  1.00  0.00     0.044 C 
HETATM   30  C   UNL     1      44.051 -18.530   4.950  1.00  0.00    -0.044 A 
HETATM   31  C   UNL     1      44.478 -19.866   4.909  1.00  0.00     0.044 A 
HETATM   32  C   UNL     1      44.504 -20.573   3.704  1.00  0.00     0.068 A 
HETATM   33  C   UNL     1      44.104 -19.938   2.529  1.00  0.00     0.037 A 
HETATM   34  C   UNL     1      43.666 -18.610   2.557  1.00  0.00     0.016 A 
BRANCH  32  35
HETATM   35  O   UNL     1      44.941 -21.865   3.806  1.00  0.00    -0.356 OA
HETATM   36  C   UNL     1      45.045 -22.402   5.120  1.00  0.00     0.210 C 
ENDBRANCH  32  35
ENDBRANCH   2  22
TORSDOF 7
ENDMDL
MODEL 3
REMARK VINA RESULT:      -8.2      5.380      8.704
REMARK  7 active torsions:
REMARK  status: ('A' for Active; 'I' for Inactive)
REMARK    1  A    between atoms: C_2  and  N_3 
REMARK       I    between atoms: N_3  and  C_4 
REMARK    2  A    between atoms: N_3  and  C_21 
REMARK    3  A    between atoms: C_4  and  C_5 
REMARK    4  A    between atoms: C_14  and  O_15 
REMARK    5  A    between atoms: C_21  and  C_22 
REMARK       I    between atoms: C_22  and  N_23 
REMARK    6  A    between atoms: N_23  and  C_24 
REMARK    7  A    between atoms: C_27  and  N_28 
REMARK       I    between atoms: N_28  and  C_29 
ROOT
HETATM    1  N   UNL     1      40.739 -11.557   5.362  1.00  0.00    -0.339 N 
HETATM    2  C   UNL     1      41.447 -12.353   4.438  1.00  0.00     0.261 C 
HETATM    3  O   UNL     1      41.585 -11.913   3.292  1.00  0.00    -0.267 OA
ENDROOT
BRANCH   1   4
HETATM    4  C   UNL     1      40.427 -10.179   4.958  1.00  0.00     0.122 C 
HETATM    5  C   UNL     1      41.539  -9.198   5.311  1.00  0.00     0.026 C 
ENDBRANCH   1   4
BRANCH   1   6
HETATM    6  C   UNL     1      39.958 -12.084   6.489  1.00  0.00     0.229 C 
BRANCH   6   7
HETATM    7  C   UNL     1      39.815 -11.122   7.680  1.00  0.00     0.240 C 
HETATM    8  N   UNL     1      40.878 -11.180   8.561  1.00  0.00    -0.326 N 
HETATM    9  H   UNL     1      41.641 -11.785   8.279  1.00  0.00     0.169 HD
HETATM   10  O   UNL     1      38.782 -10.475   7.826  1.00  0.00    -0.271 OA
BRANCH   8  11
HETATM   11  C   UNL     1      40.988 -10.583   9.830  1.00  0.00     0.034 A 
HETATM   12  C   UNL     1      41.649  -9.381  10.074  1.00  0.00     0.032 A 
HETATM   13  C   UNL     1      41.685  -8.834  11.365  1.00  0.00     0.032 A 
HETATM   14  C   UNL     1      41.059  -9.479  12.432  1.00  0.00     0.034 A 
HETATM   15  C   UNL     1      40.403 -10.690  12.187  1.00  0.00     0.032 A 
HETATM   16  C   UNL     1      40.371 -11.239  10.899  1.00  0.00     0.032 A 
BRANCH  14  17
HETATM   17  N   UNL     1      41.036  -8.989  13.753  1.00  0.00    -0.328 N 
HETATM   18  C   UNL     1      42.080  -8.965  14.660  1.00  0.00     0.218 C 
HETATM   19  C   UNL     1      41.696  -8.353  15.986  1.00  0.00     0.117 C 
HETATM   20  O   UNL     1      43.223  -9.369  14.478  1.00  0.00    -0.274 OA
HETATM   21  H   UNL     1      40.152  -8.606  14.064  1.00  0.00     0.169 HD
ENDBRANCH  14  17
ENDBRANCH   8  11
ENDBRANCH   6   7
ENDBRANCH   1   6
BRANCH   2  22
HETATM   22  C   UNL     1      42.112 -13.598   4.858  1.00  0.00     0.074 A 
HETATM   23  S   UNL     1      41.919 -14.955   3.793  1.00  0.00    -0.084 SA
HETATM   24  C   UNL     1      43.008 -15.920   4.657  1.00  0.00     0.023 A 
HETATM   25  C   UNL     1      43.463 -15.286   5.793  1.00  0.00    -0.038 A 
HETATM   26  C   UNL     1      43.423 -17.272   4.267  1.00  0.00    -0.012 A 
HETATM   27  C   UNL     1      44.445 -15.957   6.705  1.00  0.00     0.044 C 
HETATM   28  C   UNL     1      42.942 -13.957   5.909  1.00  0.00     0.033 A 
HETATM   29  C   UNL     1      44.341 -17.493   6.629  1.00  0.00     0.044 C 
HETATM   30  C   UNL     1      44.133 -18.033   5.223  1.00  0.00    -0.044 A 
HETATM   31  C   UNL     1      44.565 -19.328   4.899  1.00  0.00     0.044 A 
HETATM   32  C   UNL     1      44.317 -19.869   3.634  1.00  0.00     0.068 A 
HETATM   33  C   UNL     1      43.635 -19.108   2.686  1.00  0.00     0.037 A 
HETATM   34  C   UNL     1      43.189 -17.820   3.000  1.00  0.00     0.016 A 
BRANCH  32  35
HETATM   35  O   UNL     1      44.792 -21.139   3.450  1.00  0.00    -0.356 OA
HETATM   36  C   UNL     1      44.384 -21.807   2.263  1.00  0.00     0.210 C 
ENDBRANCH  32  35
ENDBRANCH   2  22
TORSDOF 7
ENDMDL
MODEL 4
REMARK VINA RESULT:      -8.2      5.103      6.212
REMARK  7 active torsions:
REMARK  status: ('A' for Active; 'I' for Inactive)
REMARK    1  A    between atoms: C_2  and  N_3 
REMARK       I    between atoms: N_3  and  C_4 
REMARK    2  A    between atoms: N_3  and  C_21 
REMARK    3  A    between atoms: C_4  and  C_5 
REMARK    4  A    between atoms: C_14  and  O_15 
REMARK    5  A    between atoms: C_21  and  C_22 
REMARK       I    between atoms: C_22  and  N_23 
REMARK    6  A    between atoms: N_23  and  C_24 
REMARK    7  A    between atoms: C_27  and  N_28 
REMARK       I    between atoms: N_28  and  C_29 
ROOT
HETATM    1  N   UNL     1      40.508 -12.162   5.331  1.00  0.00    -0.339 N 
HETATM    2  C   UNL     1      40.167 -11.240   6.343  1.00  0.00     0.261 C 
HETATM    3  O   UNL     1      39.044 -10.727   6.293  1.00  0.00    -0.267 OA
ENDROOT
BRANCH   1   4
HETATM    4  C   UNL     1      39.428 -12.610   4.441  1.00  0.00     0.122 C 
HETATM    5  C   UNL     1      39.590 -12.097   3.016  1.00  0.00     0.026 C 
ENDBRANCH   1   4
BRANCH   1   6
HETATM    6  C   UNL     1      41.874 -12.399   4.846  1.00  0.00     0.229 C 
BRANCH   6   7
HETATM    7  C   UNL     1      42.336 -13.864   4.909  1.00  0.00     0.240 C 
HETATM    8  N   UNL     1      42.497 -14.441   3.663  1.00  0.00    -0.326 N 
HETATM    9  H   UNL     1      42.364 -13.815   2.877  1.00  0.00     0.169 HD
HETATM   10  O   UNL     1      42.428 -14.433   5.992  1.00  0.00    -0.271 OA
BRANCH   8  11
HETATM   11  C   UNL     1      42.727 -15.794   3.356  1.00  0.00     0.034 A 
HETATM   12  C   UNL     1      42.112 -16.861   4.008  1.00  0.00     0.032 A 
HETATM   13  C   UNL     1      42.371 -18.183   3.620  1.00  0.00     0.032 A 
HETATM   14  C   UNL     1      43.248 -18.460   2.571  1.00  0.00     0.034 A 
HETATM   15  C   UNL     1      43.871 -17.388   1.922  1.00  0.00     0.032 A 
HETATM   16  C   UNL     1      43.616 -16.069   2.313  1.00  0.00     0.032 A 
BRANCH  14  17
HETATM   17  N   UNL     1      43.549 -19.757   2.109  1.00  0.00    -0.328 N 
HETATM   18  C   UNL     1      44.383 -20.688   2.702  1.00  0.00     0.218 C 
HETATM   19  C   UNL     1      44.462 -21.985   1.932  1.00  0.00     0.117 C 
HETATM   20  O   UNL     1      45.016 -20.552   3.743  1.00  0.00    -0.274 OA
HETATM   21  H   UNL     1      43.094 -20.034   1.249  1.00  0.00     0.169 HD
ENDBRANCH  14  17
ENDBRANCH   8  11
ENDBRANCH   6   7
ENDBRANCH   1   6
BRANCH   2  22
HETATM   22  C   UNL     1      41.061 -11.001   7.488  1.00  0.00     0.074 A 
HETATM   23  S   UNL     1      40.283 -10.541   8.970  1.00  0.00    -0.084 SA
HETATM   24  C   UNL     1      41.716 -10.623   9.868  1.00  0.00     0.023 A 
HETATM   25  C   UNL     1      42.803 -10.905   9.070  1.00  0.00    -0.038 A 
HETATM   26  C   UNL     1      41.812 -10.414  11.317  1.00  0.00    -0.012 A 
HETATM   27  C   UNL     1      44.176 -11.032   9.660  1.00  0.00     0.044 C 
HETATM   28  C   UNL     1      42.425 -11.114   7.705  1.00  0.00     0.033 A 
HETATM   29  C   UNL     1      44.321 -10.210  10.955  1.00  0.00     0.044 C 
HETATM   30  C   UNL     1      43.105 -10.265  11.866  1.00  0.00    -0.044 A 
HETATM   31  C   UNL     1      43.255 -10.075  13.248  1.00  0.00     0.044 A 
HETATM   32  C   UNL     1      42.141 -10.049  14.092  1.00  0.00     0.068 A 
HETATM   33  C   UNL     1      40.868 -10.217  13.551  1.00  0.00     0.037 A 
HETATM   34  C   UNL     1      40.704 -10.396  12.173  1.00  0.00     0.016 A 
BRANCH  32  35
HETATM   35  O   UNL     1      42.429  -9.855  15.416  1.00  0.00    -0.356 OA
HETATM   36  C   UNL     1      41.371  -9.375  16.236  1.00  0.00     0.210 C 
ENDBRANCH  32  35
ENDBRANCH   2  22
TORSDOF 7
ENDMDL
MODEL 5
REMARK VINA RESULT:      -8.0      3.030      6.294
REMARK  7 active torsions:
REMARK  status: ('A' for Active; 'I' for Inactive)
REMARK    1  A    between atoms: C_2  and  N_3 
REMARK       I    between atoms: N_3  and  C_4 
REMARK    2  A    between atoms: N_3  and  C_21 
REMARK    3  A    between atoms: C_4  and  C_5 
REMARK    4  A    between atoms: C_14  and  O_15 
REMARK    5  A    between atoms: C_21  and  C_22 
REMARK       I    between atoms: C_22  and  N_23 
REMARK    6  A    between atoms: N_23  and  C_24 
REMARK    7  A    between atoms: C_27  and  N_28 
REMARK       I    between atoms: N_28  and  C_29 
ROOT
HETATM    1  N   UNL     1      39.584 -13.404   0.643  1.00  0.00    -0.339 N 
HETATM    2  C   UNL     1      38.990 -14.399   1.447  1.00  0.00     0.261 C 
HETATM    3  O   UNL     1      37.807 -14.682   1.226  1.00  0.00    -0.267 OA
ENDROOT
BRANCH   1   4
HETATM    4  C   UNL     1      38.828 -12.954  -0.534  1.00  0.00     0.122 C 
HETATM    5  C   UNL     1      39.186 -13.732  -1.795  1.00  0.00     0.026 C 
ENDBRANCH   1   4
BRANCH   1   6
HETATM    6  C   UNL     1      40.669 -12.517   1.082  1.00  0.00     0.229 C 
BRANCH   6   7
HETATM    7  C   UNL     1      40.379 -11.729   2.370  1.00  0.00     0.240 C 
HETATM    8  N   UNL     1      41.467 -11.647   3.219  1.00  0.00    -0.326 N 
HETATM    9  H   UNL     1      42.326 -12.046   2.859  1.00  0.00     0.169 HD
HETATM   10  O   UNL     1      39.241 -11.334   2.604  1.00  0.00    -0.271 OA
BRANCH   8  11
HETATM   11  C   UNL     1      41.503 -11.168   4.540  1.00  0.00     0.034 A 
HETATM   12  C   UNL     1      41.407  -9.822   4.888  1.00  0.00     0.032 A 
HETATM   13  C   UNL     1      41.418  -9.428   6.233  1.00  0.00     0.032 A 
HETATM   14  C   UNL     1      41.522 -10.373   7.253  1.00  0.00     0.034 A 
HETATM   15  C   UNL     1      41.626 -11.724   6.903  1.00  0.00     0.032 A 
HETATM   16  C   UNL     1      41.621 -12.117   5.560  1.00  0.00     0.032 A 
BRANCH  14  17
HETATM   17  N   UNL     1      41.523 -10.061   8.628  1.00  0.00    -0.328 N 
HETATM   18  C   UNL     1      42.584 -10.154   9.510  1.00  0.00     0.218 C 
HETATM   19  C   UNL     1      42.226  -9.724  10.913  1.00  0.00     0.117 C 
HETATM   20  O   UNL     1      43.724 -10.530   9.255  1.00  0.00    -0.274 OA
HETATM   21  H   UNL     1      40.645  -9.724   9.003  1.00  0.00     0.169 HD
ENDBRANCH  14  17
ENDBRANCH   8  11
ENDBRANCH   6   7
ENDBRANCH   1   6
BRANCH   2  22
HETATM   22  C   UNL     1      39.784 -15.166   2.421  1.00  0.00     0.074 A 
HETATM   23  S   UNL     1      40.601 -16.564   1.796  1.00  0.00    -0.084 SA
HETATM   24  C   UNL     1      41.437 -16.850   3.239  1.00  0.00     0.023 A 
HETATM   25  C   UNL     1      41.059 -15.970   4.230  1.00  0.00    -0.038 A 
HETATM   26  C   UNL     1      42.438 -17.904   3.435  1.00  0.00    -0.012 A 
HETATM   27  C   UNL     1      41.681 -16.037   5.593  1.00  0.00     0.044 C 
HETATM   28  C   UNL     1      40.106 -15.011   3.760  1.00  0.00     0.033 A 
HETATM   29  C   UNL     1      42.182 -17.456   5.926  1.00  0.00     0.044 C 
HETATM   30  C   UNL     1      42.850 -18.168   4.761  1.00  0.00    -0.044 A 
HETATM   31  C   UNL     1      43.814 -19.157   5.004  1.00  0.00     0.044 A 
HETATM   32  C   UNL     1      44.387 -19.874   3.950  1.00  0.00     0.068 A 
HETATM   33  C   UNL     1      43.994 -19.597   2.641  1.00  0.00     0.037 A 
HETATM   34  C   UNL     1      43.025 -18.621   2.386  1.00  0.00     0.016 A 
BRANCH  32  35
HETATM   35  O   UNL     1      45.312 -20.809   4.327  1.00  0.00    -0.356 OA
HETATM   36  C   UNL     1      44.847 -21.870   5.153  1.00  0.00     0.210 C 
ENDBRANCH  32  35
ENDBRANCH   2  22
TORSDOF 7
ENDMDL
MODEL 6
REMARK VINA RESULT:      -7.7      4.298      7.699
REMARK  7 active torsions:
REMARK  status: ('A' for Active; 'I' for Inactive)
REMARK    1  A    between atoms: C_2  and  N_3 
REMARK       I    between atoms: N_3  and  C_4 
REMARK    2  A    between atoms: N_3  and  C_21 
REMARK    3  A    between atoms: C_4  and  C_5 
REMARK    4  A    between atoms: C_14  and  O_15 
REMARK    5  A    between atoms: C_21  and  C_22 
REMARK       I    between atoms: C_22  and  N_23 
REMARK    6  A    between atoms: N_23  and  C_24 
REMARK    7  A    between atoms: C_27  and  N_28 
REMARK       I    between atoms: N_28  and  C_29 
ROOT
HETATM    1  N   UNL     1      40.583 -12.231   3.573  1.00  0.00    -0.339 N 
HETATM    2  C   UNL     1      40.146 -13.470   3.059  1.00  0.00     0.261 C 
HETATM    3  O   UNL     1      38.965 -13.556   2.704  1.00  0.00    -0.267 OA
ENDROOT
BRANCH   1   4
HETATM    4  C   UNL     1      39.673 -11.086   3.430  1.00  0.00     0.122 C 
HETATM    5  C   UNL     1      40.401  -9.800   3.058  1.00  0.00     0.026 C 
ENDBRANCH   1   4
BRANCH   1   6
HETATM    6  C   UNL     1      41.656 -12.073   4.564  1.00  0.00     0.229 C 
BRANCH   6   7
HETATM    7  C   UNL     1      41.176 -11.943   6.020  1.00  0.00     0.240 C 
HETATM    8  N   UNL     1      41.798 -10.922   6.712  1.00  0.00    -0.326 N 
HETATM    9  H   UNL     1      42.428 -10.348   6.162  1.00  0.00     0.169 HD
HETATM   10  O   UNL     1      40.395 -12.768   6.484  1.00  0.00    -0.271 OA
BRANCH   8  11
HETATM   11  C   UNL     1      41.735 -10.642   8.089  1.00  0.00     0.034 A 
HETATM   12  C   UNL     1      40.575 -10.260   8.758  1.00  0.00     0.032 A 
HETATM   13  C   UNL     1      40.589 -10.031  10.142  1.00  0.00     0.032 A 
HETATM   14  C   UNL     1      41.763 -10.184  10.879  1.00  0.00     0.034 A 
HETATM   15  C   UNL     1      42.930 -10.561  10.204  1.00  0.00     0.032 A 
HETATM   16  C   UNL     1      42.917 -10.784   8.823  1.00  0.00     0.032 A 
BRANCH  14  17
HETATM   17  N   UNL     1      41.858  -9.989  12.272  1.00  0.00    -0.328 N 
HETATM   18  C   UNL     1      41.290 -10.762  13.269  1.00  0.00     0.218 C 
HETATM   19  C   UNL     1      41.612 -10.262  14.657  1.00  0.00     0.117 C 
HETATM   20  O   UNL     1      40.596 -11.762  13.121  1.00  0.00    -0.274 OA
HETATM   21  H   UNL     1      42.411  -9.195  12.567  1.00  0.00     0.169 HD
ENDBRANCH  14  17
ENDBRANCH   8  11
ENDBRANCH   6   7
ENDBRANCH   1   6
BRANCH   2  22
HETATM   22  C   UNL     1      41.090 -14.575   2.828  1.00  0.00     0.074 A 
HETATM   23  S   UNL     1      41.563 -15.472   4.237  1.00  0.00    -0.084 SA
HETATM   24  C   UNL     1      42.409 -16.632   3.341  1.00  0.00     0.023 A 
HETATM   25  C   UNL     1      42.427 -16.327   1.997  1.00  0.00    -0.038 A 
HETATM   26  C   UNL     1      43.056 -17.821   3.907  1.00  0.00    -0.012 A 
HETATM   27  C   UNL     1      43.117 -17.226   1.016  1.00  0.00     0.044 C 
HETATM   28  C   UNL     1      41.677 -15.143   1.707  1.00  0.00     0.033 A 
HETATM   29  C   UNL     1      44.257 -18.027   1.674  1.00  0.00     0.044 C 
HETATM   30  C   UNL     1      43.930 -18.546   3.065  1.00  0.00    -0.044 A 
HETATM   31  C   UNL     1      44.566 -19.697   3.551  1.00  0.00     0.044 A 
HETATM   32  C   UNL     1      44.333 -20.148   4.854  1.00  0.00     0.068 A 
HETATM   33  C   UNL     1      43.455 -19.443   5.675  1.00  0.00     0.037 A 
HETATM   34  C   UNL     1      42.823 -18.287   5.206  1.00  0.00     0.016 A 
BRANCH  32  35
HETATM   35  O   UNL     1      45.018 -21.281   5.200  1.00  0.00    -0.356 OA
HETATM   36  C   UNL     1      44.673 -22.473   4.503  1.00  0.00     0.210 C 
ENDBRANCH  32  35
ENDBRANCH   2  22
TORSDOF 7
ENDMDL
MODEL 7
REMARK VINA RESULT:      -7.5      2.694      5.878
REMARK  7 active torsions:
REMARK  status: ('A' for Active; 'I' for Inactive)
REMARK    1  A    between atoms: C_2  and  N_3 
REMARK       I    between atoms: N_3  and  C_4 
REMARK    2  A    between atoms: N_3  and  C_21 
REMARK    3  A    between atoms: C_4  and  C_5 
REMARK    4  A    between atoms: C_14  and  O_15 
REMARK    5  A    between atoms: C_21  and  C_22 
REMARK       I    between atoms: C_22  and  N_23 
REMARK    6  A    between atoms: N_23  and  C_24 
REMARK    7  A    between atoms: C_27  and  N_28 
REMARK       I    between atoms: N_28  and  C_29 
ROOT
HETATM    1  N   UNL     1      41.764 -12.641   3.964  1.00  0.00    -0.339 N 
HETATM    2  C   UNL     1      42.109 -13.162   5.228  1.00  0.00     0.261 C 
HETATM    3  O   UNL     1      41.817 -12.489   6.223  1.00  0.00    -0.267 OA
ENDROOT
BRANCH   1   4
HETATM    4  C   UNL     1      40.886 -11.463   3.941  1.00  0.00     0.122 C 
HETATM    5  C   UNL     1      39.408 -11.830   3.991  1.00  0.00     0.026 C 
ENDBRANCH   1   4
BRANCH   1   6
HETATM    6  C   UNL     1      42.500 -12.913   2.722  1.00  0.00     0.229 C 
BRANCH   6   7
HETATM    7  C   UNL     1      41.697 -12.678   1.432  1.00  0.00     0.240 C 
HETATM    8  N   UNL     1      40.786 -13.681   1.163  1.00  0.00    -0.326 N 
HETATM    9  H   UNL     1      40.709 -14.397   1.877  1.00  0.00     0.169 HD
HETATM   10  O   UNL     1      41.968 -11.726   0.705  1.00  0.00    -0.271 OA
BRANCH   8  11
HETATM   11  C   UNL     1      40.029 -13.877  -0.006  1.00  0.00     0.034 A 
HETATM   12  C   UNL     1      40.557 -14.331  -1.213  1.00  0.00     0.032 A 
HETATM   13  C   UNL     1      39.728 -14.532  -2.326  1.00  0.00     0.032 A 
HETATM   14  C   UNL     1      38.358 -14.285  -2.249  1.00  0.00     0.034 A 
HETATM   15  C   UNL     1      37.830 -13.821  -1.039  1.00  0.00     0.032 A 
HETATM   16  C   UNL     1      38.658 -13.616   0.070  1.00  0.00     0.032 A 
BRANCH  14  17
HETATM   17  N   UNL     1      37.455 -14.477  -3.315  1.00  0.00    -0.328 N 
HETATM   18  C   UNL     1      36.834 -13.503  -4.076  1.00  0.00     0.218 C 
HETATM   19  C   UNL     1      35.936 -14.075  -5.147  1.00  0.00     0.117 C 
HETATM   20  O   UNL     1      36.956 -12.289  -3.961  1.00  0.00    -0.274 OA
HETATM   21  H   UNL     1      37.249 -15.440  -3.548  1.00  0.00     0.169 HD
ENDBRANCH  14  17
ENDBRANCH   8  11
ENDBRANCH   6   7
ENDBRANCH   1   6
BRANCH   2  22
HETATM   22  C   UNL     1      42.671 -14.516   5.367  1.00  0.00     0.074 A 
HETATM   23  S   UNL     1      42.327 -15.614   4.067  1.00  0.00    -0.084 SA
HETATM   24  C   UNL     1      43.349 -16.818   4.676  1.00  0.00     0.023 A 
HETATM   25  C   UNL     1      43.891 -16.461   5.891  1.00  0.00    -0.038 A 
HETATM   26  C   UNL     1      43.630 -18.095   4.010  1.00  0.00    -0.012 A 
HETATM   27  C   UNL     1      44.834 -17.379   6.609  1.00  0.00     0.044 C 
HETATM   28  C   UNL     1      43.494 -15.144   6.288  1.00  0.00     0.033 A 
HETATM   29  C   UNL     1      44.591 -18.855   6.239  1.00  0.00     0.044 C 
HETATM   30  C   UNL     1      44.296 -19.086   4.766  1.00  0.00    -0.044 A 
HETATM   31  C   UNL     1      44.601 -20.321   4.176  1.00  0.00     0.044 A 
HETATM   32  C   UNL     1      44.270 -20.578   2.842  1.00  0.00     0.068 A 
HETATM   33  C   UNL     1      43.632 -19.591   2.093  1.00  0.00     0.037 A 
HETATM   34  C   UNL     1      43.312 -18.359   2.673  1.00  0.00     0.016 A 
BRANCH  32  35
HETATM   35  O   UNL     1      44.623 -21.822   2.393  1.00  0.00    -0.356 OA
HETATM   36  C   UNL     1      44.718 -22.851   3.370  1.00  0.00     0.210 C 
ENDBRANCH  32  35
ENDBRANCH   2  22
TORSDOF 7
ENDMDL
MODEL 8
REMARK VINA RESULT:      -7.5      3.166      6.582
REMARK  7 active torsions:
REMARK  status: ('A' for Active; 'I' for Inactive)
REMARK    1  A    between atoms: C_2  and  N_3 
REMARK       I    between atoms: N_3  and  C_4 
REMARK    2  A    between atoms: N_3  and  C_21 
REMARK    3  A    between atoms: C_4  and  C_5 
REMARK    4  A    between atoms: C_14  and  O_15 
REMARK    5  A    between atoms: C_21  and  C_22 
REMARK       I    between atoms: C_22  and  N_23 
REMARK    6  A    between atoms: N_23  and  C_24 
REMARK    7  A    between atoms: C_27  and  N_28 
REMARK       I    between atoms: N_28  and  C_29 
ROOT
HETATM    1  N   UNL     1      40.304 -11.934   4.990  1.00  0.00    -0.339 N 
HETATM    2  C   UNL     1      40.244 -13.280   5.407  1.00  0.00     0.261 C 
HETATM    3  O   UNL     1      39.742 -13.515   6.511  1.00  0.00    -0.267 OA
ENDROOT
BRANCH   1   4
HETATM    4  C   UNL     1      39.560 -10.951   5.791  1.00  0.00     0.122 C 
HETATM    5  C   UNL     1      40.265  -9.603   5.870  1.00  0.00     0.026 C 
ENDBRANCH   1   4
BRANCH   1   6
HETATM    6  C   UNL     1      41.331 -11.383   4.097  1.00  0.00     0.229 C 
BRANCH   6   7
HETATM    7  C   UNL     1      40.951 -11.367   2.607  1.00  0.00     0.240 C 
HETATM    8  N   UNL     1      41.990 -11.731   1.773  1.00  0.00    -0.326 N 
HETATM    9  H   UNL     1      42.837 -12.030   2.243  1.00  0.00     0.169 HD
HETATM   10  O   UNL     1      39.847 -10.956   2.261  1.00  0.00    -0.271 OA
BRANCH   8  11
HETATM   11  C   UNL     1      42.046 -11.651   0.369  1.00  0.00     0.034 A 
HETATM   12  C   UNL     1      41.522 -12.612  -0.491  1.00  0.00     0.032 A 
HETATM   13  C   UNL     1      41.590 -12.441  -1.882  1.00  0.00     0.032 A 
HETATM   14  C   UNL     1      42.180 -11.304  -2.433  1.00  0.00     0.034 A 
HETATM   15  C   UNL     1      42.714 -10.342  -1.567  1.00  0.00     0.032 A 
HETATM   16  C   UNL     1      42.651 -10.516  -0.180  1.00  0.00     0.032 A 
BRANCH  14  17
HETATM   17  N   UNL     1      42.273 -11.049  -3.816  1.00  0.00    -0.328 N 
HETATM   18  C   UNL     1      41.557 -10.122  -4.551  1.00  0.00     0.218 C 
HETATM   19  C   UNL     1      41.927 -10.115  -6.015  1.00  0.00     0.117 C 
HETATM   20  O   UNL     1      40.703  -9.349  -4.129  1.00  0.00    -0.274 OA
HETATM   21  H   UNL     1      42.949 -11.608  -4.321  1.00  0.00     0.169 HD
ENDBRANCH  14  17
ENDBRANCH   8  11
ENDBRANCH   6   7
ENDBRANCH   1   6
BRANCH   2  22
HETATM   22  C   UNL     1      40.640 -14.374   4.505  1.00  0.00     0.074 A 
HETATM   23  S   UNL     1      42.019 -15.303   5.004  1.00  0.00    -0.084 SA
HETATM   24  C   UNL     1      41.835 -16.437   3.761  1.00  0.00     0.023 A 
HETATM   25  C   UNL     1      40.807 -16.098   2.909  1.00  0.00    -0.038 A 
HETATM   26  C   UNL     1      42.664 -17.636   3.589  1.00  0.00    -0.012 A 
HETATM   27  C   UNL     1      40.462 -16.969   1.738  1.00  0.00     0.044 C 
HETATM   28  C   UNL     1      40.129 -14.911   3.334  1.00  0.00     0.033 A 
HETATM   29  C   UNL     1      41.678 -17.780   1.249  1.00  0.00     0.044 C 
HETATM   30  C   UNL     1      42.546 -18.335   2.366  1.00  0.00    -0.044 A 
HETATM   31  C   UNL     1      43.306 -19.495   2.154  1.00  0.00     0.044 A 
HETATM   32  C   UNL     1      44.166 -19.979   3.144  1.00  0.00     0.068 A 
HETATM   33  C   UNL     1      44.264 -19.299   4.357  1.00  0.00     0.037 A 
HETATM   34  C   UNL     1      43.520 -18.135   4.578  1.00  0.00     0.016 A 
BRANCH  32  35
HETATM   35  O   UNL     1      44.847 -21.116   2.807  1.00  0.00    -0.356 OA
HETATM   36  C   UNL     1      44.286 -21.912   1.769  1.00  0.00     0.210 C 
ENDBRANCH  32  35
ENDBRANCH   2  22
TORSDOF 7
ENDMDL
MODEL 9
REMARK VINA RESULT:      -7.5      3.297      6.467
REMARK  7 active torsions:
REMARK  status: ('A' for Active; 'I' for Inactive)
REMARK    1  A    between atoms: C_2  and  N_3 
REMARK       I    between atoms: N_3  and  C_4 
REMARK    2  A    between atoms: N_3  and  C_21 
REMARK    3  A    between atoms: C_4  and  C_5 
REMARK    4  A    between atoms: C_14  and  O_15 
REMARK    5  A    between atoms: C_21  and  C_22 
REMARK       I    between atoms: C_22  and  N_23 
REMARK    6  A    between atoms: N_23  and  C_24 
REMARK    7  A    between atoms: C_27  and  N_28 
REMARK       I    between atoms: N_28  and  C_29 
ROOT
HETATM    1  N   UNL     1      40.649 -12.756   4.030  1.00  0.00    -0.339 N 
HETATM    2  C   UNL     1      40.634 -13.578   5.177  1.00  0.00     0.261 C 
HETATM    3  O   UNL     1      39.781 -13.340   6.039  1.00  0.00    -0.267 OA
ENDROOT
BRANCH   1   4
HETATM    4  C   UNL     1      39.512 -11.842   3.846  1.00  0.00     0.122 C 
HETATM    5  C   UNL     1      39.892 -10.382   4.057  1.00  0.00     0.026 C 
ENDBRANCH   1   4
BRANCH   1   6
HETATM    6  C   UNL     1      41.849 -12.450   3.240  1.00  0.00     0.229 C 
BRANCH   6   7
HETATM    7  C   UNL     1      41.705 -12.693   1.729  1.00  0.00     0.240 C 
HETATM    8  N   UNL     1      42.126 -11.625   0.960  1.00  0.00    -0.326 N 
HETATM    9  H   UNL     1      42.538 -10.856   1.477  1.00  0.00     0.169 HD
HETATM   10  O   UNL     1      41.163 -13.715   1.321  1.00  0.00    -0.271 OA
BRANCH   8  11
HETATM   11  C   UNL     1      41.969 -11.437  -0.425  1.00  0.00     0.034 A 
HETATM   12  C   UNL     1      42.906 -11.825  -1.379  1.00  0.00     0.032 A 
HETATM   13  C   UNL     1      42.659 -11.631  -2.746  1.00  0.00     0.032 A 
HETATM   14  C   UNL     1      41.469 -11.048  -3.180  1.00  0.00     0.034 A 
HETATM   15  C   UNL     1      40.531 -10.650  -2.221  1.00  0.00     0.032 A 
HETATM   16  C   UNL     1      40.781 -10.839  -0.857  1.00  0.00     0.032 A 
BRANCH  14  17
HETATM   17  N   UNL     1      41.138 -10.833  -4.534  1.00  0.00    -0.328 N 
HETATM   18  C   UNL     1      41.668  -9.885  -5.389  1.00  0.00     0.218 C 
HETATM   19  C   UNL     1      41.083  -9.951  -6.780  1.00  0.00     0.117 C 
HETATM   20  O   UNL     1      42.529  -9.053  -5.124  1.00  0.00    -0.274 OA
HETATM   21  H   UNL     1      40.435 -11.452  -4.917  1.00  0.00     0.169 HD
ENDBRANCH  14  17
ENDBRANCH   8  11
ENDBRANCH   6   7
ENDBRANCH   1   6
BRANCH   2  22
HETATM   22  C   UNL     1      41.511 -14.755   5.281  1.00  0.00     0.074 A 
HETATM   23  S   UNL     1      41.269 -15.986   4.081  1.00  0.00    -0.084 SA
HETATM   24  C   UNL     1      42.614 -16.883   4.581  1.00  0.00     0.023 A 
HETATM   25  C   UNL     1      43.209 -16.333   5.695  1.00  0.00    -0.038 A 
HETATM   26  C   UNL     1      43.099 -18.104   3.927  1.00  0.00    -0.012 A 
HETATM   27  C   UNL     1      44.426 -16.963   6.305  1.00  0.00     0.044 C 
HETATM   28  C   UNL     1      42.570 -15.118   6.099  1.00  0.00     0.033 A 
HETATM   29  C   UNL     1      44.490 -18.477   6.024  1.00  0.00     0.044 C 
HETATM   30  C   UNL     1      44.070 -18.866   4.615  1.00  0.00    -0.044 A 
HETATM   31  C   UNL     1      44.578 -20.035   4.030  1.00  0.00     0.044 A 
HETATM   32  C   UNL     1      44.148 -20.448   2.766  1.00  0.00     0.068 A 
HETATM   33  C   UNL     1      43.206 -19.683   2.080  1.00  0.00     0.037 A 
HETATM   34  C   UNL     1      42.683 -18.521   2.657  1.00  0.00     0.016 A 
BRANCH  32  35
HETATM   35  O   UNL     1      44.722 -21.605   2.314  1.00  0.00    -0.356 OA
HETATM   36  C   UNL     1      44.740 -22.704   3.217  1.00  0.00     0.210 C 
ENDBRANCH  32  35
ENDBRANCH   2  22
TORSDOF 7
ENDMDL
MODEL 10
REMARK VINA RESULT:      -7.4      5.318      6.538
REMARK  7 active torsions:
REMARK  status: ('A' for Active; 'I' for Inactive)
REMARK    1  A    between atoms: C_2  and  N_3 
REMARK       I    between atoms: N_3  and  C_4 
REMARK    2  A    between atoms: N_3  and  C_21 
REMARK    3  A    between atoms: C_4  and  C_5 
REMARK    4  A    between atoms: C_14  and  O_15 
REMARK    5  A    between atoms: C_21  and  C_22 
REMARK       I    between atoms: C_22  and  N_23 
REMARK    6  A    between atoms: N_23  and  C_24 
REMARK    7  A    between atoms: C_27  and  N_28 
REMARK       I    between atoms: N_28  and  C_29 
ROOT
HETATM    1  N   UNL     1      40.245 -11.311   4.869  1.00  0.00    -0.339 N 
HETATM    2  C   UNL     1      40.843 -10.287   5.633  1.00  0.00     0.261 C 
HETATM    3  O   UNL     1      41.510  -9.439   5.030  1.00  0.00    -0.267 OA
ENDROOT
BRANCH   1   4
HETATM    4  C   UNL     1      40.266 -11.156   3.408  1.00  0.00     0.122 C 
HETATM    5  C   UNL     1      39.053 -11.783   2.732  1.00  0.00     0.026 C 
ENDBRANCH   1   4
BRANCH   1   6
HETATM    6  C   UNL     1      39.969 -12.666   5.363  1.00  0.00     0.229 C 
BRANCH   6   7
HETATM    7  C   UNL     1      41.144 -13.650   5.240  1.00  0.00     0.240 C 
HETATM    8  N   UNL     1      40.915 -14.666   4.332  1.00  0.00    -0.326 N 
HETATM    9  H   UNL     1      40.045 -14.596   3.815  1.00  0.00     0.169 HD
HETATM   10  O   UNL     1      42.114 -13.543   5.984  1.00  0.00    -0.271 OA
BRANCH   8  11
HETATM   11  C   UNL     1      41.687 -15.821   4.108  1.00  0.00     0.034 A 
HETATM   12  C   UNL     1      42.777 -15.878   3.243  1.00  0.00     0.032 A 
HETATM   13  C   UNL     1      43.516 -17.061   3.100  1.00  0.00     0.032 A 
HETATM   14  C   UNL     1      43.178 -18.205   3.821  1.00  0.00     0.034 A 
HETATM   15  C   UNL     1      42.077 -18.149   4.684  1.00  0.00     0.032 A 
HETATM   16  C   UNL     1      41.337 -16.970   4.823  1.00  0.00     0.032 A 
BRANCH  14  17
HETATM   17  N   UNL     1      43.878 -19.426   3.747  1.00  0.00    -0.328 N 
HETATM   18  C   UNL     1      43.835 -20.360   2.727  1.00  0.00     0.218 C 
HETATM   19  C   UNL     1      44.728 -21.551   2.979  1.00  0.00     0.117 C 
HETATM   20  O   UNL     1      43.175 -20.294   1.696  1.00  0.00    -0.274 OA
HETATM   21  H   UNL     1      44.484 -19.633   4.531  1.00  0.00     0.169 HD
ENDBRANCH  14  17
ENDBRANCH   8  11
ENDBRANCH   6   7
ENDBRANCH   1   6
BRANCH   2  22
HETATM   22  C   UNL     1      40.574 -10.157   7.075  1.00  0.00     0.074 A 
HETATM   23  S   UNL     1      41.920 -10.471   8.126  1.00  0.00    -0.084 SA
HETATM   24  C   UNL     1      41.083  -9.980   9.513  1.00  0.00     0.023 A 
HETATM   25  C   UNL     1      39.772  -9.661   9.233  1.00  0.00    -0.038 A 
HETATM   26  C   UNL     1      41.662  -9.905  10.859  1.00  0.00    -0.012 A 
HETATM   27  C   UNL     1      38.848  -9.193  10.317  1.00  0.00     0.044 C 
HETATM   28  C   UNL     1      39.482  -9.771   7.835  1.00  0.00     0.033 A 
HETATM   29  C   UNL     1      39.267  -9.730  11.699  1.00  0.00     0.044 C 
HETATM   30  C   UNL     1      40.768  -9.725  11.939  1.00  0.00    -0.044 A 
HETATM   31  C   UNL     1      41.269  -9.634  13.247  1.00  0.00     0.044 A 
HETATM   32  C   UNL     1      42.643  -9.701  13.494  1.00  0.00     0.068 A 
HETATM   33  C   UNL     1      43.524  -9.858  12.425  1.00  0.00     0.037 A 
HETATM   34  C   UNL     1      43.037  -9.961  11.117  1.00  0.00     0.016 A 
BRANCH  32  35
HETATM   35  O   UNL     1      42.995  -9.600  14.812  1.00  0.00    -0.356 OA
HETATM   36  C   UNL     1      42.008  -9.086  15.698  1.00  0.00     0.210 C 
ENDBRANCH  32  35
ENDBRANCH   2  22
TORSDOF 7
ENDMDL
