MODEL 1
REMARK VINA RESULT:      -7.3      0.000      0.000
REMARK  6 active torsions:
REMARK  status: ('A' for Active; 'I' for Inactive)
REMARK    1  A    between atoms: N_2  and  C_4 
REMARK    2  A    between atoms: N_2  and  C_11 
REMARK    3  A    between atoms: C_4  and  C_5 
REMARK    4  A    between atoms: C_5  and  O_6 
REMARK    5  A    between atoms: C_11  and  C_12 
REMARK    6  A    between atoms: C_13  and  C_14 
ROOT
HETATM    1  C   UNL     1      41.417 -14.964   3.369  1.00  0.00     0.016 A 
HETATM    2  C   UNL     1      41.261 -16.298   2.860  1.00  0.00     0.102 A 
HETATM    3  N   UNL     1      39.996 -16.518   2.481  1.00  0.00    -0.174 NA
HETATM    4  N   UNL     1      39.354 -15.370   2.706  1.00  0.00    -0.288 N 
HETATM    5  H   UNL     1      38.366 -15.322   2.472  1.00  0.00     0.188 HD
HETATM    6  C   UNL     1      40.160 -14.400   3.229  1.00  0.00     0.120 A 
ENDROOT
BRANCH   1   7
HETATM    7  C   UNL     1      42.681 -14.361   3.876  1.00  0.00     0.277 C 
BRANCH   7   8
HETATM    8  N   UNL     1      42.759 -14.169   5.378  1.00  0.00    -0.068 N 
HETATM    9  C   UNL     1      42.069 -12.894   5.807  1.00  0.00     0.270 C 
HETATM   10  H   UNL     1      43.754 -14.072   5.601  1.00  0.00     0.279 HD
BRANCH   8  11
HETATM   11  C   UNL     1      42.227 -15.400   6.110  1.00  0.00     0.272 C 
BRANCH  11  12
HETATM   12  C   UNL     1      43.307 -16.163   6.911  1.00  0.00     0.082 C 
HETATM   13  C   UNL     1      42.729 -17.427   7.552  1.00  0.00     0.039 C 
HETATM   14  C   UNL     1      43.955 -18.277   7.864  1.00  0.00     0.003 C 
HETATM   15  C   UNL     1      44.966 -17.950   6.769  1.00  0.00     0.003 C 
HETATM   16  C   UNL     1      44.455 -16.698   6.050  1.00  0.00     0.039 C 
BRANCH  12  17
HETATM   17  O   UNL     1      43.825 -15.305   7.930  1.00  0.00    -0.388 OA
HETATM   18  H   UNL     1      43.104 -14.747   8.282  1.00  0.00     0.210 HD
ENDBRANCH  12  17
ENDBRANCH  11  12
ENDBRANCH   8  11
ENDBRANCH   7   8
ENDBRANCH   1   7
BRANCH   2  19
HETATM   19  C   UNL     1      42.258 -17.352   2.721  1.00  0.00     0.072 A 
HETATM   20  C   UNL     1      43.089 -17.420   1.601  1.00  0.00     0.132 A 
HETATM   21  F   UNL     1      42.961 -16.528   0.607  1.00  0.00    -0.205 F 
HETATM   22  C   UNL     1      44.056 -18.418   1.472  1.00  0.00     0.043 A 
HETATM   23  C   UNL     1      44.207 -19.371   2.478  1.00  0.00     0.006 A 
HETATM   24  C   UNL     1      43.384 -19.322   3.602  1.00  0.00     0.043 A 
HETATM   25  C   UNL     1      42.420 -18.320   3.716  1.00  0.00     0.132 A 
HETATM   26  F   UNL     1      41.618 -18.335   4.792  1.00  0.00    -0.205 F 
ENDBRANCH   2  19
TORSDOF 6
ENDMDL
MODEL 2
REMARK VINA RESULT:      -7.2      2.840      5.231
REMARK  6 active torsions:
REMARK  status: ('A' for Active; 'I' for Inactive)
REMARK    1  A    between atoms: N_2  and  C_4 
REMARK    2  A    between atoms: N_2  and  C_11 
REMARK    3  A    between atoms: C_4  and  C_5 
REMARK    4  A    between atoms: C_5  and  O_6 
REMARK    5  A    between atoms: C_11  and  C_12 
REMARK    6  A    between atoms: C_13  and  C_14 
ROOT
HETATM    1  C   UNL     1      43.199 -18.182   5.719  1.00  0.00     0.016 A 
HETATM    2  C   UNL     1      44.323 -18.907   5.197  1.00  0.00     0.102 A 
HETATM    3  N   UNL     1      45.458 -18.520   5.792  1.00  0.00    -0.174 NA
HETATM    4  N   UNL     1      45.092 -17.601   6.688  1.00  0.00    -0.288 N 
HETATM    5  H   UNL     1      45.817 -17.179   7.263  1.00  0.00     0.188 HD
HETATM    6  C   UNL     1      43.747 -17.365   6.694  1.00  0.00     0.120 A 
ENDROOT
BRANCH   1   7
HETATM    7  C   UNL     1      41.779 -18.348   5.303  1.00  0.00     0.277 C 
BRANCH   7   8
HETATM    8  N   UNL     1      41.047 -17.069   4.944  1.00  0.00    -0.068 N 
HETATM    9  C   UNL     1      40.636 -16.303   6.181  1.00  0.00     0.270 C 
HETATM   10  H   UNL     1      40.192 -17.357   4.460  1.00  0.00     0.279 HD
BRANCH   8  11
HETATM   11  C   UNL     1      41.877 -16.225   3.978  1.00  0.00     0.272 C 
BRANCH  11  12
HETATM   12  C   UNL     1      41.217 -16.036   2.593  1.00  0.00     0.082 C 
HETATM   13  C   UNL     1      41.970 -14.995   1.760  1.00  0.00     0.039 C 
HETATM   14  C   UNL     1      41.525 -15.274   0.329  1.00  0.00     0.003 C 
HETATM   15  C   UNL     1      41.277 -16.778   0.266  1.00  0.00     0.003 C 
HETATM   16  C   UNL     1      41.255 -17.287   1.711  1.00  0.00     0.039 C 
BRANCH  12  17
HETATM   17  O   UNL     1      39.864 -15.612   2.775  1.00  0.00    -0.388 OA
HETATM   18  H   UNL     1      39.538 -15.204   1.949  1.00  0.00     0.210 HD
ENDBRANCH  12  17
ENDBRANCH  11  12
ENDBRANCH   8  11
ENDBRANCH   7   8
ENDBRANCH   1   7
BRANCH   2  19
HETATM   19  C   UNL     1      44.355 -19.940   4.169  1.00  0.00     0.072 A 
HETATM   20  C   UNL     1      44.543 -21.284   4.498  1.00  0.00     0.132 A 
HETATM   21  F   UNL     1      44.736 -21.648   5.776  1.00  0.00    -0.205 F 
HETATM   22  C   UNL     1      44.557 -22.278   3.519  1.00  0.00     0.043 A 
HETATM   23  C   UNL     1      44.377 -21.934   2.180  1.00  0.00     0.006 A 
HETATM   24  C   UNL     1      44.191 -20.598   1.831  1.00  0.00     0.043 A 
HETATM   25  C   UNL     1      44.182 -19.614   2.821  1.00  0.00     0.132 A 
HETATM   26  F   UNL     1      44.045 -18.336   2.439  1.00  0.00    -0.205 F 
ENDBRANCH   2  19
TORSDOF 6
ENDMDL
MODEL 3
REMARK VINA RESULT:      -7.2      2.875      5.019
REMARK  6 active torsions:
REMARK  status: ('A' for Active; 'I' for Inactive)
REMARK    1  A    between atoms: N_2  and  C_4 
REMARK    2  A    between atoms: N_2  and  C_11 
REMARK    3  A    between atoms: C_4  and  C_5 
REMARK    4  A    between atoms: C_5  and  O_6 
REMARK    5  A    between atoms: C_11  and  C_12 
REMARK    6  A    between atoms: C_13  and  C_14 
ROOT
HETATM    1  C   UNL     1      43.195 -18.146   5.623  1.00  0.00     0.016 A 
HETATM    2  C   UNL     1      44.320 -18.931   5.201  1.00  0.00     0.102 A 
HETATM    3  N   UNL     1      45.439 -18.525   5.813  1.00  0.00    -0.174 NA
HETATM    4  N   UNL     1      45.062 -17.535   6.623  1.00  0.00    -0.288 N 
HETATM    5  H   UNL     1      45.773 -17.087   7.195  1.00  0.00     0.188 HD
HETATM    6  C   UNL     1      43.724 -17.271   6.557  1.00  0.00     0.120 A 
ENDROOT
BRANCH   1   7
HETATM    7  C   UNL     1      41.788 -18.311   5.162  1.00  0.00     0.277 C 
BRANCH   7   8
HETATM    8  N   UNL     1      41.031 -17.026   4.892  1.00  0.00    -0.068 N 
HETATM    9  C   UNL     1      40.653 -16.328   6.179  1.00  0.00     0.270 C 
HETATM   10  H   UNL     1      40.162 -17.300   4.423  1.00  0.00     0.279 HD
BRANCH   8  11
HETATM   11  C   UNL     1      41.818 -16.123   3.944  1.00  0.00     0.272 C 
BRANCH  11  12
HETATM   12  C   UNL     1      41.178 -15.984   2.543  1.00  0.00     0.082 C 
HETATM   13  C   UNL     1      41.866 -14.886   1.728  1.00  0.00     0.039 C 
HETATM   14  C   UNL     1      41.478 -15.196   0.287  1.00  0.00     0.003 C 
HETATM   15  C   UNL     1      41.351 -16.716   0.219  1.00  0.00     0.003 C 
HETATM   16  C   UNL     1      41.335 -17.227   1.663  1.00  0.00     0.039 C 
BRANCH  12  17
HETATM   17  O   UNL     1      39.791 -15.669   2.693  1.00  0.00    -0.388 OA
HETATM   18  H   UNL     1      39.512 -15.079   1.966  1.00  0.00     0.210 HD
ENDBRANCH  12  17
ENDBRANCH  11  12
ENDBRANCH   8  11
ENDBRANCH   7   8
ENDBRANCH   1   7
BRANCH   2  19
HETATM   19  C   UNL     1      44.367 -20.038   4.254  1.00  0.00     0.072 A 
HETATM   20  C   UNL     1      44.271 -19.819   2.879  1.00  0.00     0.132 A 
HETATM   21  F   UNL     1      44.097 -18.578   2.400  1.00  0.00    -0.205 F 
HETATM   22  C   UNL     1      44.333 -20.875   1.968  1.00  0.00     0.043 A 
HETATM   23  C   UNL     1      44.497 -22.180   2.430  1.00  0.00     0.006 A 
HETATM   24  C   UNL     1      44.591 -22.419   3.800  1.00  0.00     0.043 A 
HETATM   25  C   UNL     1      44.525 -21.354   4.699  1.00  0.00     0.132 A 
HETATM   26  F   UNL     1      44.574 -21.631   6.011  1.00  0.00    -0.205 F 
ENDBRANCH   2  19
TORSDOF 6
ENDMDL
MODEL 4
REMARK VINA RESULT:      -7.0      2.615      4.893
REMARK  6 active torsions:
REMARK  status: ('A' for Active; 'I' for Inactive)
REMARK    1  A    between atoms: N_2  and  C_4 
REMARK    2  A    between atoms: N_2  and  C_11 
REMARK    3  A    between atoms: C_4  and  C_5 
REMARK    4  A    between atoms: C_5  and  O_6 
REMARK    5  A    between atoms: C_11  and  C_12 
REMARK    6  A    between atoms: C_13  and  C_14 
ROOT
HETATM    1  C   UNL     1      43.390 -18.099   5.552  1.00  0.00     0.016 A 
HETATM    2  C   UNL     1      44.440 -18.969   5.103  1.00  0.00     0.102 A 
HETATM    3  N   UNL     1      45.578 -18.721   5.764  1.00  0.00    -0.174 NA
HETATM    4  N   UNL     1      45.281 -17.750   6.629  1.00  0.00    -0.288 N 
HETATM    5  H   UNL     1      46.018 -17.416   7.244  1.00  0.00     0.188 HD
HETATM    6  C   UNL     1      43.979 -17.345   6.552  1.00  0.00     0.120 A 
ENDROOT
BRANCH   1   7
HETATM    7  C   UNL     1      41.986 -18.089   5.051  1.00  0.00     0.277 C 
BRANCH   7   8
HETATM    8  N   UNL     1      41.513 -16.778   4.455  1.00  0.00    -0.068 N 
HETATM    9  C   UNL     1      40.984 -16.969   3.052  1.00  0.00     0.270 C 
HETATM   10  H   UNL     1      42.341 -16.177   4.395  1.00  0.00     0.279 HD
BRANCH   8  11
HETATM   11  C   UNL     1      40.502 -16.099   5.377  1.00  0.00     0.272 C 
BRANCH  11  12
HETATM   12  C   UNL     1      40.659 -14.562   5.450  1.00  0.00     0.082 C 
HETATM   13  C   UNL     1      42.129 -14.151   5.332  1.00  0.00     0.039 C 
HETATM   14  C   UNL     1      42.072 -12.680   4.938  1.00  0.00     0.003 C 
HETATM   15  C   UNL     1      40.807 -12.533   4.097  1.00  0.00     0.003 C 
HETATM   16  C   UNL     1      39.991 -13.815   4.291  1.00  0.00     0.039 C 
BRANCH  12  17
HETATM   17  O   UNL     1      40.132 -14.097   6.694  1.00  0.00    -0.388 OA
HETATM   18  H   UNL     1      39.184 -13.884   6.586  1.00  0.00     0.210 HD
ENDBRANCH  12  17
ENDBRANCH  11  12
ENDBRANCH   8  11
ENDBRANCH   7   8
ENDBRANCH   1   7
BRANCH   2  19
HETATM   19  C   UNL     1      44.400 -20.013   4.086  1.00  0.00     0.072 A 
HETATM   20  C   UNL     1      44.602 -21.354   4.417  1.00  0.00     0.132 A 
HETATM   21  F   UNL     1      44.875 -21.707   5.683  1.00  0.00    -0.205 F 
HETATM   22  C   UNL     1      44.548 -22.358   3.449  1.00  0.00     0.043 A 
HETATM   23  C   UNL     1      44.283 -22.027   2.121  1.00  0.00     0.006 A 
HETATM   24  C   UNL     1      44.082 -20.693   1.771  1.00  0.00     0.043 A 
HETATM   25  C   UNL     1      44.142 -19.699   2.749  1.00  0.00     0.132 A 
HETATM   26  F   UNL     1      43.988 -18.424   2.363  1.00  0.00    -0.205 F 
ENDBRANCH   2  19
TORSDOF 6
ENDMDL
MODEL 5
REMARK VINA RESULT:      -6.9      2.028      2.827
REMARK  6 active torsions:
REMARK  status: ('A' for Active; 'I' for Inactive)
REMARK    1  A    between atoms: N_2  and  C_4 
REMARK    2  A    between atoms: N_2  and  C_11 
REMARK    3  A    between atoms: C_4  and  C_5 
REMARK    4  A    between atoms: C_5  and  O_6 
REMARK    5  A    between atoms: C_11  and  C_12 
REMARK    6  A    between atoms: C_13  and  C_14 
ROOT
HETATM    1  C   UNL     1      40.778 -15.410   5.118  1.00  0.00     0.016 A 
HETATM    2  C   UNL     1      41.065 -15.195   3.728  1.00  0.00     0.102 A 
HETATM    3  N   UNL     1      40.509 -14.056   3.298  1.00  0.00    -0.174 NA
HETATM    4  N   UNL     1      39.907 -13.530   4.366  1.00  0.00    -0.288 N 
HETATM    5  H   UNL     1      39.424 -12.642   4.254  1.00  0.00     0.188 HD
HETATM    6  C   UNL     1      40.044 -14.295   5.488  1.00  0.00     0.120 A 
ENDROOT
BRANCH   1   7
HETATM    7  C   UNL     1      41.234 -16.566   5.939  1.00  0.00     0.277 C 
BRANCH   7   8
HETATM    8  N   UNL     1      42.737 -16.745   6.040  1.00  0.00    -0.068 N 
HETATM    9  C   UNL     1      43.395 -15.541   6.674  1.00  0.00     0.270 C 
HETATM   10  H   UNL     1      43.080 -16.814   5.077  1.00  0.00     0.279 HD
BRANCH   8  11
HETATM   11  C   UNL     1      43.079 -18.049   6.759  1.00  0.00     0.272 C 
BRANCH  11  12
HETATM   12  C   UNL     1      44.128 -18.910   6.020  1.00  0.00     0.082 C 
HETATM   13  C   UNL     1      43.988 -20.389   6.388  1.00  0.00     0.039 C 
HETATM   14  C   UNL     1      44.715 -21.121   5.267  1.00  0.00     0.003 C 
HETATM   15  C   UNL     1      44.511 -20.263   4.022  1.00  0.00     0.003 C 
HETATM   16  C   UNL     1      43.970 -18.910   4.497  1.00  0.00     0.039 C 
BRANCH  12  17
HETATM   17  O   UNL     1      45.437 -18.453   6.370  1.00  0.00    -0.388 OA
HETATM   18  H   UNL     1      45.971 -19.209   6.685  1.00  0.00     0.210 HD
ENDBRANCH  12  17
ENDBRANCH  11  12
ENDBRANCH   8  11
ENDBRANCH   7   8
ENDBRANCH   1   7
BRANCH   2  19
HETATM   19  C   UNL     1      41.838 -16.021   2.809  1.00  0.00     0.072 A 
HETATM   20  C   UNL     1      43.208 -15.818   2.631  1.00  0.00     0.132 A 
HETATM   21  F   UNL     1      43.837 -14.827   3.282  1.00  0.00    -0.205 F 
HETATM   22  C   UNL     1      43.956 -16.618   1.765  1.00  0.00     0.043 A 
HETATM   23  C   UNL     1      43.333 -17.647   1.061  1.00  0.00     0.006 A 
HETATM   24  C   UNL     1      41.965 -17.863   1.222  1.00  0.00     0.043 A 
HETATM   25  C   UNL     1      41.230 -17.053   2.090  1.00  0.00     0.132 A 
HETATM   26  F   UNL     1      39.909 -17.265   2.182  1.00  0.00    -0.205 F 
ENDBRANCH   2  19
TORSDOF 6
ENDMDL
MODEL 6
REMARK VINA RESULT:      -6.9      2.503      4.582
REMARK  6 active torsions:
REMARK  status: ('A' for Active; 'I' for Inactive)
REMARK    1  A    between atoms: N_2  and  C_4 
REMARK    2  A    between atoms: N_2  and  C_11 
REMARK    3  A    between atoms: C_4  and  C_5 
REMARK    4  A    between atoms: C_5  and  O_6 
REMARK    5  A    between atoms: C_11  and  C_12 
REMARK    6  A    between atoms: C_13  and  C_14 
ROOT
HETATM    1  C   UNL     1      44.388 -17.951   6.893  1.00  0.00     0.016 A 
HETATM    2  C   UNL     1      43.901 -19.066   6.131  1.00  0.00     0.102 A 
HETATM    3  N   UNL     1      43.515 -20.062   6.939  1.00  0.00    -0.174 NA
HETATM    4  N   UNL     1      43.713 -19.609   8.179  1.00  0.00    -0.288 N 
HETATM    5  H   UNL     1      43.469 -20.219   8.955  1.00  0.00     0.188 HD
HETATM    6  C   UNL     1      44.226 -18.344   8.211  1.00  0.00     0.120 A 
ENDROOT
BRANCH   1   7
HETATM    7  C   UNL     1      44.895 -16.665   6.338  1.00  0.00     0.277 C 
BRANCH   7   8
HETATM    8  N   UNL     1      43.928 -15.499   6.397  1.00  0.00    -0.068 N 
HETATM    9  C   UNL     1      44.415 -14.426   7.344  1.00  0.00     0.270 C 
HETATM   10  H   UNL     1      43.054 -15.873   6.778  1.00  0.00     0.279 HD
BRANCH   8  11
HETATM   11  C   UNL     1      43.643 -14.961   4.996  1.00  0.00     0.272 C 
BRANCH  11  12
HETATM   12  C   UNL     1      42.255 -14.294   4.856  1.00  0.00     0.082 C 
HETATM   13  C   UNL     1      41.603 -14.650   3.517  1.00  0.00     0.039 C 
HETATM   14  C   UNL     1      40.125 -14.348   3.732  1.00  0.00     0.003 C 
HETATM   15  C   UNL     1      39.862 -14.638   5.207  1.00  0.00     0.003 C 
HETATM   16  C   UNL     1      41.229 -14.775   5.885  1.00  0.00     0.039 C 
BRANCH  12  17
HETATM   17  O   UNL     1      42.407 -12.876   4.950  1.00  0.00    -0.388 OA
HETATM   18  H   UNL     1      43.250 -12.668   5.397  1.00  0.00     0.210 HD
ENDBRANCH  12  17
ENDBRANCH  11  12
ENDBRANCH   8  11
ENDBRANCH   7   8
ENDBRANCH   1   7
BRANCH   2  19
HETATM   19  C   UNL     1      43.790 -19.216   4.686  1.00  0.00     0.072 A 
HETATM   20  C   UNL     1      44.677 -20.024   3.971  1.00  0.00     0.132 A 
HETATM   21  F   UNL     1      45.678 -20.655   4.602  1.00  0.00    -0.205 F 
HETATM   22  C   UNL     1      44.563 -20.183   2.589  1.00  0.00     0.043 A 
HETATM   23  C   UNL     1      43.544 -19.529   1.898  1.00  0.00     0.006 A 
HETATM   24  C   UNL     1      42.651 -18.716   2.593  1.00  0.00     0.043 A 
HETATM   25  C   UNL     1      42.779 -18.564   3.975  1.00  0.00     0.132 A 
HETATM   26  F   UNL     1      41.927 -17.737   4.600  1.00  0.00    -0.205 F 
ENDBRANCH   2  19
TORSDOF 6
ENDMDL
MODEL 7
REMARK VINA RESULT:      -6.8      2.254      3.810
REMARK  6 active torsions:
REMARK  status: ('A' for Active; 'I' for Inactive)
REMARK    1  A    between atoms: N_2  and  C_4 
REMARK    2  A    between atoms: N_2  and  C_11 
REMARK    3  A    between atoms: C_4  and  C_5 
REMARK    4  A    between atoms: C_5  and  O_6 
REMARK    5  A    between atoms: C_11  and  C_12 
REMARK    6  A    between atoms: C_13  and  C_14 
ROOT
HETATM    1  C   UNL     1      42.363 -16.569   5.742  1.00  0.00     0.016 A 
HETATM    2  C   UNL     1      42.069 -17.798   5.060  1.00  0.00     0.102 A 
HETATM    3  N   UNL     1      40.772 -18.110   5.178  1.00  0.00    -0.174 NA
HETATM    4  N   UNL     1      40.231 -17.115   5.883  1.00  0.00    -0.288 N 
HETATM    5  H   UNL     1      39.234 -17.154   6.079  1.00  0.00     0.188 HD
HETATM    6  C   UNL     1      41.138 -16.158   6.240  1.00  0.00     0.120 A 
ENDROOT
BRANCH   1   7
HETATM    7  C   UNL     1      43.695 -15.908   5.822  1.00  0.00     0.277 C 
BRANCH   7   8
HETATM    8  N   UNL     1      43.690 -14.401   5.648  1.00  0.00    -0.068 N 
HETATM    9  C   UNL     1      44.713 -13.740   6.542  1.00  0.00     0.270 C 
HETATM   10  H   UNL     1      42.764 -14.083   5.949  1.00  0.00     0.279 HD
BRANCH   8  11
HETATM   11  C   UNL     1      43.864 -14.026   4.177  1.00  0.00     0.272 C 
BRANCH  11  12
HETATM   12  C   UNL     1      42.550 -13.594   3.486  1.00  0.00     0.082 C 
HETATM   13  C   UNL     1      41.860 -14.786   2.817  1.00  0.00     0.039 C 
HETATM   14  C   UNL     1      40.421 -14.321   2.626  1.00  0.00     0.003 C 
HETATM   15  C   UNL     1      40.137 -13.387   3.799  1.00  0.00     0.003 C 
HETATM   16  C   UNL     1      41.485 -13.066   4.451  1.00  0.00     0.039 C 
BRANCH  12  17
HETATM   17  O   UNL     1      42.846 -12.601   2.501  1.00  0.00    -0.388 OA
HETATM   18  H   UNL     1      43.594 -12.052   2.808  1.00  0.00     0.210 HD
ENDBRANCH  12  17
ENDBRANCH  11  12
ENDBRANCH   8  11
ENDBRANCH   7   8
ENDBRANCH   1   7
BRANCH   2  19
HETATM   19  C   UNL     1      42.963 -18.671   4.309  1.00  0.00     0.072 A 
HETATM   20  C   UNL     1      42.906 -18.742   2.916  1.00  0.00     0.132 A 
HETATM   21  F   UNL     1      41.995 -18.027   2.238  1.00  0.00    -0.205 F 
HETATM   22  C   UNL     1      43.772 -19.563   2.193  1.00  0.00     0.043 A 
HETATM   23  C   UNL     1      44.721 -20.332   2.866  1.00  0.00     0.006 A 
HETATM   24  C   UNL     1      44.791 -20.278   4.256  1.00  0.00     0.043 A 
HETATM   25  C   UNL     1      43.917 -19.454   4.966  1.00  0.00     0.132 A 
HETATM   26  F   UNL     1      43.987 -19.465   6.306  1.00  0.00    -0.205 F 
ENDBRANCH   2  19
TORSDOF 6
ENDMDL
MODEL 8
REMARK VINA RESULT:      -6.8      2.299      4.581
REMARK  6 active torsions:
REMARK  status: ('A' for Active; 'I' for Inactive)
REMARK    1  A    between atoms: N_2  and  C_4 
REMARK    2  A    between atoms: N_2  and  C_11 
REMARK    3  A    between atoms: C_4  and  C_5 
REMARK    4  A    between atoms: C_5  and  O_6 
REMARK    5  A    between atoms: C_11  and  C_12 
REMARK    6  A    between atoms: C_13  and  C_14 
ROOT
HETATM    1  C   UNL     1      40.971 -14.320   3.732  1.00  0.00     0.016 A 
HETATM    2  C   UNL     1      41.119 -14.466   5.153  1.00  0.00     0.102 A 
HETATM    3  N   UNL     1      40.278 -13.653   5.805  1.00  0.00    -0.174 NA
HETATM    4  N   UNL     1      39.588 -13.020   4.854  1.00  0.00    -0.288 N 
HETATM    5  H   UNL     1      38.878 -12.352   5.142  1.00  0.00     0.188 HD
HETATM    6  C   UNL     1      39.956 -13.389   3.591  1.00  0.00     0.120 A 
ENDROOT
BRANCH   1   7
HETATM    7  C   UNL     1      41.733 -15.065   2.691  1.00  0.00     0.277 C 
BRANCH   7   8
HETATM    8  N   UNL     1      41.345 -16.520   2.511  1.00  0.00    -0.068 N 
HETATM    9  C   UNL     1      39.868 -16.665   2.224  1.00  0.00     0.270 C 
HETATM   10  H   UNL     1      41.532 -16.978   3.408  1.00  0.00     0.279 HD
BRANCH   8  11
HETATM   11  C   UNL     1      42.218 -17.184   1.448  1.00  0.00     0.272 C 
BRANCH  11  12
HETATM   12  C   UNL     1      43.411 -17.977   2.030  1.00  0.00     0.082 C 
HETATM   13  C   UNL     1      43.419 -17.920   3.560  1.00  0.00     0.039 C 
HETATM   14  C   UNL     1      44.304 -19.091   3.969  1.00  0.00     0.003 C 
HETATM   15  C   UNL     1      44.089 -20.157   2.899  1.00  0.00     0.003 C 
HETATM   16  C   UNL     1      43.361 -19.479   1.734  1.00  0.00     0.039 C 
BRANCH  12  17
HETATM   17  O   UNL     1      44.629 -17.425   1.525  1.00  0.00    -0.388 OA
HETATM   18  H   UNL     1      44.835 -16.600   2.006  1.00  0.00     0.210 HD
ENDBRANCH  12  17
ENDBRANCH  11  12
ENDBRANCH   8  11
ENDBRANCH   7   8
ENDBRANCH   1   7
BRANCH   2  19
HETATM   19  C   UNL     1      42.015 -15.339   5.901  1.00  0.00     0.072 A 
HETATM   20  C   UNL     1      41.551 -16.514   6.496  1.00  0.00     0.132 A 
HETATM   21  F   UNL     1      40.253 -16.847   6.419  1.00  0.00    -0.205 F 
HETATM   22  C   UNL     1      42.409 -17.362   7.198  1.00  0.00     0.043 A 
HETATM   23  C   UNL     1      43.761 -17.040   7.312  1.00  0.00     0.006 A 
HETATM   24  C   UNL     1      44.242 -15.869   6.728  1.00  0.00     0.043 A 
HETATM   25  C   UNL     1      43.371 -15.030   6.031  1.00  0.00     0.132 A 
HETATM   26  F   UNL     1      43.865 -13.891   5.523  1.00  0.00    -0.205 F 
ENDBRANCH   2  19
TORSDOF 6
ENDMDL
MODEL 9
REMARK VINA RESULT:      -6.7      2.297      4.271
REMARK  6 active torsions:
REMARK  status: ('A' for Active; 'I' for Inactive)
REMARK    1  A    between atoms: N_2  and  C_4 
REMARK    2  A    between atoms: N_2  and  C_11 
REMARK    3  A    between atoms: C_4  and  C_5 
REMARK    4  A    between atoms: C_5  and  O_6 
REMARK    5  A    between atoms: C_11  and  C_12 
REMARK    6  A    between atoms: C_13  and  C_14 
ROOT
HETATM    1  C   UNL     1      41.319 -13.999   3.860  1.00  0.00     0.016 A 
HETATM    2  C   UNL     1      41.246 -14.432   5.227  1.00  0.00     0.102 A 
HETATM    3  N   UNL     1      40.185 -13.894   5.841  1.00  0.00    -0.174 NA
HETATM    4  N   UNL     1      39.571 -13.161   4.910  1.00  0.00    -0.288 N 
HETATM    5  H   UNL     1      38.722 -12.667   5.173  1.00  0.00     0.188 HD
HETATM    6  C   UNL     1      40.203 -13.195   3.700  1.00  0.00     0.120 A 
ENDROOT
BRANCH   1   7
HETATM    7  C   UNL     1      42.358 -14.395   2.869  1.00  0.00     0.277 C 
BRANCH   7   8
HETATM    8  N   UNL     1      42.269 -15.821   2.362  1.00  0.00    -0.068 N 
HETATM    9  C   UNL     1      41.887 -15.864   0.900  1.00  0.00     0.270 C 
HETATM   10  H   UNL     1      41.513 -16.266   2.892  1.00  0.00     0.279 HD
BRANCH   8  11
HETATM   11  C   UNL     1      43.562 -16.581   2.653  1.00  0.00     0.272 C 
BRANCH  11  12
HETATM   12  C   UNL     1      43.343 -18.068   3.013  1.00  0.00     0.082 C 
HETATM   13  C   UNL     1      43.663 -18.978   1.824  1.00  0.00     0.039 C 
HETATM   14  C   UNL     1      43.870 -20.350   2.453  1.00  0.00     0.003 C 
HETATM   15  C   UNL     1      44.459 -20.080   3.834  1.00  0.00     0.003 C 
HETATM   16  C   UNL     1      44.275 -18.585   4.112  1.00  0.00     0.039 C 
BRANCH  12  17
HETATM   17  O   UNL     1      41.981 -18.258   3.405  1.00  0.00    -0.388 OA
HETATM   18  H   UNL     1      41.945 -18.854   4.178  1.00  0.00     0.210 HD
ENDBRANCH  12  17
ENDBRANCH  11  12
ENDBRANCH   8  11
ENDBRANCH   7   8
ENDBRANCH   1   7
BRANCH   2  19
HETATM   19  C   UNL     1      42.134 -15.328   5.958  1.00  0.00     0.072 A 
HETATM   20  C   UNL     1      43.461 -14.978   6.219  1.00  0.00     0.132 A 
HETATM   21  F   UNL     1      43.957 -13.817   5.767  1.00  0.00    -0.205 F 
HETATM   22  C   UNL     1      44.309 -15.826   6.932  1.00  0.00     0.043 A 
HETATM   23  C   UNL     1      43.832 -17.048   7.403  1.00  0.00     0.006 A 
HETATM   24  C   UNL     1      42.512 -17.416   7.149  1.00  0.00     0.043 A 
HETATM   25  C   UNL     1      41.676 -16.560   6.432  1.00  0.00     0.132 A 
HETATM   26  F   UNL     1      40.426 -16.971   6.171  1.00  0.00    -0.205 F 
ENDBRANCH   2  19
TORSDOF 6
ENDMDL
MODEL 10
REMARK VINA RESULT:      -6.7      2.744      4.869
REMARK  6 active torsions:
REMARK  status: ('A' for Active; 'I' for Inactive)
REMARK    1  A    between atoms: N_2  and  C_4 
REMARK    2  A    between atoms: N_2  and  C_11 
REMARK    3  A    between atoms: C_4  and  C_5 
REMARK    4  A    between atoms: C_5  and  O_6 
REMARK    5  A    between atoms: C_11  and  C_12 
REMARK    6  A    between atoms: C_13  and  C_14 
ROOT
HETATM    1  C   UNL     1      42.567 -17.809   6.462  1.00  0.00     0.016 A 
HETATM    2  C   UNL     1      43.579 -18.773   6.786  1.00  0.00     0.102 A 
HETATM    3  N   UNL     1      44.092 -18.534   8.000  1.00  0.00    -0.174 NA
HETATM    4  N   UNL     1      43.426 -17.476   8.464  1.00  0.00    -0.288 N 
HETATM    5  H   UNL     1      43.661 -17.132   9.392  1.00  0.00     0.188 HD
HETATM    6  C   UNL     1      42.491 -17.005   7.587  1.00  0.00     0.120 A 
ENDROOT
BRANCH   1   7
HETATM    7  C   UNL     1      41.773 -17.762   5.202  1.00  0.00     0.277 C 
BRANCH   7   8
HETATM    8  N   UNL     1      41.925 -16.497   4.379  1.00  0.00    -0.068 N 
HETATM    9  C   UNL     1      42.405 -16.805   2.979  1.00  0.00     0.270 C 
HETATM   10  H   UNL     1      42.653 -15.943   4.840  1.00  0.00     0.279 HD
BRANCH   8  11
HETATM   11  C   UNL     1      40.632 -15.685   4.391  1.00  0.00     0.272 C 
BRANCH  11  12
HETATM   12  C   UNL     1      40.702 -14.416   5.271  1.00  0.00     0.082 C 
HETATM   13  C   UNL     1      42.151 -13.973   5.487  1.00  0.00     0.039 C 
HETATM   14  C   UNL     1      42.032 -12.517   5.923  1.00  0.00     0.003 C 
HETATM   15  C   UNL     1      40.802 -11.976   5.202  1.00  0.00     0.003 C 
HETATM   16  C   UNL     1      40.048 -13.184   4.637  1.00  0.00     0.039 C 
BRANCH  12  17
HETATM   17  O   UNL     1      40.094 -14.690   6.535  1.00  0.00    -0.388 OA
HETATM   18  H   UNL     1      39.347 -15.308   6.409  1.00  0.00     0.210 HD
ENDBRANCH  12  17
ENDBRANCH  11  12
ENDBRANCH   8  11
ENDBRANCH   7   8
ENDBRANCH   1   7
BRANCH   2  19
HETATM   19  C   UNL     1      44.067 -19.898   5.997  1.00  0.00     0.072 A 
HETATM   20  C   UNL     1      44.680 -19.701   4.758  1.00  0.00     0.132 A 
HETATM   21  F   UNL     1      44.802 -18.465   4.250  1.00  0.00    -0.205 F 
HETATM   22  C   UNL     1      45.164 -20.774   4.008  1.00  0.00     0.043 A 
HETATM   23  C   UNL     1      45.040 -22.074   4.497  1.00  0.00     0.006 A 
HETATM   24  C   UNL     1      44.427 -22.290   5.730  1.00  0.00     0.043 A 
HETATM   25  C   UNL     1      43.947 -21.208   6.468  1.00  0.00     0.132 A 
HETATM   26  F   UNL     1      43.323 -21.463   7.629  1.00  0.00    -0.205 F 
ENDBRANCH   2  19
TORSDOF 6
ENDMDL
