MODEL 1
REMARK VINA RESULT:      -9.4      0.000      0.000
REMARK  8 active torsions:
REMARK  status: ('A' for Active; 'I' for Inactive)
REMARK    1  A    between atoms: C_2  and  C_3 
REMARK    2  A    between atoms: C_6  and  N_7 
REMARK       I    between atoms: N_7  and  C_8 
REMARK    3  A    between atoms: C_8  and  O_9 
REMARK    4  A    between atoms: O_9  and  C_10 
REMARK    5  A    between atoms: C_13  and  N_14 
REMARK       I    between atoms: N_14  and  C_15 
REMARK    6  A    between atoms: C_15  and  C_16 
REMARK    7  A    between atoms: N_19  and  C_20 
REMARK    8  A    between atoms: C_22  and  C_23 
ROOT
HETATM    1  C   UNL     1      39.050 -11.450   3.997  1.00  0.00     0.189 C 
HETATM    2  C   UNL     1      39.656 -12.607   4.798  1.00  0.00     0.184 C 
HETATM    3  C   UNL     1      40.824 -11.990   5.565  1.00  0.00     0.177 C 
HETATM    4  C   UNL     1      41.995 -12.923   5.298  1.00  0.00     0.139 C 
HETATM    5  C   UNL     1      41.623 -13.463   3.923  1.00  0.00     0.196 C 
HETATM    6  O   UNL     1      40.198 -13.649   3.956  1.00  0.00    -0.378 OA
HETATM    7  O   UNL     1      41.068 -10.700   4.972  1.00  0.00    -0.378 OA
HETATM    8  C   UNL     1      39.796 -10.229   4.509  1.00  0.00     0.203 C 
ENDROOT
BRANCH   4   9
HETATM    9  N   UNL     1      42.120 -14.017   6.264  1.00  0.00    -0.351 N 
HETATM   10  C   UNL     1      43.072 -15.005   6.132  1.00  0.00     0.222 C 
HETATM   11  O   UNL     1      44.017 -14.920   5.356  1.00  0.00    -0.273 OA
HETATM   12  H   UNL     1      41.309 -14.219   6.837  1.00  0.00     0.163 HD
BRANCH  10  13
HETATM   13  C   UNL     1      42.797 -16.227   7.004  1.00  0.00     0.081 C 
HETATM   14  C   UNL     1      41.796 -17.192   6.356  1.00  0.00     0.034 C 
HETATM   15  C   UNL     1      42.425 -18.090   5.292  1.00  0.00     0.142 C 
HETATM   16  N   UNL     1      43.610 -18.735   5.854  1.00  0.00    -0.214 N 
HETATM   17  C   UNL     1      44.655 -17.828   6.312  1.00  0.00     0.142 C 
HETATM   18  C   UNL     1      44.085 -16.947   7.423  1.00  0.00     0.034 C 
BRANCH  16  19
HETATM   19  C   UNL     1      44.033 -19.892   5.211  1.00  0.00     0.724 A 
HETATM   20  N   UNL     1      43.832 -20.004   3.889  1.00  0.00    -0.058 NA
HETATM   21  C   UNL     1      44.151 -21.170   3.267  1.00  0.00     0.160 A 
HETATM   22  C   UNL     1      44.675 -22.240   3.963  1.00  0.00     0.057 A 
HETATM   23  C   UNL     1      44.862 -22.043   5.304  1.00  0.00     0.139 A 
HETATM   24  N   UNL     1      44.551 -20.897   5.935  1.00  0.00    -0.075 NA
BRANCH  21  25
HETATM   25  C   UNL     1      43.870 -21.317   1.784  1.00  0.00     0.435 C 
HETATM   26  F   UNL     1      44.054 -20.178   1.059  1.00  0.00    -0.165 F 
HETATM   27  F   UNL     1      44.667 -22.259   1.195  1.00  0.00    -0.165 F 
HETATM   28  F   UNL     1      42.591 -21.722   1.533  1.00  0.00    -0.165 F 
ENDBRANCH  21  25
ENDBRANCH  16  19
ENDBRANCH  10  13
ENDBRANCH   4   9
BRANCH   1  29
HETATM   29  O   UNL     1      39.311 -11.601   2.588  1.00  0.00    -0.293 OA
BRANCH  29  30
HETATM   30  C   UNL     1      38.230 -11.913   1.835  1.00  0.00     0.365 C 
HETATM   31  N   UNL     1      38.322 -13.064   1.098  1.00  0.00    -0.303 N 
HETATM   32  H   UNL     1      37.463 -13.225   0.588  1.00  0.00     0.171 HD
HETATM   33  O   UNL     1      37.205 -11.239   1.793  1.00  0.00    -0.238 OA
BRANCH  31  34
HETATM   34  C   UNL     1      39.286 -14.086   1.056  1.00  0.00     0.036 A 
HETATM   35  C   UNL     1      40.501 -14.018   0.372  1.00  0.00     0.030 A 
HETATM   36  C   UNL     1      41.435 -15.062   0.460  1.00  0.00     0.017 A 
HETATM   37  C   UNL     1      41.156 -16.196   1.227  1.00  0.00     0.009 A 
HETATM   38  C   UNL     1      39.921 -16.292   1.874  1.00  0.00     0.017 A 
HETATM   39  C   UNL     1      38.997 -15.246   1.788  1.00  0.00     0.030 A 
BRANCH  37  40
HETATM   40  C   UNL     1      42.133 -17.309   1.387  1.00  0.00     0.155 C 
HETATM   41  C   UNL     1      43.606 -16.996   1.339  1.00  0.00     0.096 C 
HETATM   42  O   UNL     1      41.730 -18.457   1.562  1.00  0.00    -0.293 OA
ENDBRANCH  37  40
ENDBRANCH  31  34
ENDBRANCH  29  30
ENDBRANCH   1  29
TORSDOF 8
ENDMDL
MODEL 2
REMARK VINA RESULT:      -9.4      4.805      7.892
REMARK  8 active torsions:
REMARK  status: ('A' for Active; 'I' for Inactive)
REMARK    1  A    between atoms: C_2  and  C_3 
REMARK    2  A    between atoms: C_6  and  N_7 
REMARK       I    between atoms: N_7  and  C_8 
REMARK    3  A    between atoms: C_8  and  O_9 
REMARK    4  A    between atoms: O_9  and  C_10 
REMARK    5  A    between atoms: C_13  and  N_14 
REMARK       I    between atoms: N_14  and  C_15 
REMARK    6  A    between atoms: C_15  and  C_16 
REMARK    7  A    between atoms: N_19  and  C_20 
REMARK    8  A    between atoms: C_22  and  C_23 
ROOT
HETATM    1  C   UNL     1      40.479  -8.844  11.355  1.00  0.00     0.189 C 
HETATM    2  C   UNL     1      40.730  -9.315   9.919  1.00  0.00     0.184 C 
HETATM    3  C   UNL     1      39.389  -9.155   9.207  1.00  0.00     0.177 C 
HETATM    4  C   UNL     1      39.162 -10.486   8.507  1.00  0.00     0.139 C 
HETATM    5  C   UNL     1      39.915 -11.430   9.437  1.00  0.00     0.196 C 
HETATM    6  O   UNL     1      41.093 -10.712   9.842  1.00  0.00    -0.378 OA
HETATM    7  O   UNL     1      38.399  -8.958  10.236  1.00  0.00    -0.378 OA
HETATM    8  C   UNL     1      39.069  -8.277  11.305  1.00  0.00     0.203 C 
ENDROOT
BRANCH   4   9
HETATM    9  N   UNL     1      39.716 -10.550   7.152  1.00  0.00    -0.351 N 
HETATM   10  C   UNL     1      39.537 -11.649   6.340  1.00  0.00     0.222 C 
HETATM   11  O   UNL     1      38.726 -12.534   6.585  1.00  0.00    -0.273 OA
HETATM   12  H   UNL     1      40.489  -9.930   6.942  1.00  0.00     0.163 HD
BRANCH  10  13
HETATM   13  C   UNL     1      40.489 -11.676   5.146  1.00  0.00     0.081 C 
HETATM   14  C   UNL     1      41.913 -12.085   5.544  1.00  0.00     0.034 C 
HETATM   15  C   UNL     1      42.081 -13.595   5.716  1.00  0.00     0.142 C 
HETATM   16  N   UNL     1      41.568 -14.269   4.525  1.00  0.00    -0.214 N 
HETATM   17  C   UNL     1      40.160 -14.033   4.233  1.00  0.00     0.142 C 
HETATM   18  C   UNL     1      39.954 -12.537   3.994  1.00  0.00     0.034 C 
BRANCH  16  19
HETATM   19  C   UNL     1      42.036 -15.560   4.310  1.00  0.00     0.724 A 
HETATM   20  N   UNL     1      42.549 -15.867   3.109  1.00  0.00    -0.058 NA
HETATM   21  C   UNL     1      42.918 -17.151   2.856  1.00  0.00     0.160 A 
HETATM   22  C   UNL     1      42.777 -18.144   3.803  1.00  0.00     0.057 A 
HETATM   23  C   UNL     1      42.259 -17.748   5.006  1.00  0.00     0.139 A 
HETATM   24  N   UNL     1      41.887 -16.484   5.273  1.00  0.00    -0.075 NA
BRANCH  21  25
HETATM   25  C   UNL     1      43.444 -17.510   1.479  1.00  0.00     0.435 C 
HETATM   26  F   UNL     1      42.745 -16.963   0.446  1.00  0.00    -0.165 F 
HETATM   27  F   UNL     1      44.739 -17.111   1.297  1.00  0.00    -0.165 F 
HETATM   28  F   UNL     1      43.449 -18.858   1.258  1.00  0.00    -0.165 F 
ENDBRANCH  21  25
ENDBRANCH  16  19
ENDBRANCH  10  13
ENDBRANCH   4   9
BRANCH   1  29
HETATM   29  O   UNL     1      40.504  -9.952  12.276  1.00  0.00    -0.293 OA
BRANCH  29  30
HETATM   30  C   UNL     1      41.232  -9.745  13.400  1.00  0.00     0.365 C 
HETATM   31  N   UNL     1      42.531 -10.177  13.363  1.00  0.00    -0.303 N 
HETATM   32  H   UNL     1      42.998  -9.962  14.235  1.00  0.00     0.171 HD
HETATM   33  O   UNL     1      40.796  -9.199  14.409  1.00  0.00    -0.238 OA
BRANCH  31  34
HETATM   34  C   UNL     1      43.328 -10.694  12.327  1.00  0.00     0.036 A 
HETATM   35  C   UNL     1      43.494 -12.049  12.039  1.00  0.00     0.030 A 
HETATM   36  C   UNL     1      44.246 -12.461  10.928  1.00  0.00     0.017 A 
HETATM   37  C   UNL     1      44.852 -11.517  10.096  1.00  0.00     0.009 A 
HETATM   38  C   UNL     1      44.731 -10.160  10.407  1.00  0.00     0.017 A 
HETATM   39  C   UNL     1      43.975  -9.755  11.512  1.00  0.00     0.030 A 
BRANCH  37  40
HETATM   40  C   UNL     1      45.623 -11.903   8.881  1.00  0.00     0.155 C 
HETATM   41  C   UNL     1      45.202 -13.129   8.113  1.00  0.00     0.096 C 
HETATM   42  O   UNL     1      46.578 -11.220   8.519  1.00  0.00    -0.293 OA
ENDBRANCH  37  40
ENDBRANCH  31  34
ENDBRANCH  29  30
ENDBRANCH   1  29
TORSDOF 8
ENDMDL
MODEL 3
REMARK VINA RESULT:      -9.3      3.361      7.834
REMARK  8 active torsions:
REMARK  status: ('A' for Active; 'I' for Inactive)
REMARK    1  A    between atoms: C_2  and  C_3 
REMARK    2  A    between atoms: C_6  and  N_7 
REMARK       I    between atoms: N_7  and  C_8 
REMARK    3  A    between atoms: C_8  and  O_9 
REMARK    4  A    between atoms: O_9  and  C_10 
REMARK    5  A    between atoms: C_13  and  N_14 
REMARK       I    between atoms: N_14  and  C_15 
REMARK    6  A    between atoms: C_15  and  C_16 
REMARK    7  A    between atoms: N_19  and  C_20 
REMARK    8  A    between atoms: C_22  and  C_23 
ROOT
HETATM    1  C   UNL     1      44.350 -18.319   5.942  1.00  0.00     0.189 C 
HETATM    2  C   UNL     1      43.836 -16.891   5.737  1.00  0.00     0.184 C 
HETATM    3  C   UNL     1      42.974 -16.599   6.963  1.00  0.00     0.177 C 
HETATM    4  C   UNL     1      41.675 -16.045   6.399  1.00  0.00     0.139 C 
HETATM    5  C   UNL     1      41.629 -16.747   5.047  1.00  0.00     0.196 C 
HETATM    6  O   UNL     1      42.987 -16.761   4.575  1.00  0.00    -0.378 OA
HETATM    7  O   UNL     1      42.737 -17.865   7.609  1.00  0.00    -0.378 OA
HETATM    8  C   UNL     1      43.899 -18.665   7.352  1.00  0.00     0.203 C 
ENDROOT
BRANCH   4   9
HETATM    9  N   UNL     1      41.672 -14.591   6.223  1.00  0.00    -0.351 N 
HETATM   10  C   UNL     1      40.586 -13.918   5.707  1.00  0.00     0.222 C 
HETATM   11  O   UNL     1      39.481 -14.433   5.582  1.00  0.00    -0.273 OA
HETATM   12  H   UNL     1      42.574 -14.131   6.179  1.00  0.00     0.163 HD
BRANCH  10  13
HETATM   13  C   UNL     1      40.915 -12.496   5.260  1.00  0.00     0.081 C 
HETATM   14  C   UNL     1      42.146 -12.443   4.345  1.00  0.00     0.034 C 
HETATM   15  C   UNL     1      41.840 -12.830   2.899  1.00  0.00     0.142 C 
HETATM   16  N   UNL     1      40.701 -12.045   2.427  1.00  0.00    -0.214 N 
HETATM   17  C   UNL     1      39.466 -12.223   3.181  1.00  0.00     0.142 C 
HETATM   18  C   UNL     1      39.709 -11.790   4.627  1.00  0.00     0.034 C 
BRANCH  16  19
HETATM   19  C   UNL     1      40.573 -11.931   1.048  1.00  0.00     0.724 A 
HETATM   20  N   UNL     1      41.686 -11.857   0.302  1.00  0.00    -0.058 NA
HETATM   21  C   UNL     1      41.572 -11.646  -1.036  1.00  0.00     0.160 A 
HETATM   22  C   UNL     1      40.342 -11.506  -1.645  1.00  0.00     0.057 A 
HETATM   23  C   UNL     1      39.256 -11.606  -0.819  1.00  0.00     0.139 A 
HETATM   24  N   UNL     1      39.349 -11.813   0.507  1.00  0.00    -0.075 NA
BRANCH  21  25
HETATM   25  C   UNL     1      42.831 -11.505  -1.871  1.00  0.00     0.435 C 
HETATM   26  F   UNL     1      42.676 -10.770  -3.007  1.00  0.00    -0.165 F 
HETATM   27  F   UNL     1      43.848 -10.904  -1.181  1.00  0.00    -0.165 F 
HETATM   28  F   UNL     1      43.331 -12.711  -2.268  1.00  0.00    -0.165 F 
ENDBRANCH  21  25
ENDBRANCH  16  19
ENDBRANCH  10  13
ENDBRANCH   4   9
BRANCH   1  29
HETATM   29  O   UNL     1      43.730 -19.232   5.016  1.00  0.00    -0.293 OA
BRANCH  29  30
HETATM   30  C   UNL     1      44.580 -19.837   4.152  1.00  0.00     0.365 C 
HETATM   31  N   UNL     1      44.353 -19.604   2.821  1.00  0.00    -0.303 N 
HETATM   32  H   UNL     1      45.046 -20.078   2.258  1.00  0.00     0.171 HD
HETATM   33  O   UNL     1      45.517 -20.551   4.498  1.00  0.00    -0.238 OA
BRANCH  31  34
HETATM   34  C   UNL     1      43.470 -18.742   2.149  1.00  0.00     0.036 A 
HETATM   35  C   UNL     1      42.097 -18.946   2.008  1.00  0.00     0.030 A 
HETATM   36  C   UNL     1      41.286 -17.982   1.390  1.00  0.00     0.017 A 
HETATM   37  C   UNL     1      41.846 -16.803   0.892  1.00  0.00     0.009 A 
HETATM   38  C   UNL     1      43.228 -16.614   0.985  1.00  0.00     0.017 A 
HETATM   39  C   UNL     1      44.029 -17.576   1.609  1.00  0.00     0.030 A 
BRANCH  37  40
HETATM   40  C   UNL     1      41.022 -15.730   0.267  1.00  0.00     0.155 C 
HETATM   41  C   UNL     1      41.338 -15.298  -1.141  1.00  0.00     0.096 C 
HETATM   42  O   UNL     1      40.098 -15.222   0.899  1.00  0.00    -0.293 OA
ENDBRANCH  37  40
ENDBRANCH  31  34
ENDBRANCH  29  30
ENDBRANCH   1  29
TORSDOF 8
ENDMDL
MODEL 4
REMARK VINA RESULT:      -9.2      6.629      9.808
REMARK  8 active torsions:
REMARK  status: ('A' for Active; 'I' for Inactive)
REMARK    1  A    between atoms: C_2  and  C_3 
REMARK    2  A    between atoms: C_6  and  N_7 
REMARK       I    between atoms: N_7  and  C_8 
REMARK    3  A    between atoms: C_8  and  O_9 
REMARK    4  A    between atoms: O_9  and  C_10 
REMARK    5  A    between atoms: C_13  and  N_14 
REMARK       I    between atoms: N_14  and  C_15 
REMARK    6  A    between atoms: C_15  and  C_16 
REMARK    7  A    between atoms: N_19  and  C_20 
REMARK    8  A    between atoms: C_22  and  C_23 
ROOT
HETATM    1  C   UNL     1      42.563 -14.058   3.331  1.00  0.00     0.189 C 
HETATM    2  C   UNL     1      42.147 -12.841   4.162  1.00  0.00     0.184 C 
HETATM    3  C   UNL     1      42.225 -13.306   5.615  1.00  0.00     0.177 C 
HETATM    4  C   UNL     1      40.899 -12.883   6.227  1.00  0.00     0.139 C 
HETATM    5  C   UNL     1      39.991 -12.935   5.004  1.00  0.00     0.196 C 
HETATM    6  O   UNL     1      40.783 -12.432   3.915  1.00  0.00    -0.378 OA
HETATM    7  O   UNL     1      42.324 -14.743   5.581  1.00  0.00    -0.378 OA
HETATM    8  C   UNL     1      43.026 -15.064   4.374  1.00  0.00     0.203 C 
ENDROOT
BRANCH   4   9
HETATM    9  N   UNL     1      40.908 -11.536   6.802  1.00  0.00    -0.351 N 
HETATM   10  C   UNL     1      39.895 -11.081   7.618  1.00  0.00     0.222 C 
HETATM   11  O   UNL     1      39.050 -11.822   8.107  1.00  0.00    -0.273 OA
HETATM   12  H   UNL     1      41.490 -10.844   6.344  1.00  0.00     0.163 HD
BRANCH  10  13
HETATM   13  C   UNL     1      39.901  -9.565   7.798  1.00  0.00     0.081 C 
HETATM   14  C   UNL     1      38.721  -9.074   8.648  1.00  0.00     0.034 C 
HETATM   15  C   UNL     1      38.941  -9.256  10.149  1.00  0.00     0.142 C 
HETATM   16  N   UNL     1      40.233  -8.677  10.514  1.00  0.00    -0.214 N 
HETATM   17  C   UNL     1      41.389  -9.260   9.845  1.00  0.00     0.142 C 
HETATM   18  C   UNL     1      41.241  -9.048   8.338  1.00  0.00     0.034 C 
BRANCH  16  19
HETATM   19  C   UNL     1      40.393  -8.351  11.855  1.00  0.00     0.724 A 
HETATM   20  N   UNL     1      41.414  -8.899  12.534  1.00  0.00    -0.058 NA
HETATM   21  C   UNL     1      41.522  -8.666  13.868  1.00  0.00     0.160 A 
HETATM   22  C   UNL     1      40.609  -7.882  14.542  1.00  0.00     0.057 A 
HETATM   23  C   UNL     1      39.605  -7.349  13.779  1.00  0.00     0.139 A 
HETATM   24  N   UNL     1      39.482  -7.571  12.458  1.00  0.00    -0.075 NA
BRANCH  21  25
HETATM   25  C   UNL     1      42.642  -9.331  14.646  1.00  0.00     0.435 C 
HETATM   26  F   UNL     1      43.883  -9.151  14.114  1.00  0.00    -0.165 F 
HETATM   27  F   UNL     1      42.725  -8.875  15.932  1.00  0.00    -0.165 F 
HETATM   28  F   UNL     1      42.471 -10.681  14.754  1.00  0.00    -0.165 F 
ENDBRANCH  21  25
ENDBRANCH  16  19
ENDBRANCH  10  13
ENDBRANCH   4   9
BRANCH   1  29
HETATM   29  O   UNL     1      41.439 -14.609   2.618  1.00  0.00    -0.293 OA
BRANCH  29  30
HETATM   30  C   UNL     1      41.546 -14.578   1.268  1.00  0.00     0.365 C 
HETATM   31  N   UNL     1      42.152 -15.661   0.688  1.00  0.00    -0.303 N 
HETATM   32  H   UNL     1      42.167 -15.558  -0.319  1.00  0.00     0.171 HD
HETATM   33  O   UNL     1      41.130 -13.660   0.568  1.00  0.00    -0.238 OA
BRANCH  31  34
HETATM   34  C   UNL     1      42.587 -16.893   1.206  1.00  0.00     0.036 A 
HETATM   35  C   UNL     1      41.760 -17.970   1.524  1.00  0.00     0.030 A 
HETATM   36  C   UNL     1      42.302 -19.190   1.959  1.00  0.00     0.017 A 
HETATM   37  C   UNL     1      43.684 -19.340   2.091  1.00  0.00     0.009 A 
HETATM   38  C   UNL     1      44.516 -18.250   1.822  1.00  0.00     0.017 A 
HETATM   39  C   UNL     1      43.970 -17.039   1.383  1.00  0.00     0.030 A 
BRANCH  37  40
HETATM   40  C   UNL     1      44.309 -20.628   2.506  1.00  0.00     0.155 C 
HETATM   41  C   UNL     1      43.971 -21.880   1.739  1.00  0.00     0.096 C 
HETATM   42  O   UNL     1      45.091 -20.652   3.454  1.00  0.00    -0.293 OA
ENDBRANCH  37  40
ENDBRANCH  31  34
ENDBRANCH  29  30
ENDBRANCH   1  29
TORSDOF 8
ENDMDL
MODEL 5
REMARK VINA RESULT:      -9.2      2.817      4.233
REMARK  8 active torsions:
REMARK  status: ('A' for Active; 'I' for Inactive)
REMARK    1  A    between atoms: C_2  and  C_3 
REMARK    2  A    between atoms: C_6  and  N_7 
REMARK       I    between atoms: N_7  and  C_8 
REMARK    3  A    between atoms: C_8  and  O_9 
REMARK    4  A    between atoms: O_9  and  C_10 
REMARK    5  A    between atoms: C_13  and  N_14 
REMARK       I    between atoms: N_14  and  C_15 
REMARK    6  A    between atoms: C_15  and  C_16 
REMARK    7  A    between atoms: N_19  and  C_20 
REMARK    8  A    between atoms: C_22  and  C_23 
ROOT
HETATM    1  C   UNL     1      40.000 -14.980   1.394  1.00  0.00     0.189 C 
HETATM    2  C   UNL     1      40.601 -15.464   2.718  1.00  0.00     0.184 C 
HETATM    3  C   UNL     1      40.230 -14.391   3.739  1.00  0.00     0.177 C 
HETATM    4  C   UNL     1      41.535 -14.072   4.454  1.00  0.00     0.139 C 
HETATM    5  C   UNL     1      42.545 -14.375   3.354  1.00  0.00     0.196 C 
HETATM    6  O   UNL     1      42.044 -15.543   2.683  1.00  0.00    -0.378 OA
HETATM    7  O   UNL     1      39.781 -13.246   2.987  1.00  0.00    -0.378 OA
HETATM    8  C   UNL     1      39.176 -13.767   1.796  1.00  0.00     0.203 C 
ENDROOT
BRANCH   4   9
HETATM    9  N   UNL     1      41.790 -14.906   5.630  1.00  0.00    -0.351 N 
HETATM   10  C   UNL     1      43.061 -15.097   6.130  1.00  0.00     0.222 C 
HETATM   11  O   UNL     1      44.020 -14.415   5.789  1.00  0.00    -0.273 OA
HETATM   12  H   UNL     1      41.082 -15.589   5.872  1.00  0.00     0.163 HD
BRANCH  10  13
HETATM   13  C   UNL     1      43.156 -16.273   7.099  1.00  0.00     0.081 C 
HETATM   14  C   UNL     1      42.107 -17.354   6.809  1.00  0.00     0.034 C 
HETATM   15  C   UNL     1      42.493 -18.274   5.651  1.00  0.00     0.142 C 
HETATM   16  N   UNL     1      43.843 -18.786   5.880  1.00  0.00    -0.214 N 
HETATM   17  C   UNL     1      44.885 -17.772   5.978  1.00  0.00     0.142 C 
HETATM   18  C   UNL     1      44.571 -16.861   7.165  1.00  0.00     0.034 C 
BRANCH  16  19
HETATM   19  C   UNL     1      44.174 -19.949   5.196  1.00  0.00     0.724 A 
HETATM   20  N   UNL     1      43.893 -20.028   3.886  1.00  0.00    -0.058 NA
HETATM   21  C   UNL     1      44.121 -21.196   3.230  1.00  0.00     0.160 A 
HETATM   22  C   UNL     1      44.632 -22.302   3.878  1.00  0.00     0.057 A 
HETATM   23  C   UNL     1      44.903 -22.138   5.209  1.00  0.00     0.139 A 
HETATM   24  N   UNL     1      44.682 -20.991   5.874  1.00  0.00    -0.075 NA
BRANCH  21  25
HETATM   25  C   UNL     1      43.752 -21.303   1.762  1.00  0.00     0.435 C 
HETATM   26  F   UNL     1      42.487 -21.751   1.530  1.00  0.00    -0.165 F 
HETATM   27  F   UNL     1      43.840 -20.102   1.115  1.00  0.00    -0.165 F 
HETATM   28  F   UNL     1      44.581 -22.143   1.076  1.00  0.00    -0.165 F 
ENDBRANCH  21  25
ENDBRANCH  16  19
ENDBRANCH  10  13
ENDBRANCH   4   9
BRANCH   1  29
HETATM   29  O   UNL     1      41.031 -14.560   0.479  1.00  0.00    -0.293 OA
BRANCH  29  30
HETATM   30  C   UNL     1      41.317 -15.446  -0.506  1.00  0.00     0.365 C 
HETATM   31  N   UNL     1      41.616 -14.908  -1.730  1.00  0.00    -0.303 N 
HETATM   32  H   UNL     1      41.834 -15.641  -2.392  1.00  0.00     0.171 HD
HETATM   33  O   UNL     1      41.328 -16.663  -0.352  1.00  0.00    -0.238 OA
BRANCH  31  34
HETATM   34  C   UNL     1      41.816 -13.585  -2.160  1.00  0.00     0.036 A 
HETATM   35  C   UNL     1      42.604 -12.637  -1.506  1.00  0.00     0.030 A 
HETATM   36  C   UNL     1      42.808 -11.365  -2.061  1.00  0.00     0.017 A 
HETATM   37  C   UNL     1      42.212 -11.022  -3.278  1.00  0.00     0.009 A 
HETATM   38  C   UNL     1      41.382 -11.949  -3.913  1.00  0.00     0.017 A 
HETATM   39  C   UNL     1      41.188 -13.218  -3.358  1.00  0.00     0.030 A 
BRANCH  37  40
HETATM   40  C   UNL     1      42.434  -9.700  -3.929  1.00  0.00     0.155 C 
HETATM   41  C   UNL     1      42.425  -9.621  -5.434  1.00  0.00     0.096 C 
HETATM   42  O   UNL     1      42.613  -8.700  -3.238  1.00  0.00    -0.293 OA
ENDBRANCH  37  40
ENDBRANCH  31  34
ENDBRANCH  29  30
ENDBRANCH   1  29
TORSDOF 8
ENDMDL
MODEL 6
REMARK VINA RESULT:      -9.0      3.492      4.979
REMARK  8 active torsions:
REMARK  status: ('A' for Active; 'I' for Inactive)
REMARK    1  A    between atoms: C_2  and  C_3 
REMARK    2  A    between atoms: C_6  and  N_7 
REMARK       I    between atoms: N_7  and  C_8 
REMARK    3  A    between atoms: C_8  and  O_9 
REMARK    4  A    between atoms: O_9  and  C_10 
REMARK    5  A    between atoms: C_13  and  N_14 
REMARK       I    between atoms: N_14  and  C_15 
REMARK    6  A    between atoms: C_15  and  C_16 
REMARK    7  A    between atoms: N_19  and  C_20 
REMARK    8  A    between atoms: C_22  and  C_23 
ROOT
HETATM    1  C   UNL     1      40.185 -14.558  -0.847  1.00  0.00     0.189 C 
HETATM    2  C   UNL     1      40.360 -14.885   0.640  1.00  0.00     0.184 C 
HETATM    3  C   UNL     1      39.836 -13.657   1.381  1.00  0.00     0.177 C 
HETATM    4  C   UNL     1      40.926 -13.320   2.387  1.00  0.00     0.139 C 
HETATM    5  C   UNL     1      42.159 -13.837   1.656  1.00  0.00     0.196 C 
HETATM    6  O   UNL     1      41.744 -15.056   1.018  1.00  0.00    -0.378 OA
HETATM    7  O   UNL     1      39.718 -12.606   0.403  1.00  0.00    -0.378 OA
HETATM    8  C   UNL     1      39.405 -13.252  -0.838  1.00  0.00     0.203 C 
ENDROOT
BRANCH   4   9
HETATM    9  N   UNL     1      40.775 -13.993   3.679  1.00  0.00    -0.351 N 
HETATM   10  C   UNL     1      41.758 -13.953   4.645  1.00  0.00     0.222 C 
HETATM   11  O   UNL     1      42.707 -13.179   4.598  1.00  0.00    -0.273 OA
HETATM   12  H   UNL     1      40.095 -14.742   3.731  1.00  0.00     0.163 HD
BRANCH  10  13
HETATM   13  C   UNL     1      41.574 -15.005   5.736  1.00  0.00     0.081 C 
HETATM   14  C   UNL     1      40.797 -16.231   5.238  1.00  0.00     0.034 C 
HETATM   15  C   UNL     1      41.659 -17.208   4.439  1.00  0.00     0.142 C 
HETATM   16  N   UNL     1      42.860 -17.524   5.210  1.00  0.00    -0.214 N 
HETATM   17  C   UNL     1      43.708 -16.385   5.538  1.00  0.00     0.142 C 
HETATM   18  C   UNL     1      42.902 -15.404   6.391  1.00  0.00     0.034 C 
BRANCH  16  19
HETATM   19  C   UNL     1      43.512 -18.700   4.862  1.00  0.00     0.724 A 
HETATM   20  N   UNL     1      43.403 -19.148   3.601  1.00  0.00    -0.058 NA
HETATM   21  C   UNL     1      43.954 -20.347   3.275  1.00  0.00     0.160 A 
HETATM   22  C   UNL     1      44.620 -21.115   4.208  1.00  0.00     0.057 A 
HETATM   23  C   UNL     1      44.698 -20.585   5.467  1.00  0.00     0.139 A 
HETATM   24  N   UNL     1      44.158 -19.401   5.807  1.00  0.00    -0.075 NA
BRANCH  21  25
HETATM   25  C   UNL     1      43.782 -20.879   1.865  1.00  0.00     0.435 C 
HETATM   26  F   UNL     1      44.690 -21.828   1.505  1.00  0.00    -0.165 F 
HETATM   27  F   UNL     1      42.556 -21.453   1.671  1.00  0.00    -0.165 F 
HETATM   28  F   UNL     1      43.871 -19.896   0.922  1.00  0.00    -0.165 F 
ENDBRANCH  21  25
ENDBRANCH  16  19
ENDBRANCH  10  13
ENDBRANCH   4   9
BRANCH   1  29
HETATM   29  O   UNL     1      41.459 -14.337  -1.483  1.00  0.00    -0.293 OA
BRANCH  29  30
HETATM   30  C   UNL     1      41.494 -14.619  -2.807  1.00  0.00     0.365 C 
HETATM   31  N   UNL     1      41.774 -13.568  -3.639  1.00  0.00    -0.303 N 
HETATM   32  H   UNL     1      41.799 -13.878  -4.602  1.00  0.00     0.171 HD
HETATM   33  O   UNL     1      41.301 -15.737  -3.276  1.00  0.00    -0.238 OA
BRANCH  31  34
HETATM   34  C   UNL     1      42.168 -12.242  -3.390  1.00  0.00     0.036 A 
HETATM   35  C   UNL     1      41.905 -11.154  -4.222  1.00  0.00     0.030 A 
HETATM   36  C   UNL     1      42.269  -9.853  -3.843  1.00  0.00     0.017 A 
HETATM   37  C   UNL     1      42.914  -9.628  -2.624  1.00  0.00     0.009 A 
HETATM   38  C   UNL     1      43.225 -10.718  -1.808  1.00  0.00     0.017 A 
HETATM   39  C   UNL     1      42.854 -12.012  -2.189  1.00  0.00     0.030 A 
BRANCH  37  40
HETATM   40  C   UNL     1      43.280  -8.261  -2.157  1.00  0.00     0.155 C 
HETATM   41  C   UNL     1      44.298  -8.118  -1.055  1.00  0.00     0.096 C 
HETATM   42  O   UNL     1      42.759  -7.277  -2.676  1.00  0.00    -0.293 OA
ENDBRANCH  37  40
ENDBRANCH  31  34
ENDBRANCH  29  30
ENDBRANCH   1  29
TORSDOF 8
ENDMDL
MODEL 7
REMARK VINA RESULT:      -9.0      4.889      7.758
REMARK  8 active torsions:
REMARK  status: ('A' for Active; 'I' for Inactive)
REMARK    1  A    between atoms: C_2  and  C_3 
REMARK    2  A    between atoms: C_6  and  N_7 
REMARK       I    between atoms: N_7  and  C_8 
REMARK    3  A    between atoms: C_8  and  O_9 
REMARK    4  A    between atoms: O_9  and  C_10 
REMARK    5  A    between atoms: C_13  and  N_14 
REMARK       I    between atoms: N_14  and  C_15 
REMARK    6  A    between atoms: C_15  and  C_16 
REMARK    7  A    between atoms: N_19  and  C_20 
REMARK    8  A    between atoms: C_22  and  C_23 
ROOT
HETATM    1  C   UNL     1      39.605  -8.431  10.268  1.00  0.00     0.189 C 
HETATM    2  C   UNL     1      40.415  -9.156   9.189  1.00  0.00     0.184 C 
HETATM    3  C   UNL     1      39.480  -9.249   7.985  1.00  0.00     0.177 C 
HETATM    4  C   UNL     1      39.548 -10.706   7.556  1.00  0.00     0.139 C 
HETATM    5  C   UNL     1      39.851 -11.382   8.888  1.00  0.00     0.196 C 
HETATM    6  O   UNL     1      40.768 -10.506   9.564  1.00  0.00    -0.378 OA
HETATM    7  O   UNL     1      38.159  -8.932   8.466  1.00  0.00    -0.378 OA
HETATM    8  C   UNL     1      38.341  -8.001   9.541  1.00  0.00     0.203 C 
ENDROOT
BRANCH   4   9
HETATM    9  N   UNL     1      40.604 -10.993   6.582  1.00  0.00    -0.351 N 
HETATM   10  C   UNL     1      40.733 -12.229   5.985  1.00  0.00     0.222 C 
HETATM   11  O   UNL     1      39.860 -13.088   6.036  1.00  0.00    -0.273 OA
HETATM   12  H   UNL     1      41.418 -10.390   6.596  1.00  0.00     0.163 HD
BRANCH  10  13
HETATM   13  C   UNL     1      42.087 -12.433   5.310  1.00  0.00     0.081 C 
HETATM   14  C   UNL     1      42.963 -13.448   6.056  1.00  0.00     0.034 C 
HETATM   15  C   UNL     1      42.592 -14.900   5.758  1.00  0.00     0.142 C 
HETATM   16  N   UNL     1      42.545 -15.091   4.309  1.00  0.00    -0.214 N 
HETATM   17  C   UNL     1      41.582 -14.256   3.602  1.00  0.00     0.142 C 
HETATM   18  C   UNL     1      41.950 -12.789   3.824  1.00  0.00     0.034 C 
BRANCH  16  19
HETATM   19  C   UNL     1      42.670 -16.402   3.866  1.00  0.00     0.724 A 
HETATM   20  N   UNL     1      43.422 -17.254   4.580  1.00  0.00    -0.058 NA
HETATM   21  C   UNL     1      43.632 -18.509   4.104  1.00  0.00     0.160 A 
HETATM   22  C   UNL     1      43.092 -18.928   2.906  1.00  0.00     0.057 A 
HETATM   23  C   UNL     1      42.328 -18.006   2.244  1.00  0.00     0.139 A 
HETATM   24  N   UNL     1      42.112 -16.760   2.699  1.00  0.00    -0.075 NA
BRANCH  21  25
HETATM   25  C   UNL     1      44.529 -19.454   4.883  1.00  0.00     0.435 C 
HETATM   26  F   UNL     1      45.150 -20.398   4.122  1.00  0.00    -0.165 F 
HETATM   27  F   UNL     1      45.530 -18.796   5.541  1.00  0.00    -0.165 F 
HETATM   28  F   UNL     1      43.850 -20.136   5.851  1.00  0.00    -0.165 F 
ENDBRANCH  21  25
ENDBRANCH  16  19
ENDBRANCH  10  13
ENDBRANCH   4   9
BRANCH   1  29
HETATM   29  O   UNL     1      39.246  -9.327  11.338  1.00  0.00    -0.293 OA
BRANCH  29  30
HETATM   30  C   UNL     1      39.480  -8.853  12.585  1.00  0.00     0.365 C 
HETATM   31  N   UNL     1      40.662  -9.235  13.162  1.00  0.00    -0.303 N 
HETATM   32  H   UNL     1      40.757  -8.817  14.079  1.00  0.00     0.171 HD
HETATM   33  O   UNL     1      38.710  -8.116  13.194  1.00  0.00    -0.238 OA
BRANCH  31  34
HETATM   34  C   UNL     1      41.774  -9.936  12.666  1.00  0.00     0.036 A 
HETATM   35  C   UNL     1      41.950 -11.319  12.734  1.00  0.00     0.030 A 
HETATM   36  C   UNL     1      43.059 -11.933  12.134  1.00  0.00     0.017 A 
HETATM   37  C   UNL     1      44.015 -11.166  11.465  1.00  0.00     0.009 A 
HETATM   38  C   UNL     1      43.872  -9.776  11.435  1.00  0.00     0.017 A 
HETATM   39  C   UNL     1      42.760  -9.170  12.030  1.00  0.00     0.030 A 
BRANCH  37  40
HETATM   40  C   UNL     1      45.186 -11.776  10.774  1.00  0.00     0.155 C 
HETATM   41  C   UNL     1      45.837 -11.022   9.643  1.00  0.00     0.096 C 
HETATM   42  O   UNL     1      45.607 -12.872  11.135  1.00  0.00    -0.293 OA
ENDBRANCH  37  40
ENDBRANCH  31  34
ENDBRANCH  29  30
ENDBRANCH   1  29
TORSDOF 8
ENDMDL
MODEL 8
REMARK VINA RESULT:      -9.0      4.055      6.783
REMARK  8 active torsions:
REMARK  status: ('A' for Active; 'I' for Inactive)
REMARK    1  A    between atoms: C_2  and  C_3 
REMARK    2  A    between atoms: C_6  and  N_7 
REMARK       I    between atoms: N_7  and  C_8 
REMARK    3  A    between atoms: C_8  and  O_9 
REMARK    4  A    between atoms: O_9  and  C_10 
REMARK    5  A    between atoms: C_13  and  N_14 
REMARK       I    between atoms: N_14  and  C_15 
REMARK    6  A    between atoms: C_15  and  C_16 
REMARK    7  A    between atoms: N_19  and  C_20 
REMARK    8  A    between atoms: C_22  and  C_23 
ROOT
HETATM    1  C   UNL     1      39.382  -8.637   8.246  1.00  0.00     0.189 C 
HETATM    2  C   UNL     1      40.380  -9.555   7.532  1.00  0.00     0.184 C 
HETATM    3  C   UNL     1      39.744  -9.857   6.177  1.00  0.00     0.177 C 
HETATM    4  C   UNL     1      39.833 -11.369   6.038  1.00  0.00     0.139 C 
HETATM    5  C   UNL     1      39.785 -11.793   7.501  1.00  0.00     0.196 C 
HETATM    6  O   UNL     1      40.566 -10.818   8.210  1.00  0.00    -0.378 OA
HETATM    7  O   UNL     1      38.366  -9.445   6.270  1.00  0.00    -0.378 OA
HETATM    8  C   UNL     1      38.344  -8.335   7.177  1.00  0.00     0.203 C 
ENDROOT
BRANCH   4   9
HETATM    9  N   UNL     1      41.068 -11.839   5.407  1.00  0.00    -0.351 N 
HETATM   10  C   UNL     1      41.334 -13.180   5.227  1.00  0.00     0.222 C 
HETATM   11  O   UNL     1      40.482 -14.051   5.357  1.00  0.00    -0.273 OA
HETATM   12  H   UNL     1      41.853 -11.199   5.400  1.00  0.00     0.163 HD
BRANCH  10  13
HETATM   13  C   UNL     1      42.800 -13.465   4.909  1.00  0.00     0.081 C 
HETATM   14  C   UNL     1      43.574 -13.969   6.133  1.00  0.00     0.034 C 
HETATM   15  C   UNL     1      43.345 -15.452   6.424  1.00  0.00     0.142 C 
HETATM   16  N   UNL     1      43.580 -16.218   5.201  1.00  0.00    -0.214 N 
HETATM   17  C   UNL     1      42.723 -15.872   4.075  1.00  0.00     0.142 C 
HETATM   18  C   UNL     1      42.962 -14.407   3.709  1.00  0.00     0.034 C 
BRANCH  16  19
HETATM   19  C   UNL     1      43.858 -17.568   5.376  1.00  0.00     0.724 A 
HETATM   20  N   UNL     1      44.050 -18.333   4.290  1.00  0.00    -0.058 NA
HETATM   21  C   UNL     1      44.223 -19.672   4.445  1.00  0.00     0.160 A 
HETATM   22  C   UNL     1      44.205 -20.264   5.691  1.00  0.00     0.057 A 
HETATM   23  C   UNL     1      44.016 -19.417   6.749  1.00  0.00     0.139 A 
HETATM   24  N   UNL     1      43.842 -18.090   6.613  1.00  0.00    -0.075 NA
BRANCH  21  25
HETATM   25  C   UNL     1      44.383 -20.543   3.214  1.00  0.00     0.435 C 
HETATM   26  F   UNL     1      45.522 -20.314   2.504  1.00  0.00    -0.165 F 
HETATM   27  F   UNL     1      44.402 -21.876   3.519  1.00  0.00    -0.165 F 
HETATM   28  F   UNL     1      43.352 -20.393   2.331  1.00  0.00    -0.165 F 
ENDBRANCH  21  25
ENDBRANCH  16  19
ENDBRANCH  10  13
ENDBRANCH   4   9
BRANCH   1  29
HETATM   29  O   UNL     1      38.740  -9.320   9.340  1.00  0.00    -0.293 OA
BRANCH  29  30
HETATM   30  C   UNL     1      38.601  -8.586  10.470  1.00  0.00     0.365 C 
HETATM   31  N   UNL     1      39.519  -8.825  11.459  1.00  0.00    -0.303 N 
HETATM   32  H   UNL     1      39.348  -8.219  12.251  1.00  0.00     0.171 HD
HETATM   33  O   UNL     1      37.727  -7.741  10.637  1.00  0.00    -0.238 OA
BRANCH  31  34
HETATM   34  C   UNL     1      40.685  -9.608  11.499  1.00  0.00     0.036 A 
HETATM   35  C   UNL     1      40.796 -10.857  12.113  1.00  0.00     0.030 A 
HETATM   36  C   UNL     1      41.984 -11.598  12.025  1.00  0.00     0.017 A 
HETATM   37  C   UNL     1      43.083 -11.091  11.329  1.00  0.00     0.009 A 
HETATM   38  C   UNL     1      42.996  -9.820  10.754  1.00  0.00     0.017 A 
HETATM   39  C   UNL     1      41.807  -9.088  10.839  1.00  0.00     0.030 A 
BRANCH  37  40
HETATM   40  C   UNL     1      44.350 -11.859  11.170  1.00  0.00     0.155 C 
HETATM   41  C   UNL     1      45.567 -11.151  10.635  1.00  0.00     0.096 C 
HETATM   42  O   UNL     1      44.388 -13.047  11.482  1.00  0.00    -0.293 OA
ENDBRANCH  37  40
ENDBRANCH  31  34
ENDBRANCH  29  30
ENDBRANCH   1  29
TORSDOF 8
ENDMDL
MODEL 9
REMARK VINA RESULT:      -9.0      4.711      7.960
REMARK  8 active torsions:
REMARK  status: ('A' for Active; 'I' for Inactive)
REMARK    1  A    between atoms: C_2  and  C_3 
REMARK    2  A    between atoms: C_6  and  N_7 
REMARK       I    between atoms: N_7  and  C_8 
REMARK    3  A    between atoms: C_8  and  O_9 
REMARK    4  A    between atoms: O_9  and  C_10 
REMARK    5  A    between atoms: C_13  and  N_14 
REMARK       I    between atoms: N_14  and  C_15 
REMARK    6  A    between atoms: C_15  and  C_16 
REMARK    7  A    between atoms: N_19  and  C_20 
REMARK    8  A    between atoms: C_22  and  C_23 
ROOT
HETATM    1  C   UNL     1      40.951 -13.180  -0.348  1.00  0.00     0.189 C 
HETATM    2  C   UNL     1      40.346 -12.752   0.993  1.00  0.00     0.184 C 
HETATM    3  C   UNL     1      41.157 -11.532   1.423  1.00  0.00     0.177 C 
HETATM    4  C   UNL     1      41.547 -11.818   2.865  1.00  0.00     0.139 C 
HETATM    5  C   UNL     1      41.599 -13.341   2.851  1.00  0.00     0.196 C 
HETATM    6  O   UNL     1      40.499 -13.754   2.023  1.00  0.00    -0.378 OA
HETATM    7  O   UNL     1      42.330 -11.502   0.586  1.00  0.00    -0.378 OA
HETATM    8  C   UNL     1      41.934 -12.065  -0.671  1.00  0.00     0.203 C 
ENDROOT
BRANCH   4   9
HETATM    9  N   UNL     1      40.574 -11.346   3.852  1.00  0.00    -0.351 N 
HETATM   10  C   UNL     1      40.538 -10.034   4.276  1.00  0.00     0.222 C 
HETATM   11  O   UNL     1      41.139  -9.133   3.705  1.00  0.00    -0.273 OA
HETATM   12  H   UNL     1      40.149 -12.045   4.450  1.00  0.00     0.163 HD
BRANCH  10  13
HETATM   13  C   UNL     1      39.725  -9.837   5.553  1.00  0.00     0.081 C 
HETATM   14  C   UNL     1      39.755 -11.073   6.461  1.00  0.00     0.034 C 
HETATM   15  C   UNL     1      41.035 -11.182   7.290  1.00  0.00     0.142 C 
HETATM   16  N   UNL     1      41.262  -9.916   7.983  1.00  0.00    -0.214 N 
HETATM   17  C   UNL     1      41.416  -8.751   7.121  1.00  0.00     0.142 C 
HETATM   18  C   UNL     1      40.132  -8.567   6.313  1.00  0.00     0.034 C 
BRANCH  16  19
HETATM   19  C   UNL     1      42.091  -9.975   9.097  1.00  0.00     0.724 A 
HETATM   20  N   UNL     1      43.279 -10.587   8.983  1.00  0.00    -0.058 NA
HETATM   21  C   UNL     1      44.055 -10.738  10.090  1.00  0.00     0.160 A 
HETATM   22  C   UNL     1      43.649 -10.279  11.325  1.00  0.00     0.057 A 
HETATM   23  C   UNL     1      42.431  -9.655  11.357  1.00  0.00     0.139 A 
HETATM   24  N   UNL     1      41.650  -9.499  10.273  1.00  0.00    -0.075 NA
BRANCH  21  25
HETATM   25  C   UNL     1      45.373 -11.480   9.972  1.00  0.00     0.435 C 
HETATM   26  F   UNL     1      46.445 -10.686   9.699  1.00  0.00    -0.165 F 
HETATM   27  F   UNL     1      45.695 -12.151  11.119  1.00  0.00    -0.165 F 
HETATM   28  F   UNL     1      45.349 -12.432   8.994  1.00  0.00    -0.165 F 
ENDBRANCH  21  25
ENDBRANCH  16  19
ENDBRANCH  10  13
ENDBRANCH   4   9
BRANCH   1  29
HETATM   29  O   UNL     1      41.676 -14.418  -0.219  1.00  0.00    -0.293 OA
BRANCH  29  30
HETATM   30  C   UNL     1      41.116 -15.478  -0.851  1.00  0.00     0.365 C 
HETATM   31  N   UNL     1      41.348 -16.705  -0.288  1.00  0.00    -0.303 N 
HETATM   32  H   UNL     1      40.876 -17.429  -0.815  1.00  0.00     0.171 HD
HETATM   33  O   UNL     1      40.428 -15.388  -1.864  1.00  0.00    -0.238 OA
BRANCH  31  34
HETATM   34  C   UNL     1      41.960 -17.094   0.915  1.00  0.00     0.036 A 
HETATM   35  C   UNL     1      41.312 -17.219   2.145  1.00  0.00     0.030 A 
HETATM   36  C   UNL     1      41.996 -17.696   3.273  1.00  0.00     0.017 A 
HETATM   37  C   UNL     1      43.346 -18.044   3.186  1.00  0.00     0.009 A 
HETATM   38  C   UNL     1      44.014 -17.875   1.970  1.00  0.00     0.017 A 
HETATM   39  C   UNL     1      43.325 -17.405   0.847  1.00  0.00     0.030 A 
BRANCH  37  40
HETATM   40  C   UNL     1      44.102 -18.597   4.344  1.00  0.00     0.155 C 
HETATM   41  C   UNL     1      44.551 -20.035   4.300  1.00  0.00     0.096 C 
HETATM   42  O   UNL     1      44.356 -17.878   5.308  1.00  0.00    -0.293 OA
ENDBRANCH  37  40
ENDBRANCH  31  34
ENDBRANCH  29  30
ENDBRANCH   1  29
TORSDOF 8
ENDMDL
MODEL 10
REMARK VINA RESULT:      -8.9      5.912      9.186
REMARK  8 active torsions:
REMARK  status: ('A' for Active; 'I' for Inactive)
REMARK    1  A    between atoms: C_2  and  C_3 
REMARK    2  A    between atoms: C_6  and  N_7 
REMARK       I    between atoms: N_7  and  C_8 
REMARK    3  A    between atoms: C_8  and  O_9 
REMARK    4  A    between atoms: O_9  and  C_10 
REMARK    5  A    between atoms: C_13  and  N_14 
REMARK       I    between atoms: N_14  and  C_15 
REMARK    6  A    between atoms: C_15  and  C_16 
REMARK    7  A    between atoms: N_19  and  C_20 
REMARK    8  A    between atoms: C_22  and  C_23 
ROOT
HETATM    1  C   UNL     1      40.747 -13.782   1.008  1.00  0.00     0.189 C 
HETATM    2  C   UNL     1      40.004 -13.208   2.219  1.00  0.00     0.184 C 
HETATM    3  C   UNL     1      41.046 -12.379   2.967  1.00  0.00     0.177 C 
HETATM    4  C   UNL     1      40.933 -12.833   4.415  1.00  0.00     0.139 C 
HETATM    5  C   UNL     1      40.461 -14.270   4.227  1.00  0.00     0.196 C 
HETATM    6  O   UNL     1      39.536 -14.231   3.127  1.00  0.00    -0.378 OA
HETATM    7  O   UNL     1      42.330 -12.748   2.427  1.00  0.00    -0.378 OA
HETATM    8  C   UNL     1      42.099 -13.089   1.054  1.00  0.00     0.203 C 
ENDROOT
BRANCH   4   9
HETATM    9  N   UNL     1      39.962 -12.073   5.205  1.00  0.00    -0.351 N 
HETATM   10  C   UNL     1      40.344 -11.056   6.053  1.00  0.00     0.222 C 
HETATM   11  O   UNL     1      41.464 -10.559   6.035  1.00  0.00    -0.273 OA
HETATM   12  H   UNL     1      39.061 -12.507   5.367  1.00  0.00     0.163 HD
BRANCH  10  13
HETATM   13  C   UNL     1      39.254 -10.657   7.045  1.00  0.00     0.081 C 
HETATM   14  C   UNL     1      39.349 -11.440   8.360  1.00  0.00     0.034 C 
HETATM   15  C   UNL     1      40.416 -10.898   9.311  1.00  0.00     0.142 C 
HETATM   16  N   UNL     1      40.219  -9.459   9.476  1.00  0.00    -0.214 N 
HETATM   17  C   UNL     1      40.307  -8.673   8.251  1.00  0.00     0.142 C 
HETATM   18  C   UNL     1      39.215  -9.143   7.289  1.00  0.00     0.034 C 
BRANCH  16  19
HETATM   19  C   UNL     1      40.784  -8.896  10.613  1.00  0.00     0.724 A 
HETATM   20  N   UNL     1      41.764  -9.563  11.243  1.00  0.00    -0.058 NA
HETATM   21  C   UNL     1      42.256  -9.071  12.410  1.00  0.00     0.160 A 
HETATM   22  C   UNL     1      41.771  -7.904  12.964  1.00  0.00     0.057 A 
HETATM   23  C   UNL     1      40.782  -7.276  12.257  1.00  0.00     0.139 A 
HETATM   24  N   UNL     1      40.283  -7.750  11.101  1.00  0.00    -0.075 NA
BRANCH  21  25
HETATM   25  C   UNL     1      43.323  -9.854  13.151  1.00  0.00     0.435 C 
HETATM   26  F   UNL     1      43.988  -9.142  14.103  1.00  0.00    -0.165 F 
HETATM   27  F   UNL     1      42.812 -10.945  13.799  1.00  0.00    -0.165 F 
HETATM   28  F   UNL     1      44.281 -10.350  12.314  1.00  0.00    -0.165 F 
ENDBRANCH  21  25
ENDBRANCH  16  19
ENDBRANCH  10  13
ENDBRANCH   4   9
BRANCH   1  29
HETATM   29  O   UNL     1      40.945 -15.203   1.147  1.00  0.00    -0.293 OA
BRANCH  29  30
HETATM   30  C   UNL     1      41.460 -15.818   0.055  1.00  0.00     0.365 C 
HETATM   31  N   UNL     1      42.471 -16.712   0.288  1.00  0.00    -0.303 N 
HETATM   32  H   UNL     1      42.775 -17.133  -0.580  1.00  0.00     0.171 HD
HETATM   33  O   UNL     1      41.066 -15.623  -1.092  1.00  0.00    -0.238 OA
BRANCH  31  34
HETATM   34  C   UNL     1      43.019 -17.232   1.473  1.00  0.00     0.036 A 
HETATM   35  C   UNL     1      43.183 -16.524   2.663  1.00  0.00     0.030 A 
HETATM   36  C   UNL     1      43.665 -17.159   3.818  1.00  0.00     0.017 A 
HETATM   37  C   UNL     1      44.000 -18.515   3.790  1.00  0.00     0.009 A 
HETATM   38  C   UNL     1      43.885 -19.219   2.589  1.00  0.00     0.017 A 
HETATM   39  C   UNL     1      43.398 -18.581   1.443  1.00  0.00     0.030 A 
BRANCH  37  40
HETATM   40  C   UNL     1      44.473 -19.244   5.001  1.00  0.00     0.155 C 
HETATM   41  C   UNL     1      44.683 -18.472   6.278  1.00  0.00     0.096 C 
HETATM   42  O   UNL     1      44.676 -20.454   4.946  1.00  0.00    -0.293 OA
ENDBRANCH  37  40
ENDBRANCH  31  34
ENDBRANCH  29  30
ENDBRANCH   1  29
TORSDOF 8
ENDMDL
