MODEL 1
REMARK VINA RESULT:      -8.0      0.000      0.000
REMARK  3 active torsions:
REMARK  status: ('A' for Active; 'I' for Inactive)
REMARK    1  A    between atoms: C_3  and  N_4 
REMARK    2  A    between atoms: C_10  and  O_11 
REMARK    3  A    between atoms: C_14  and  C_15 
ROOT
HETATM    1  N   UNL     1      42.658 -17.466   2.433  1.00  0.00    -0.212 N 
HETATM    2  N   UNL     1      41.874 -17.966   1.441  1.00  0.00    -0.177 NA
HETATM    3  C   UNL     1      41.402 -16.895   0.817  1.00  0.00     0.152 C 
HETATM    4  C   UNL     1      41.896 -15.673   1.333  1.00  0.00     0.027 C 
HETATM    5  C   UNL     1      42.794 -16.071   2.322  1.00  0.00     0.163 C 
HETATM    6  N   UNL     1      43.740 -15.398   3.028  1.00  0.00    -0.208 NA
HETATM    7  C   UNL     1      43.433 -14.247   3.520  1.00  0.00     0.149 C 
HETATM    8  C   UNL     1      42.151 -13.483   3.396  1.00  0.00     0.161 C 
HETATM    9  S   UNL     1      42.038 -12.822   1.714  1.00  0.00    -0.146 SA
HETATM   10  C   UNL     1      41.566 -14.320   0.754  1.00  0.00     0.124 C 
ENDROOT
BRANCH  10  11
HETATM   11  C   UNL     1      40.095 -14.190   0.399  1.00  0.00     0.028 A 
HETATM   12  C   UNL     1      39.759 -14.218  -1.062  1.00  0.00     0.253 A 
HETATM   13  O   UNL     1      40.611 -14.375  -1.930  1.00  0.00    -0.268 OA
HETATM   14  N   UNL     1      38.429 -14.084  -1.386  1.00  0.00    -0.333 N 
HETATM   15  C   UNL     1      37.422 -13.954  -0.469  1.00  0.00     0.091 A 
HETATM   16  H   UNL     1      38.216 -14.096  -2.377  1.00  0.00     0.168 HD
HETATM   17  C   UNL     1      37.704 -13.955   0.838  1.00  0.00     0.018 A 
HETATM   18  C   UNL     1      39.074 -14.082   1.276  1.00  0.00     0.015 A 
ENDBRANCH  10  11
BRANCH   1  19
HETATM   19  C   UNL     1      43.230 -18.366   3.376  1.00  0.00     0.099 A 
HETATM   20  C   UNL     1      44.126 -19.349   2.920  1.00  0.00     0.035 A 
HETATM   21  C   UNL     1      44.722 -20.239   3.818  1.00  0.00     0.002 A 
HETATM   22  C   UNL     1      44.415 -20.171   5.175  1.00  0.00     0.003 A 
HETATM   23  C   UNL     1      43.499 -19.224   5.629  1.00  0.00     0.045 A 
HETATM   24  C   UNL     1      42.905 -18.333   4.733  1.00  0.00     0.145 A 
HETATM   25  F   UNL     1      41.941 -17.540   5.220  1.00  0.00    -0.204 F 
ENDBRANCH   1  19
BRANCH   7  26
HETATM   26  O   UNL     1      44.382 -13.624   4.237  1.00  0.00    -0.347 OA
HETATM   27  H   UNL     1      44.981 -13.193   3.604  1.00  0.00     0.219 HD
ENDBRANCH   7  26
TORSDOF 3
ENDMDL
MODEL 2
REMARK VINA RESULT:      -8.0      2.505      3.381
REMARK  3 active torsions:
REMARK  status: ('A' for Active; 'I' for Inactive)
REMARK    1  A    between atoms: C_3  and  N_4 
REMARK    2  A    between atoms: C_10  and  O_11 
REMARK    3  A    between atoms: C_14  and  C_15 
ROOT
HETATM    1  N   UNL     1      43.750 -18.569   3.345  1.00  0.00    -0.212 N 
HETATM    2  N   UNL     1      43.837 -18.059   2.087  1.00  0.00    -0.177 NA
HETATM    3  C   UNL     1      43.308 -16.847   2.182  1.00  0.00     0.152 C 
HETATM    4  C   UNL     1      42.911 -16.500   3.496  1.00  0.00     0.027 C 
HETATM    5  C   UNL     1      43.302 -17.599   4.259  1.00  0.00     0.163 C 
HETATM    6  N   UNL     1      43.400 -17.798   5.600  1.00  0.00    -0.208 NA
HETATM    7  C   UNL     1      42.432 -17.397   6.350  1.00  0.00     0.149 C 
HETATM    8  C   UNL     1      41.178 -16.676   5.961  1.00  0.00     0.161 C 
HETATM    9  S   UNL     1      41.603 -14.965   5.551  1.00  0.00    -0.146 SA
HETATM   10  C   UNL     1      42.347 -15.155   3.878  1.00  0.00     0.124 C 
ENDROOT
BRANCH  10  11
HETATM   11  C   UNL     1      41.332 -14.649   2.867  1.00  0.00     0.028 A 
HETATM   12  C   UNL     1      41.762 -13.492   2.016  1.00  0.00     0.253 A 
HETATM   13  O   UNL     1      42.882 -12.998   2.096  1.00  0.00    -0.268 OA
HETATM   14  N   UNL     1      40.839 -13.022   1.112  1.00  0.00    -0.333 N 
HETATM   15  C   UNL     1      39.591 -13.556   0.936  1.00  0.00     0.091 A 
HETATM   16  H   UNL     1      41.139 -12.234   0.549  1.00  0.00     0.168 HD
HETATM   17  C   UNL     1      39.205 -14.605   1.669  1.00  0.00     0.018 A 
HETATM   18  C   UNL     1      40.103 -15.165   2.652  1.00  0.00     0.015 A 
ENDBRANCH  10  11
BRANCH   1  19
HETATM   19  C   UNL     1      44.130 -19.923   3.564  1.00  0.00     0.099 A 
HETATM   20  C   UNL     1      44.676 -20.282   4.810  1.00  0.00     0.035 A 
HETATM   21  C   UNL     1      45.044 -21.605   5.069  1.00  0.00     0.002 A 
HETATM   22  C   UNL     1      44.893 -22.578   4.084  1.00  0.00     0.003 A 
HETATM   23  C   UNL     1      44.388 -22.222   2.835  1.00  0.00     0.045 A 
HETATM   24  C   UNL     1      44.017 -20.901   2.575  1.00  0.00     0.145 A 
HETATM   25  F   UNL     1      43.664 -20.610   1.316  1.00  0.00    -0.204 F 
ENDBRANCH   1  19
BRANCH   7  26
HETATM   26  O   UNL     1      42.548 -17.637   7.666  1.00  0.00    -0.347 OA
HETATM   27  H   UNL     1      43.412 -17.287   7.945  1.00  0.00     0.219 HD
ENDBRANCH   7  26
TORSDOF 3
ENDMDL
MODEL 3
REMARK VINA RESULT:      -7.9      1.863      2.443
REMARK  3 active torsions:
REMARK  status: ('A' for Active; 'I' for Inactive)
REMARK    1  A    between atoms: C_3  and  N_4 
REMARK    2  A    between atoms: C_10  and  O_11 
REMARK    3  A    between atoms: C_14  and  C_15 
ROOT
HETATM    1  N   UNL     1      41.984 -16.521   1.726  1.00  0.00    -0.212 N 
HETATM    2  N   UNL     1      41.739 -17.293   0.633  1.00  0.00    -0.177 NA
HETATM    3  C   UNL     1      41.445 -16.426  -0.328  1.00  0.00     0.152 C 
HETATM    4  C   UNL     1      41.539 -15.073   0.079  1.00  0.00     0.027 C 
HETATM    5  C   UNL     1      41.992 -15.154   1.395  1.00  0.00     0.163 C 
HETATM    6  N   UNL     1      42.480 -14.225   2.257  1.00  0.00    -0.208 NA
HETATM    7  C   UNL     1      41.868 -13.095   2.350  1.00  0.00     0.149 C 
HETATM    8  C   UNL     1      40.670 -12.609   1.592  1.00  0.00     0.161 C 
HETATM    9  S   UNL     1      41.183 -12.221  -0.101  1.00  0.00    -0.146 SA
HETATM   10  C   UNL     1      41.322 -13.900  -0.843  1.00  0.00     0.124 C 
ENDROOT
BRANCH  10  11
HETATM   11  C   UNL     1      40.122 -14.098  -1.753  1.00  0.00     0.028 A 
HETATM   12  C   UNL     1      40.416 -14.550  -3.152  1.00  0.00     0.253 A 
HETATM   13  O   UNL     1      41.555 -14.787  -3.541  1.00  0.00    -0.268 OA
HETATM   14  N   UNL     1      39.332 -14.714  -3.982  1.00  0.00    -0.333 N 
HETATM   15  C   UNL     1      38.032 -14.515  -3.601  1.00  0.00     0.091 A 
HETATM   16  H   UNL     1      39.545 -15.011  -4.927  1.00  0.00     0.168 HD
HETATM   17  C   UNL     1      37.754 -14.139  -2.349  1.00  0.00     0.018 A 
HETATM   18  C   UNL     1      38.828 -13.933  -1.405  1.00  0.00     0.015 A 
ENDBRANCH  10  11
BRANCH   1  19
HETATM   19  C   UNL     1      42.218 -17.158   2.977  1.00  0.00     0.099 A 
HETATM   20  C   UNL     1      41.249 -17.045   3.989  1.00  0.00     0.035 A 
HETATM   21  C   UNL     1      41.435 -17.672   5.224  1.00  0.00     0.002 A 
HETATM   22  C   UNL     1      42.596 -18.399   5.470  1.00  0.00     0.003 A 
HETATM   23  C   UNL     1      43.579 -18.485   4.485  1.00  0.00     0.045 A 
HETATM   24  C   UNL     1      43.393 -17.861   3.250  1.00  0.00     0.145 A 
HETATM   25  F   UNL     1      44.431 -17.878   2.403  1.00  0.00    -0.204 F 
ENDBRANCH   1  19
BRANCH   7  26
HETATM   26  O   UNL     1      42.360 -12.212   3.234  1.00  0.00    -0.347 OA
HETATM   27  H   UNL     1      42.434 -12.673   4.087  1.00  0.00     0.219 HD
ENDBRANCH   7  26
TORSDOF 3
ENDMDL
MODEL 4
REMARK VINA RESULT:      -7.5      3.273      4.700
REMARK  3 active torsions:
REMARK  status: ('A' for Active; 'I' for Inactive)
REMARK    1  A    between atoms: C_3  and  N_4 
REMARK    2  A    between atoms: C_10  and  O_11 
REMARK    3  A    between atoms: C_14  and  C_15 
ROOT
HETATM    1  N   UNL     1      42.347 -15.042   1.754  1.00  0.00    -0.212 N 
HETATM    2  N   UNL     1      42.689 -14.018   2.579  1.00  0.00    -0.177 NA
HETATM    3  C   UNL     1      42.324 -12.924   1.923  1.00  0.00     0.152 C 
HETATM    4  C   UNL     1      41.688 -13.189   0.686  1.00  0.00     0.027 C 
HETATM    5  C   UNL     1      41.621 -14.580   0.641  1.00  0.00     0.163 C 
HETATM    6  N   UNL     1      40.946 -15.442  -0.165  1.00  0.00    -0.208 NA
HETATM    7  C   UNL     1      40.952 -15.223  -1.434  1.00  0.00     0.149 C 
HETATM    8  C   UNL     1      41.582 -14.095  -2.192  1.00  0.00     0.161 C 
HETATM    9  S   UNL     1      40.599 -12.599  -1.914  1.00  0.00    -0.146 SA
HETATM   10  C   UNL     1      41.119 -12.121  -0.214  1.00  0.00     0.124 C 
ENDROOT
BRANCH  10  11
HETATM   11  C   UNL     1      42.044 -10.923  -0.339  1.00  0.00     0.028 A 
HETATM   12  C   UNL     1      41.729  -9.746   0.535  1.00  0.00     0.253 A 
HETATM   13  O   UNL     1      40.802  -9.753   1.338  1.00  0.00    -0.268 OA
HETATM   14  N   UNL     1      42.555  -8.654   0.411  1.00  0.00    -0.333 N 
HETATM   15  C   UNL     1      43.635  -8.596  -0.428  1.00  0.00     0.091 A 
HETATM   16  H   UNL     1      42.326  -7.862   1.001  1.00  0.00     0.168 HD
HETATM   17  C   UNL     1      43.944  -9.648  -1.193  1.00  0.00     0.018 A 
HETATM   18  C   UNL     1      43.129 -10.839  -1.138  1.00  0.00     0.015 A 
ENDBRANCH  10  11
BRANCH   1  19
HETATM   19  C   UNL     1      42.716 -16.368   2.115  1.00  0.00     0.099 A 
HETATM   20  C   UNL     1      43.722 -17.018   1.378  1.00  0.00     0.035 A 
HETATM   21  C   UNL     1      44.125 -18.314   1.715  1.00  0.00     0.002 A 
HETATM   22  C   UNL     1      43.516 -18.981   2.775  1.00  0.00     0.003 A 
HETATM   23  C   UNL     1      42.492 -18.357   3.487  1.00  0.00     0.045 A 
HETATM   24  C   UNL     1      42.091 -17.062   3.153  1.00  0.00     0.145 A 
HETATM   25  F   UNL     1      41.019 -16.578   3.794  1.00  0.00    -0.204 F 
ENDBRANCH   1  19
BRANCH   7  26
HETATM   26  O   UNL     1      40.301 -16.111  -2.204  1.00  0.00    -0.347 OA
HETATM   27  H   UNL     1      39.434 -15.724  -2.415  1.00  0.00     0.219 HD
ENDBRANCH   7  26
TORSDOF 3
ENDMDL
MODEL 5
REMARK VINA RESULT:      -7.3      2.629      6.899
REMARK  3 active torsions:
REMARK  status: ('A' for Active; 'I' for Inactive)
REMARK    1  A    between atoms: C_3  and  N_4 
REMARK    2  A    between atoms: C_10  and  O_11 
REMARK    3  A    between atoms: C_14  and  C_15 
ROOT
HETATM    1  N   UNL     1      40.288 -15.549   2.043  1.00  0.00    -0.212 N 
HETATM    2  N   UNL     1      40.035 -16.883   2.130  1.00  0.00    -0.177 NA
HETATM    3  C   UNL     1      40.768 -17.295   3.156  1.00  0.00     0.152 C 
HETATM    4  C   UNL     1      41.475 -16.253   3.805  1.00  0.00     0.027 C 
HETATM    5  C   UNL     1      41.068 -15.106   3.126  1.00  0.00     0.163 C 
HETATM    6  N   UNL     1      41.211 -13.781   3.393  1.00  0.00    -0.208 NA
HETATM    7  C   UNL     1      42.364 -13.357   3.783  1.00  0.00     0.149 C 
HETATM    8  C   UNL     1      43.616 -14.138   4.037  1.00  0.00     0.161 C 
HETATM    9  S   UNL     1      43.410 -15.067   5.577  1.00  0.00    -0.146 SA
HETATM   10  C   UNL     1      42.322 -16.451   5.036  1.00  0.00     0.124 C 
ENDROOT
BRANCH  10  11
HETATM   11  C   UNL     1      43.181 -17.700   4.948  1.00  0.00     0.028 A 
HETATM   12  C   UNL     1      43.391 -18.454   6.228  1.00  0.00     0.253 A 
HETATM   13  O   UNL     1      42.871 -18.112   7.285  1.00  0.00    -0.268 OA
HETATM   14  N   UNL     1      44.182 -19.576   6.153  1.00  0.00    -0.333 N 
HETATM   15  C   UNL     1      44.753 -20.041   4.999  1.00  0.00     0.091 A 
HETATM   16  H   UNL     1      44.323 -20.071   7.026  1.00  0.00     0.168 HD
HETATM   17  C   UNL     1      44.552 -19.394   3.847  1.00  0.00     0.018 A 
HETATM   18  C   UNL     1      43.741 -18.199   3.826  1.00  0.00     0.015 A 
ENDBRANCH  10  11
BRANCH   1  19
HETATM   19  C   UNL     1      39.738 -14.817   0.954  1.00  0.00     0.099 A 
HETATM   20  C   UNL     1      38.407 -14.371   1.038  1.00  0.00     0.035 A 
HETATM   21  C   UNL     1      37.838 -13.632  -0.004  1.00  0.00     0.002 A 
HETATM   22  C   UNL     1      38.582 -13.350  -1.146  1.00  0.00     0.003 A 
HETATM   23  C   UNL     1      39.890 -13.820  -1.253  1.00  0.00     0.045 A 
HETATM   24  C   UNL     1      40.460 -14.556  -0.212  1.00  0.00     0.145 A 
HETATM   25  F   UNL     1      41.670 -15.084  -0.439  1.00  0.00    -0.204 F 
ENDBRANCH   1  19
BRANCH   7  26
HETATM   26  O   UNL     1      42.478 -12.038   4.008  1.00  0.00    -0.347 OA
HETATM   27  H   UNL     1      43.338 -11.896   4.438  1.00  0.00     0.219 HD
ENDBRANCH   7  26
TORSDOF 3
ENDMDL
MODEL 6
REMARK VINA RESULT:      -7.3      2.991      4.591
REMARK  3 active torsions:
REMARK  status: ('A' for Active; 'I' for Inactive)
REMARK    1  A    between atoms: C_3  and  N_4 
REMARK    2  A    between atoms: C_10  and  O_11 
REMARK    3  A    between atoms: C_14  and  C_15 
ROOT
HETATM    1  N   UNL     1      42.250 -17.038   5.133  1.00  0.00    -0.212 N 
HETATM    2  N   UNL     1      42.254 -16.268   6.254  1.00  0.00    -0.177 NA
HETATM    3  C   UNL     1      41.452 -15.252   5.964  1.00  0.00     0.152 C 
HETATM    4  C   UNL     1      40.857 -15.345   4.682  1.00  0.00     0.027 C 
HETATM    5  C   UNL     1      41.311 -16.570   4.197  1.00  0.00     0.163 C 
HETATM    6  N   UNL     1      40.940 -17.331   3.133  1.00  0.00    -0.208 NA
HETATM    7  C   UNL     1      40.755 -16.748   1.999  1.00  0.00     0.149 C 
HETATM    8  C   UNL     1      40.850 -15.291   1.664  1.00  0.00     0.161 C 
HETATM    9  S   UNL     1      39.408 -14.447   2.362  1.00  0.00    -0.146 SA
HETATM   10  C   UNL     1      39.856 -14.354   4.145  1.00  0.00     0.124 C 
ENDROOT
BRANCH  10  11
HETATM   11  C   UNL     1      40.252 -12.918   4.442  1.00  0.00     0.028 A 
HETATM   12  C   UNL     1      39.468 -12.221   5.514  1.00  0.00     0.253 A 
HETATM   13  O   UNL     1      38.580 -12.781   6.148  1.00  0.00    -0.268 OA
HETATM   14  N   UNL     1      39.814 -10.915   5.772  1.00  0.00    -0.333 N 
HETATM   15  C   UNL     1      40.825 -10.246   5.137  1.00  0.00     0.091 A 
HETATM   16  H   UNL     1      39.271 -10.453   6.492  1.00  0.00     0.168 HD
HETATM   17  C   UNL     1      41.550 -10.864   4.200  1.00  0.00     0.018 A 
HETATM   18  C   UNL     1      41.255 -12.235   3.852  1.00  0.00     0.015 A 
ENDBRANCH  10  11
BRANCH   1  19
HETATM   19  C   UNL     1      43.117 -18.164   5.071  1.00  0.00     0.099 A 
HETATM   20  C   UNL     1      43.153 -19.055   6.159  1.00  0.00     0.035 A 
HETATM   21  C   UNL     1      43.978 -20.183   6.127  1.00  0.00     0.002 A 
HETATM   22  C   UNL     1      44.790 -20.422   5.022  1.00  0.00     0.003 A 
HETATM   23  C   UNL     1      44.789 -19.524   3.957  1.00  0.00     0.045 A 
HETATM   24  C   UNL     1      43.963 -18.398   3.986  1.00  0.00     0.145 A 
HETATM   25  F   UNL     1      44.110 -17.515   2.989  1.00  0.00    -0.204 F 
ENDBRANCH   1  19
BRANCH   7  26
HETATM   26  O   UNL     1      40.419 -17.534   0.963  1.00  0.00    -0.347 OA
HETATM   27  H   UNL     1      40.153 -16.948   0.235  1.00  0.00     0.219 HD
ENDBRANCH   7  26
TORSDOF 3
ENDMDL
MODEL 7
REMARK VINA RESULT:      -7.3      3.200      5.178
REMARK  3 active torsions:
REMARK  status: ('A' for Active; 'I' for Inactive)
REMARK    1  A    between atoms: C_3  and  N_4 
REMARK    2  A    between atoms: C_10  and  O_11 
REMARK    3  A    between atoms: C_14  and  C_15 
ROOT
HETATM    1  N   UNL     1      41.865 -15.626   3.834  1.00  0.00    -0.212 N 
HETATM    2  N   UNL     1      42.180 -15.265   5.107  1.00  0.00    -0.177 NA
HETATM    3  C   UNL     1      41.438 -14.191   5.342  1.00  0.00     0.152 C 
HETATM    4  C   UNL     1      40.581 -13.845   4.270  1.00  0.00     0.027 C 
HETATM    5  C   UNL     1      40.801 -14.854   3.334  1.00  0.00     0.163 C 
HETATM    6  N   UNL     1      40.142 -15.216   2.201  1.00  0.00    -0.208 NA
HETATM    7  C   UNL     1      39.781 -14.289   1.382  1.00  0.00     0.149 C 
HETATM    8  C   UNL     1      39.946 -12.806   1.507  1.00  0.00     0.161 C 
HETATM    9  S   UNL     1      38.772 -12.201   2.747  1.00  0.00    -0.146 SA
HETATM   10  C   UNL     1      39.592 -12.708   4.316  1.00  0.00     0.124 C 
ENDROOT
BRANCH  10  11
HETATM   11  C   UNL     1      40.180 -11.459   4.949  1.00  0.00     0.028 A 
HETATM   12  C   UNL     1      39.805 -11.197   6.376  1.00  0.00     0.253 A 
HETATM   13  O   UNL     1      39.094 -11.962   7.020  1.00  0.00    -0.268 OA
HETATM   14  N   UNL     1      40.323 -10.058   6.945  1.00  0.00    -0.333 N 
HETATM   15  C   UNL     1      41.160  -9.187   6.302  1.00  0.00     0.091 A 
HETATM   16  H   UNL     1      40.055  -9.888   7.908  1.00  0.00     0.168 HD
HETATM   17  C   UNL     1      41.525  -9.423   5.038  1.00  0.00     0.018 A 
HETATM   18  C   UNL     1      41.024 -10.591   4.351  1.00  0.00     0.015 A 
ENDBRANCH  10  11
BRANCH   1  19
HETATM   19  C   UNL     1      42.585 -16.691   3.224  1.00  0.00     0.099 A 
HETATM   20  C   UNL     1      43.411 -16.408   2.122  1.00  0.00     0.035 A 
HETATM   21  C   UNL     1      44.149 -17.425   1.508  1.00  0.00     0.002 A 
HETATM   22  C   UNL     1      44.054 -18.734   1.972  1.00  0.00     0.003 A 
HETATM   23  C   UNL     1      43.208 -19.028   3.040  1.00  0.00     0.045 A 
HETATM   24  C   UNL     1      42.473 -18.013   3.656  1.00  0.00     0.145 A 
HETATM   25  F   UNL     1      41.587 -18.390   4.588  1.00  0.00    -0.204 F 
ENDBRANCH   1  19
BRANCH   7  26
HETATM   26  O   UNL     1      39.159 -14.684   0.259  1.00  0.00    -0.347 OA
HETATM   27  H   UNL     1      39.192 -15.656   0.242  1.00  0.00     0.219 HD
ENDBRANCH   7  26
TORSDOF 3
ENDMDL
MODEL 8
REMARK VINA RESULT:      -7.2      3.723      7.317
REMARK  3 active torsions:
REMARK  status: ('A' for Active; 'I' for Inactive)
REMARK    1  A    between atoms: C_3  and  N_4 
REMARK    2  A    between atoms: C_10  and  O_11 
REMARK    3  A    between atoms: C_14  and  C_15 
ROOT
HETATM    1  N   UNL     1      41.685 -15.865   4.004  1.00  0.00    -0.212 N 
HETATM    2  N   UNL     1      41.267 -16.997   3.376  1.00  0.00    -0.177 NA
HETATM    3  C   UNL     1      41.781 -17.986   4.095  1.00  0.00     0.152 C 
HETATM    4  C   UNL     1      42.497 -17.549   5.236  1.00  0.00     0.027 C 
HETATM    5  C   UNL     1      42.336 -16.165   5.215  1.00  0.00     0.163 C 
HETATM    6  N   UNL     1      42.591 -15.196   6.134  1.00  0.00    -0.208 NA
HETATM    7  C   UNL     1      43.712 -15.236   6.768  1.00  0.00     0.149 C 
HETATM    8  C   UNL     1      44.811 -16.250   6.675  1.00  0.00     0.161 C 
HETATM    9  S   UNL     1      44.263 -17.766   7.500  1.00  0.00    -0.146 SA
HETATM   10  C   UNL     1      43.116 -18.479   6.248  1.00  0.00     0.124 C 
ENDROOT
BRANCH  10  11
HETATM   11  C   UNL     1      43.826 -19.651   5.593  1.00  0.00     0.028 A 
HETATM   12  C   UNL     1      43.877 -20.924   6.385  1.00  0.00     0.253 A 
HETATM   13  O   UNL     1      43.345 -21.035   7.485  1.00  0.00    -0.268 OA
HETATM   14  N   UNL     1      44.534 -21.981   5.801  1.00  0.00    -0.333 N 
HETATM   15  C   UNL     1      45.107 -21.940   4.558  1.00  0.00     0.091 A 
HETATM   16  H   UNL     1      44.569 -22.832   6.350  1.00  0.00     0.168 HD
HETATM   17  C   UNL     1      45.045 -20.821   3.831  1.00  0.00     0.018 A 
HETATM   18  C   UNL     1      44.383 -19.654   4.364  1.00  0.00     0.015 A 
ENDBRANCH  10  11
BRANCH   1  19
HETATM   19  C   UNL     1      41.399 -14.604   3.410  1.00  0.00     0.099 A 
HETATM   20  C   UNL     1      42.317 -14.062   2.494  1.00  0.00     0.035 A 
HETATM   21  C   UNL     1      42.062 -12.834   1.875  1.00  0.00     0.002 A 
HETATM   22  C   UNL     1      40.902 -12.127   2.180  1.00  0.00     0.003 A 
HETATM   23  C   UNL     1      40.006 -12.641   3.115  1.00  0.00     0.045 A 
HETATM   24  C   UNL     1      40.258 -13.868   3.731  1.00  0.00     0.145 A 
HETATM   25  F   UNL     1      39.421 -14.235   4.711  1.00  0.00    -0.204 F 
ENDBRANCH   1  19
BRANCH   7  26
HETATM   26  O   UNL     1      43.944 -14.247   7.647  1.00  0.00    -0.347 OA
HETATM   27  H   UNL     1      44.311 -14.658   8.448  1.00  0.00     0.219 HD
ENDBRANCH   7  26
TORSDOF 3
ENDMDL
MODEL 9
REMARK VINA RESULT:      -7.0      2.297      2.874
REMARK  3 active torsions:
REMARK  status: ('A' for Active; 'I' for Inactive)
REMARK    1  A    between atoms: C_3  and  N_4 
REMARK    2  A    between atoms: C_10  and  O_11 
REMARK    3  A    between atoms: C_14  and  C_15 
ROOT
HETATM    1  N   UNL     1      43.225 -16.170   4.244  1.00  0.00    -0.212 N 
HETATM    2  N   UNL     1      43.876 -16.159   3.050  1.00  0.00    -0.177 NA
HETATM    3  C   UNL     1      43.316 -15.166   2.374  1.00  0.00     0.152 C 
HETATM    4  C   UNL     1      42.330 -14.462   3.108  1.00  0.00     0.027 C 
HETATM    5  C   UNL     1      42.358 -15.069   4.363  1.00  0.00     0.163 C 
HETATM    6  N   UNL     1      41.818 -14.726   5.562  1.00  0.00    -0.208 NA
HETATM    7  C   UNL     1      40.595 -14.321   5.588  1.00  0.00     0.149 C 
HETATM    8  C   UNL     1      39.645 -14.124   4.446  1.00  0.00     0.161 C 
HETATM    9  S   UNL     1      40.143 -12.639   3.537  1.00  0.00    -0.146 SA
HETATM   10  C   UNL     1      41.597 -13.251   2.588  1.00  0.00     0.124 C 
ENDROOT
BRANCH  10  11
HETATM   11  C   UNL     1      41.162 -13.420   1.143  1.00  0.00     0.028 A 
HETATM   12  C   UNL     1      41.848 -12.545   0.136  1.00  0.00     0.253 A 
HETATM   13  O   UNL     1      42.739 -11.761   0.446  1.00  0.00    -0.268 OA
HETATM   14  N   UNL     1      41.443 -12.684  -1.170  1.00  0.00    -0.333 N 
HETATM   15  C   UNL     1      40.491 -13.572  -1.592  1.00  0.00     0.091 A 
HETATM   16  H   UNL     1      41.908 -12.081  -1.839  1.00  0.00     0.168 HD
HETATM   17  C   UNL     1      39.891 -14.377  -0.710  1.00  0.00     0.018 A 
HETATM   18  C   UNL     1      40.243 -14.298   0.689  1.00  0.00     0.015 A 
ENDBRANCH  10  11
BRANCH   1  19
HETATM   19  C   UNL     1      43.512 -17.210   5.173  1.00  0.00     0.099 A 
HETATM   20  C   UNL     1      42.954 -18.483   4.961  1.00  0.00     0.035 A 
HETATM   21  C   UNL     1      43.228 -19.534   5.841  1.00  0.00     0.002 A 
HETATM   22  C   UNL     1      44.041 -19.321   6.951  1.00  0.00     0.003 A 
HETATM   23  C   UNL     1      44.568 -18.053   7.188  1.00  0.00     0.045 A 
HETATM   24  C   UNL     1      44.297 -17.003   6.308  1.00  0.00     0.145 A 
HETATM   25  F   UNL     1      44.728 -15.787   6.669  1.00  0.00    -0.204 F 
ENDBRANCH   1  19
BRANCH   7  26
HETATM   26  O   UNL     1      40.084 -14.019   6.793  1.00  0.00    -0.347 OA
HETATM   27  H   UNL     1      39.920 -13.061   6.801  1.00  0.00     0.219 HD
ENDBRANCH   7  26
TORSDOF 3
ENDMDL
MODEL 10
REMARK VINA RESULT:      -6.7      3.018      4.211
REMARK  3 active torsions:
REMARK  status: ('A' for Active; 'I' for Inactive)
REMARK    1  A    between atoms: C_3  and  N_4 
REMARK    2  A    between atoms: C_10  and  O_11 
REMARK    3  A    between atoms: C_14  and  C_15 
ROOT
HETATM    1  N   UNL     1      40.765 -15.450   1.473  1.00  0.00    -0.212 N 
HETATM    2  N   UNL     1      39.704 -15.393   2.322  1.00  0.00    -0.177 NA
HETATM    3  C   UNL     1      39.010 -14.337   1.920  1.00  0.00     0.152 C 
HETATM    4  C   UNL     1      39.552 -13.703   0.775  1.00  0.00     0.027 C 
HETATM    5  C   UNL     1      40.641 -14.506   0.438  1.00  0.00     0.163 C 
HETATM    6  N   UNL     1      41.432 -14.565  -0.666  1.00  0.00    -0.208 NA
HETATM    7  C   UNL     1      41.864 -13.460  -1.168  1.00  0.00     0.149 C 
HETATM    8  C   UNL     1      41.586 -12.055  -0.729  1.00  0.00     0.161 C 
HETATM    9  S   UNL     1      39.889 -11.633  -1.199  1.00  0.00    -0.146 SA
HETATM   10  C   UNL     1      38.913 -12.525   0.083  1.00  0.00     0.124 C 
ENDROOT
BRANCH  10  11
HETATM   11  C   UNL     1      38.398 -11.491   1.068  1.00  0.00     0.028 A 
HETATM   12  C   UNL     1      36.909 -11.339   1.154  1.00  0.00     0.253 A 
HETATM   13  O   UNL     1      36.138 -12.033   0.499  1.00  0.00    -0.268 OA
HETATM   14  N   UNL     1      36.441 -10.390   2.033  1.00  0.00    -0.333 N 
HETATM   15  C   UNL     1      37.241  -9.616   2.829  1.00  0.00     0.091 A 
HETATM   16  H   UNL     1      35.434 -10.292   2.076  1.00  0.00     0.168 HD
HETATM   17  C   UNL     1      38.569  -9.760   2.782  1.00  0.00     0.018 A 
HETATM   18  C   UNL     1      39.156 -10.726   1.882  1.00  0.00     0.015 A 
ENDBRANCH  10  11
BRANCH   1  19
HETATM   19  C   UNL     1      41.782 -16.416   1.709  1.00  0.00     0.099 A 
HETATM   20  C   UNL     1      43.040 -15.982   2.165  1.00  0.00     0.035 A 
HETATM   21  C   UNL     1      44.058 -16.903   2.426  1.00  0.00     0.002 A 
HETATM   22  C   UNL     1      43.840 -18.262   2.215  1.00  0.00     0.003 A 
HETATM   23  C   UNL     1      42.609 -18.697   1.727  1.00  0.00     0.045 A 
HETATM   24  C   UNL     1      41.590 -17.778   1.469  1.00  0.00     0.145 A 
HETATM   25  F   UNL     1      40.484 -18.252   0.882  1.00  0.00    -0.204 F 
ENDBRANCH   1  19
BRANCH   7  26
HETATM   26  O   UNL     1      42.668 -13.557  -2.240  1.00  0.00    -0.347 OA
HETATM   27  H   UNL     1      42.139 -13.306  -3.016  1.00  0.00     0.219 HD
ENDBRANCH   7  26
TORSDOF 3
ENDMDL
