MODEL 1
REMARK VINA RESULT:      -7.6      0.000      0.000
REMARK  7 active torsions:
REMARK  status: ('A' for Active; 'I' for Inactive)
REMARK    1  A    between atoms: C_2  and  N_3 
REMARK    2  A    between atoms: N_3  and  C_4 
REMARK    3  A    between atoms: C_6  and  N_7 
REMARK    4  A    between atoms: N_7  and  C_8 
REMARK    5  A    between atoms: C_8  and  C_9 
REMARK    6  A    between atoms: C_9  and  C_10 
REMARK    7  A    between atoms: C_12  and  O_13 
ROOT
HETATM    1  C   UNL     1      44.176 -18.538   4.345  1.00  0.00     0.119 A 
HETATM    2  N   UNL     1      43.875 -17.724   3.316  1.00  0.00    -0.207 NA
HETATM    3  C   UNL     1      43.789 -18.252   2.085  1.00  0.00     0.181 A 
HETATM    4  N   UNL     1      43.954 -19.552   1.855  1.00  0.00    -0.330 N 
HETATM    5  H   UNL     1      43.805 -19.875   0.908  1.00  0.00     0.168 HD
HETATM    6  C   UNL     1      44.237 -20.409   2.842  1.00  0.00     0.048 A 
HETATM    7  C   UNL     1      44.363 -19.924   4.157  1.00  0.00     0.031 A 
HETATM    8  C   UNL     1      44.396 -21.774   2.560  1.00  0.00     0.030 A 
HETATM    9  C   UNL     1      44.683 -22.673   3.587  1.00  0.00     0.002 A 
HETATM   10  C   UNL     1      44.803 -22.216   4.896  1.00  0.00     0.001 A 
HETATM   11  C   UNL     1      44.641 -20.858   5.182  1.00  0.00     0.017 A 
ENDROOT
BRANCH   3  12
HETATM   12  N   UNL     1      43.500 -17.466   0.974  1.00  0.00    -0.262 NA
HETATM   13  H   UNL     1      44.138 -16.682   0.864  1.00  0.00     0.130 HD
BRANCH  12  14
HETATM   14  C   UNL     1      42.096 -17.036   0.876  1.00  0.00     0.100 C 
BRANCH  14  15
HETATM   15  C   UNL     1      42.025 -15.505   0.814  1.00  0.00     0.053 C 
BRANCH  15  16
HETATM   16  C   UNL     1      41.975 -14.890   2.189  1.00  0.00    -0.054 A 
HETATM   17  C   UNL     1      40.796 -14.950   2.953  1.00  0.00     0.044 A 
HETATM   18  C   UNL     1      40.739 -14.363   4.219  1.00  0.00     0.068 A 
HETATM   19  C   UNL     1      41.866 -13.708   4.720  1.00  0.00     0.037 A 
HETATM   20  C   UNL     1      43.040 -13.640   3.970  1.00  0.00     0.003 A 
HETATM   21  C   UNL     1      43.095 -14.228   2.708  1.00  0.00     0.007 A 
BRANCH  18  22
HETATM   22  O   UNL     1      39.657 -14.353   5.055  1.00  0.00    -0.356 OA
HETATM   23  C   UNL     1      39.495 -13.221   5.898  1.00  0.00     0.210 C 
ENDBRANCH  18  22
ENDBRANCH  15  16
ENDBRANCH  14  15
ENDBRANCH  12  14
ENDBRANCH   3  12
BRANCH   1  24
HETATM   24  N   UNL     1      44.242 -18.002   5.633  1.00  0.00    -0.273 NA
HETATM   25  H   UNL     1      45.191 -17.996   6.001  1.00  0.00     0.129 HD
BRANCH  24  26
HETATM   26  C   UNL     1      43.531 -16.750   5.924  1.00  0.00     0.053 C 
HETATM   27  C   UNL     1      44.343 -15.871   6.875  1.00  0.00     0.026 C 
HETATM   28  C   UNL     1      42.189 -17.112   6.563  1.00  0.00     0.026 C 
ENDBRANCH  24  26
ENDBRANCH   1  24
TORSDOF 7
ENDMDL
MODEL 2
REMARK VINA RESULT:      -7.5      1.499      3.787
REMARK  7 active torsions:
REMARK  status: ('A' for Active; 'I' for Inactive)
REMARK    1  A    between atoms: C_2  and  N_3 
REMARK    2  A    between atoms: N_3  and  C_4 
REMARK    3  A    between atoms: C_6  and  N_7 
REMARK    4  A    between atoms: N_7  and  C_8 
REMARK    5  A    between atoms: C_8  and  C_9 
REMARK    6  A    between atoms: C_9  and  C_10 
REMARK    7  A    between atoms: C_12  and  O_13 
ROOT
HETATM    1  C   UNL     1      43.364 -18.285   2.793  1.00  0.00     0.119 A 
HETATM    2  N   UNL     1      43.574 -17.450   3.828  1.00  0.00    -0.207 NA
HETATM    3  C   UNL     1      44.126 -17.942   4.948  1.00  0.00     0.181 A 
HETATM    4  N   UNL     1      44.506 -19.213   5.054  1.00  0.00    -0.330 N 
HETATM    5  H   UNL     1      44.974 -19.483   5.909  1.00  0.00     0.168 HD
HETATM    6  C   UNL     1      44.339 -20.082   4.053  1.00  0.00     0.048 A 
HETATM    7  C   UNL     1      43.747 -19.642   2.854  1.00  0.00     0.031 A 
HETATM    8  C   UNL     1      44.759 -21.413   4.202  1.00  0.00     0.030 A 
HETATM    9  C   UNL     1      44.595 -22.320   3.156  1.00  0.00     0.002 A 
HETATM   10  C   UNL     1      44.021 -21.904   1.959  1.00  0.00     0.001 A 
HETATM   11  C   UNL     1      43.604 -20.580   1.805  1.00  0.00     0.017 A 
ENDROOT
BRANCH   3  12
HETATM   12  N   UNL     1      44.352 -17.140   6.061  1.00  0.00    -0.262 NA
HETATM   13  H   UNL     1      44.788 -17.641   6.831  1.00  0.00     0.130 HD
BRANCH  12  14
HETATM   14  C   UNL     1      43.181 -16.372   6.512  1.00  0.00     0.100 C 
BRANCH  14  15
HETATM   15  C   UNL     1      43.415 -14.876   6.268  1.00  0.00     0.053 C 
BRANCH  15  16
HETATM   16  C   UNL     1      42.538 -14.346   5.161  1.00  0.00    -0.054 A 
HETATM   17  C   UNL     1      43.112 -13.793   4.003  1.00  0.00     0.044 A 
HETATM   18  C   UNL     1      42.303 -13.282   2.984  1.00  0.00     0.068 A 
HETATM   19  C   UNL     1      40.915 -13.319   3.131  1.00  0.00     0.037 A 
HETATM   20  C   UNL     1      40.336 -13.863   4.277  1.00  0.00     0.003 A 
HETATM   21  C   UNL     1      41.144 -14.375   5.290  1.00  0.00     0.007 A 
BRANCH  18  22
HETATM   22  O   UNL     1      42.737 -12.720   1.816  1.00  0.00    -0.356 OA
HETATM   23  C   UNL     1      41.749 -12.340   0.869  1.00  0.00     0.210 C 
ENDBRANCH  18  22
ENDBRANCH  15  16
ENDBRANCH  14  15
ENDBRANCH  12  14
ENDBRANCH   3  12
BRANCH   1  24
HETATM   24  N   UNL     1      42.815 -17.776   1.615  1.00  0.00    -0.273 NA
HETATM   25  H   UNL     1      42.452 -18.509   1.010  1.00  0.00     0.129 HD
BRANCH  24  26
HETATM   26  C   UNL     1      41.908 -16.623   1.688  1.00  0.00     0.053 C 
HETATM   27  C   UNL     1      40.538 -17.042   2.221  1.00  0.00     0.026 C 
HETATM   28  C   UNL     1      41.767 -16.049   0.277  1.00  0.00     0.026 C 
ENDBRANCH  24  26
ENDBRANCH   1  24
TORSDOF 7
ENDMDL
MODEL 3
REMARK VINA RESULT:      -7.5      2.382      6.645
REMARK  7 active torsions:
REMARK  status: ('A' for Active; 'I' for Inactive)
REMARK    1  A    between atoms: C_2  and  N_3 
REMARK    2  A    between atoms: N_3  and  C_4 
REMARK    3  A    between atoms: C_6  and  N_7 
REMARK    4  A    between atoms: N_7  and  C_8 
REMARK    5  A    between atoms: C_8  and  C_9 
REMARK    6  A    between atoms: C_9  and  C_10 
REMARK    7  A    between atoms: C_12  and  O_13 
ROOT
HETATM    1  C   UNL     1      40.802 -16.043   2.436  1.00  0.00     0.119 A 
HETATM    2  N   UNL     1      41.953 -16.707   2.221  1.00  0.00    -0.207 NA
HETATM    3  C   UNL     1      42.497 -16.667   0.996  1.00  0.00     0.181 A 
HETATM    4  N   UNL     1      41.960 -15.964   0.001  1.00  0.00    -0.330 N 
HETATM    5  H   UNL     1      42.472 -15.934  -0.870  1.00  0.00     0.168 HD
HETATM    6  C   UNL     1      40.829 -15.271   0.163  1.00  0.00     0.048 A 
HETATM    7  C   UNL     1      40.189 -15.284   1.416  1.00  0.00     0.031 A 
HETATM    8  C   UNL     1      40.298 -14.537  -0.909  1.00  0.00     0.030 A 
HETATM    9  C   UNL     1      39.122 -13.806  -0.743  1.00  0.00     0.002 A 
HETATM   10  C   UNL     1      38.478 -13.797   0.491  1.00  0.00     0.001 A 
HETATM   11  C   UNL     1      39.005 -14.524   1.562  1.00  0.00     0.017 A 
ENDROOT
BRANCH   3  12
HETATM   12  N   UNL     1      43.675 -17.345   0.699  1.00  0.00    -0.262 NA
HETATM   13  H   UNL     1      43.608 -17.910  -0.143  1.00  0.00     0.130 HD
BRANCH  12  14
HETATM   14  C   UNL     1      44.238 -18.115   1.821  1.00  0.00     0.100 C 
BRANCH  14  15
HETATM   15  C   UNL     1      43.923 -19.605   1.638  1.00  0.00     0.053 C 
BRANCH  15  16
HETATM   16  C   UNL     1      44.185 -20.391   2.897  1.00  0.00    -0.054 A 
HETATM   17  C   UNL     1      44.187 -19.749   4.149  1.00  0.00     0.044 A 
HETATM   18  C   UNL     1      44.450 -20.471   5.316  1.00  0.00     0.068 A 
HETATM   19  C   UNL     1      44.718 -21.838   5.228  1.00  0.00     0.037 A 
HETATM   20  C   UNL     1      44.720 -22.484   3.992  1.00  0.00     0.003 A 
HETATM   21  C   UNL     1      44.456 -21.763   2.829  1.00  0.00     0.007 A 
BRANCH  18  22
HETATM   22  O   UNL     1      44.483 -19.965   6.585  1.00  0.00    -0.356 OA
HETATM   23  C   UNL     1      43.786 -18.749   6.821  1.00  0.00     0.210 C 
ENDBRANCH  18  22
ENDBRANCH  15  16
ENDBRANCH  14  15
ENDBRANCH  12  14
ENDBRANCH   3  12
BRANCH   1  24
HETATM   24  N   UNL     1      40.242 -16.058   3.715  1.00  0.00    -0.273 NA
HETATM   25  H   UNL     1      39.981 -16.996   4.011  1.00  0.00     0.129 HD
BRANCH  24  26
HETATM   26  C   UNL     1      40.896 -15.303   4.792  1.00  0.00     0.053 C 
HETATM   27  C   UNL     1      41.023 -16.156   6.054  1.00  0.00     0.026 C 
HETATM   28  C   UNL     1      40.044 -14.066   5.080  1.00  0.00     0.026 C 
ENDBRANCH  24  26
ENDBRANCH   1  24
TORSDOF 7
ENDMDL
MODEL 4
REMARK VINA RESULT:      -7.4      2.696      3.890
REMARK  7 active torsions:
REMARK  status: ('A' for Active; 'I' for Inactive)
REMARK    1  A    between atoms: C_2  and  N_3 
REMARK    2  A    between atoms: N_3  and  C_4 
REMARK    3  A    between atoms: C_6  and  N_7 
REMARK    4  A    between atoms: N_7  and  C_8 
REMARK    5  A    between atoms: C_8  and  C_9 
REMARK    6  A    between atoms: C_9  and  C_10 
REMARK    7  A    between atoms: C_12  and  O_13 
ROOT
HETATM    1  C   UNL     1      44.195 -18.393   4.247  1.00  0.00     0.119 A 
HETATM    2  N   UNL     1      43.920 -17.557   3.229  1.00  0.00    -0.207 NA
HETATM    3  C   UNL     1      43.826 -18.063   1.990  1.00  0.00     0.181 A 
HETATM    4  N   UNL     1      43.958 -19.364   1.741  1.00  0.00    -0.330 N 
HETATM    5  H   UNL     1      43.806 -19.668   0.788  1.00  0.00     0.168 HD
HETATM    6  C   UNL     1      44.214 -20.242   2.715  1.00  0.00     0.048 A 
HETATM    7  C   UNL     1      44.346 -19.781   4.038  1.00  0.00     0.031 A 
HETATM    8  C   UNL     1      44.339 -21.607   2.413  1.00  0.00     0.030 A 
HETATM    9  C   UNL     1      44.598 -22.528   3.427  1.00  0.00     0.002 A 
HETATM   10  C   UNL     1      44.723 -22.095   4.744  1.00  0.00     0.001 A 
HETATM   11  C   UNL     1      44.595 -20.738   5.050  1.00  0.00     0.017 A 
ENDROOT
BRANCH   3  12
HETATM   12  N   UNL     1      43.563 -17.253   0.890  1.00  0.00    -0.262 NA
HETATM   13  H   UNL     1      44.123 -16.405   0.877  1.00  0.00     0.130 HD
BRANCH  12  14
HETATM   14  C   UNL     1      42.137 -16.961   0.671  1.00  0.00     0.100 C 
BRANCH  14  15
HETATM   15  C   UNL     1      41.880 -15.461   0.860  1.00  0.00     0.053 C 
BRANCH  15  16
HETATM   16  C   UNL     1      41.141 -14.867  -0.314  1.00  0.00    -0.054 A 
HETATM   17  C   UNL     1      41.075 -15.560  -1.535  1.00  0.00     0.044 A 
HETATM   18  C   UNL     1      40.409 -15.004  -2.631  1.00  0.00     0.068 A 
HETATM   19  C   UNL     1      39.815 -13.747  -2.503  1.00  0.00     0.037 A 
HETATM   20  C   UNL     1      39.877 -13.051  -1.297  1.00  0.00     0.003 A 
HETATM   21  C   UNL     1      40.539 -13.608  -0.204  1.00  0.00     0.007 A 
BRANCH  18  22
HETATM   22  O   UNL     1      40.276 -15.574  -3.866  1.00  0.00    -0.356 OA
HETATM   23  C   UNL     1      39.034 -16.195  -4.167  1.00  0.00     0.210 C 
ENDBRANCH  18  22
ENDBRANCH  15  16
ENDBRANCH  14  15
ENDBRANCH  12  14
ENDBRANCH   3  12
BRANCH   1  24
HETATM   24  N   UNL     1      44.268 -17.879   5.543  1.00  0.00    -0.273 NA
HETATM   25  H   UNL     1      45.223 -17.655   5.816  1.00  0.00     0.129 HD
BRANCH  24  26
HETATM   26  C   UNL     1      43.319 -16.837   5.954  1.00  0.00     0.053 C 
HETATM   27  C   UNL     1      44.056 -15.569   6.384  1.00  0.00     0.026 C 
HETATM   28  C   UNL     1      42.497 -17.386   7.121  1.00  0.00     0.026 C 
ENDBRANCH  24  26
ENDBRANCH   1  24
TORSDOF 7
ENDMDL
MODEL 5
REMARK VINA RESULT:      -7.3      2.399      3.666
REMARK  7 active torsions:
REMARK  status: ('A' for Active; 'I' for Inactive)
REMARK    1  A    between atoms: C_2  and  N_3 
REMARK    2  A    between atoms: N_3  and  C_4 
REMARK    3  A    between atoms: C_6  and  N_7 
REMARK    4  A    between atoms: N_7  and  C_8 
REMARK    5  A    between atoms: C_8  and  C_9 
REMARK    6  A    between atoms: C_9  and  C_10 
REMARK    7  A    between atoms: C_12  and  O_13 
ROOT
HETATM    1  C   UNL     1      44.235 -18.501   4.291  1.00  0.00     0.119 A 
HETATM    2  N   UNL     1      43.943 -17.681   3.264  1.00  0.00    -0.207 NA
HETATM    3  C   UNL     1      43.830 -18.207   2.034  1.00  0.00     0.181 A 
HETATM    4  N   UNL     1      43.959 -19.512   1.805  1.00  0.00    -0.330 N 
HETATM    5  H   UNL     1      43.792 -19.831   0.860  1.00  0.00     0.168 HD
HETATM    6  C   UNL     1      44.231 -20.374   2.789  1.00  0.00     0.048 A 
HETATM    7  C   UNL     1      44.384 -19.891   4.102  1.00  0.00     0.031 A 
HETATM    8  C   UNL     1      44.353 -21.744   2.507  1.00  0.00     0.030 A 
HETATM    9  C   UNL     1      44.628 -22.648   3.532  1.00  0.00     0.002 A 
HETATM   10  C   UNL     1      44.774 -22.193   4.839  1.00  0.00     0.001 A 
HETATM   11  C   UNL     1      44.650 -20.831   5.125  1.00  0.00     0.017 A 
ENDROOT
BRANCH   3  12
HETATM   12  N   UNL     1      43.549 -17.415   0.926  1.00  0.00    -0.262 NA
HETATM   13  H   UNL     1      44.382 -17.023   0.495  1.00  0.00     0.130 HD
BRANCH  12  14
HETATM   14  C   UNL     1      42.524 -16.384   1.154  1.00  0.00     0.100 C 
BRANCH  14  15
HETATM   15  C   UNL     1      41.354 -16.592   0.184  1.00  0.00     0.053 C 
BRANCH  15  16
HETATM   16  C   UNL     1      41.306 -15.519  -0.874  1.00  0.00    -0.054 A 
HETATM   17  C   UNL     1      41.582 -14.181  -0.543  1.00  0.00     0.044 A 
HETATM   18  C   UNL     1      41.518 -13.181  -1.517  1.00  0.00     0.068 A 
HETATM   19  C   UNL     1      41.171 -13.523  -2.825  1.00  0.00     0.037 A 
HETATM   20  C   UNL     1      40.893 -14.847  -3.164  1.00  0.00     0.003 A 
HETATM   21  C   UNL     1      40.959 -15.843  -2.192  1.00  0.00     0.007 A 
BRANCH  18  22
HETATM   22  O   UNL     1      41.761 -11.850  -1.322  1.00  0.00    -0.356 OA
HETATM   23  C   UNL     1      42.864 -11.281  -2.014  1.00  0.00     0.210 C 
ENDBRANCH  18  22
ENDBRANCH  15  16
ENDBRANCH  14  15
ENDBRANCH  12  14
ENDBRANCH   3  12
BRANCH   1  24
HETATM   24  N   UNL     1      44.329 -17.965   5.577  1.00  0.00    -0.273 NA
HETATM   25  H   UNL     1      45.293 -17.881   5.891  1.00  0.00     0.129 HD
BRANCH  24  26
HETATM   26  C   UNL     1      43.533 -16.779   5.918  1.00  0.00     0.053 C 
HETATM   27  C   UNL     1      44.296 -15.871   6.883  1.00  0.00     0.026 C 
HETATM   28  C   UNL     1      42.233 -17.258   6.566  1.00  0.00     0.026 C 
ENDBRANCH  24  26
ENDBRANCH   1  24
TORSDOF 7
ENDMDL
MODEL 6
REMARK VINA RESULT:      -7.1      1.541      1.930
REMARK  7 active torsions:
REMARK  status: ('A' for Active; 'I' for Inactive)
REMARK    1  A    between atoms: C_2  and  N_3 
REMARK    2  A    between atoms: N_3  and  C_4 
REMARK    3  A    between atoms: C_6  and  N_7 
REMARK    4  A    between atoms: N_7  and  C_8 
REMARK    5  A    between atoms: C_8  and  C_9 
REMARK    6  A    between atoms: C_9  and  C_10 
REMARK    7  A    between atoms: C_12  and  O_13 
ROOT
HETATM    1  C   UNL     1      43.686 -18.082   4.213  1.00  0.00     0.119 A 
HETATM    2  N   UNL     1      42.963 -17.187   3.514  1.00  0.00    -0.207 NA
HETATM    3  C   UNL     1      42.520 -17.531   2.295  1.00  0.00     0.181 A 
HETATM    4  N   UNL     1      42.739 -18.736   1.773  1.00  0.00    -0.330 N 
HETATM    5  H   UNL     1      42.312 -18.934   0.877  1.00  0.00     0.168 HD
HETATM    6  C   UNL     1      43.434 -19.669   2.429  1.00  0.00     0.048 A 
HETATM    7  C   UNL     1      43.948 -19.372   3.705  1.00  0.00     0.031 A 
HETATM    8  C   UNL     1      43.637 -20.930   1.847  1.00  0.00     0.030 A 
HETATM    9  C   UNL     1      44.355 -21.910   2.531  1.00  0.00     0.002 A 
HETATM   10  C   UNL     1      44.864 -21.641   3.798  1.00  0.00     0.001 A 
HETATM   11  C   UNL     1      44.661 -20.389   4.383  1.00  0.00     0.017 A 
ENDROOT
BRANCH   3  12
HETATM   12  N   UNL     1      41.784 -16.649   1.511  1.00  0.00    -0.262 NA
HETATM   13  H   UNL     1      42.300 -15.808   1.267  1.00  0.00     0.130 HD
BRANCH  12  14
HETATM   14  C   UNL     1      40.449 -16.327   2.040  1.00  0.00     0.100 C 
BRANCH  14  15
HETATM   15  C   UNL     1      40.243 -14.807   2.039  1.00  0.00     0.053 C 
BRANCH  15  16
HETATM   16  C   UNL     1      40.076 -14.263   3.435  1.00  0.00    -0.054 A 
HETATM   17  C   UNL     1      39.516 -12.990   3.641  1.00  0.00     0.044 A 
HETATM   18  C   UNL     1      39.379 -12.475   4.932  1.00  0.00     0.068 A 
HETATM   19  C   UNL     1      39.811 -13.236   6.021  1.00  0.00     0.037 A 
HETATM   20  C   UNL     1      40.369 -14.499   5.828  1.00  0.00     0.003 A 
HETATM   21  C   UNL     1      40.503 -15.012   4.539  1.00  0.00     0.007 A 
BRANCH  18  22
HETATM   22  O   UNL     1      38.854 -11.257   5.262  1.00  0.00    -0.356 OA
HETATM   23  C   UNL     1      39.536 -10.500   6.253  1.00  0.00     0.210 C 
ENDBRANCH  18  22
ENDBRANCH  15  16
ENDBRANCH  14  15
ENDBRANCH  12  14
ENDBRANCH   3  12
BRANCH   1  24
HETATM   24  N   UNL     1      44.128 -17.742   5.492  1.00  0.00    -0.273 NA
HETATM   25  H   UNL     1      45.118 -17.507   5.509  1.00  0.00     0.129 HD
BRANCH  24  26
HETATM   26  C   UNL     1      43.329 -16.812   6.302  1.00  0.00     0.053 C 
HETATM   27  C   UNL     1      44.155 -15.590   6.701  1.00  0.00     0.026 C 
HETATM   28  C   UNL     1      42.865 -17.562   7.552  1.00  0.00     0.026 C 
ENDBRANCH  24  26
ENDBRANCH   1  24
TORSDOF 7
ENDMDL
MODEL 7
REMARK VINA RESULT:      -6.8      3.525      4.796
REMARK  7 active torsions:
REMARK  status: ('A' for Active; 'I' for Inactive)
REMARK    1  A    between atoms: C_2  and  N_3 
REMARK    2  A    between atoms: N_3  and  C_4 
REMARK    3  A    between atoms: C_6  and  N_7 
REMARK    4  A    between atoms: N_7  and  C_8 
REMARK    5  A    between atoms: C_8  and  C_9 
REMARK    6  A    between atoms: C_9  and  C_10 
REMARK    7  A    between atoms: C_12  and  O_13 
ROOT
HETATM    1  C   UNL     1      43.116 -16.833   3.607  1.00  0.00     0.119 A 
HETATM    2  N   UNL     1      42.698 -16.296   2.446  1.00  0.00    -0.207 NA
HETATM    3  C   UNL     1      42.883 -16.992   1.313  1.00  0.00     0.181 A 
HETATM    4  N   UNL     1      43.429 -18.206   1.306  1.00  0.00    -0.330 N 
HETATM    5  H   UNL     1      43.470 -18.687   0.417  1.00  0.00     0.168 HD
HETATM    6  C   UNL     1      43.846 -18.795   2.431  1.00  0.00     0.048 A 
HETATM    7  C   UNL     1      43.702 -18.116   3.655  1.00  0.00     0.031 A 
HETATM    8  C   UNL     1      44.410 -20.079   2.382  1.00  0.00     0.030 A 
HETATM    9  C   UNL     1      44.838 -20.701   3.554  1.00  0.00     0.002 A 
HETATM   10  C   UNL     1      44.697 -20.051   4.777  1.00  0.00     0.001 A 
HETATM   11  C   UNL     1      44.132 -18.775   4.831  1.00  0.00     0.017 A 
ENDROOT
BRANCH   3  12
HETATM   12  N   UNL     1      42.493 -16.488   0.077  1.00  0.00    -0.262 NA
HETATM   13  H   UNL     1      43.263 -16.081  -0.448  1.00  0.00     0.130 HD
BRANCH  12  14
HETATM   14  C   UNL     1      41.334 -15.583   0.122  1.00  0.00     0.100 C 
BRANCH  14  15
HETATM   15  C   UNL     1      41.412 -14.581  -1.037  1.00  0.00     0.053 C 
BRANCH  15  16
HETATM   16  C   UNL     1      40.361 -14.853  -2.083  1.00  0.00    -0.054 A 
HETATM   17  C   UNL     1      39.255 -13.994  -2.220  1.00  0.00     0.044 A 
HETATM   18  C   UNL     1      38.269 -14.254  -3.175  1.00  0.00     0.068 A 
HETATM   19  C   UNL     1      38.387 -15.382  -3.990  1.00  0.00     0.037 A 
HETATM   20  C   UNL     1      39.478 -16.241  -3.861  1.00  0.00     0.003 A 
HETATM   21  C   UNL     1      40.462 -15.978  -2.910  1.00  0.00     0.007 A 
BRANCH  18  22
HETATM   22  O   UNL     1      37.151 -13.501  -3.404  1.00  0.00    -0.356 OA
HETATM   23  C   UNL     1      37.345 -12.140  -3.764  1.00  0.00     0.210 C 
ENDBRANCH  18  22
ENDBRANCH  15  16
ENDBRANCH  14  15
ENDBRANCH  12  14
ENDBRANCH   3  12
BRANCH   1  24
HETATM   24  N   UNL     1      42.903 -16.127   4.793  1.00  0.00    -0.273 NA
HETATM   25  H   UNL     1      43.433 -15.259   4.826  1.00  0.00     0.129 HD
BRANCH  24  26
HETATM   26  C   UNL     1      41.531 -15.952   5.285  1.00  0.00     0.053 C 
HETATM   27  C   UNL     1      41.273 -14.497   5.674  1.00  0.00     0.026 C 
HETATM   28  C   UNL     1      41.352 -16.859   6.504  1.00  0.00     0.026 C 
ENDBRANCH  24  26
ENDBRANCH   1  24
TORSDOF 7
ENDMDL
MODEL 8
REMARK VINA RESULT:      -6.7      2.724      3.829
REMARK  7 active torsions:
REMARK  status: ('A' for Active; 'I' for Inactive)
REMARK    1  A    between atoms: C_2  and  N_3 
REMARK    2  A    between atoms: N_3  and  C_4 
REMARK    3  A    between atoms: C_6  and  N_7 
REMARK    4  A    between atoms: N_7  and  C_8 
REMARK    5  A    between atoms: C_8  and  C_9 
REMARK    6  A    between atoms: C_9  and  C_10 
REMARK    7  A    between atoms: C_12  and  O_13 
ROOT
HETATM    1  C   UNL     1      43.587 -17.895   4.327  1.00  0.00     0.119 A 
HETATM    2  N   UNL     1      42.748 -17.032   3.723  1.00  0.00    -0.207 NA
HETATM    3  C   UNL     1      42.225 -17.371   2.535  1.00  0.00     0.181 A 
HETATM    4  N   UNL     1      42.477 -18.542   1.954  1.00  0.00    -0.330 N 
HETATM    5  H   UNL     1      41.988 -18.743   1.092  1.00  0.00     0.168 HD
HETATM    6  C   UNL     1      43.288 -19.444   2.516  1.00  0.00     0.048 A 
HETATM    7  C   UNL     1      43.890 -19.149   3.754  1.00  0.00     0.031 A 
HETATM    8  C   UNL     1      43.524 -20.670   1.875  1.00  0.00     0.030 A 
HETATM    9  C   UNL     1      44.362 -21.617   2.462  1.00  0.00     0.002 A 
HETATM   10  C   UNL     1      44.960 -21.349   3.690  1.00  0.00     0.001 A 
HETATM   11  C   UNL     1      44.726 -20.132   4.333  1.00  0.00     0.017 A 
ENDROOT
BRANCH   3  12
HETATM   12  N   UNL     1      41.366 -16.520   1.848  1.00  0.00    -0.262 NA
HETATM   13  H   UNL     1      41.833 -15.983   1.122  1.00  0.00     0.130 HD
BRANCH  12  14
HETATM   14  C   UNL     1      40.541 -15.657   2.708  1.00  0.00     0.100 C 
BRANCH  14  15
HETATM   15  C   UNL     1      40.553 -14.221   2.168  1.00  0.00     0.053 C 
BRANCH  15  16
HETATM   16  C   UNL     1      39.690 -14.077   0.940  1.00  0.00    -0.054 A 
HETATM   17  C   UNL     1      40.269 -14.096  -0.341  1.00  0.00     0.044 A 
HETATM   18  C   UNL     1      39.475 -13.942  -1.481  1.00  0.00     0.068 A 
HETATM   19  C   UNL     1      38.098 -13.762  -1.335  1.00  0.00     0.037 A 
HETATM   20  C   UNL     1      37.514 -13.741  -0.069  1.00  0.00     0.003 A 
HETATM   21  C   UNL     1      38.307 -13.896   1.067  1.00  0.00     0.007 A 
BRANCH  18  22
HETATM   22  O   UNL     1      39.915 -13.941  -2.775  1.00  0.00    -0.356 OA
HETATM   23  C   UNL     1      41.046 -14.744  -3.079  1.00  0.00     0.210 C 
ENDBRANCH  18  22
ENDBRANCH  15  16
ENDBRANCH  14  15
ENDBRANCH  12  14
ENDBRANCH   3  12
BRANCH   1  24
HETATM   24  N   UNL     1      44.116 -17.561   5.575  1.00  0.00    -0.273 NA
HETATM   25  H   UNL     1      45.101 -17.314   5.524  1.00  0.00     0.129 HD
BRANCH  24  26
HETATM   26  C   UNL     1      43.365 -16.652   6.450  1.00  0.00     0.053 C 
HETATM   27  C   UNL     1      44.255 -15.511   6.942  1.00  0.00     0.026 C 
HETATM   28  C   UNL     1      42.851 -17.465   7.640  1.00  0.00     0.026 C 
ENDBRANCH  24  26
ENDBRANCH   1  24
TORSDOF 7
ENDMDL
MODEL 9
REMARK VINA RESULT:      -6.7      4.013      6.194
REMARK  7 active torsions:
REMARK  status: ('A' for Active; 'I' for Inactive)
REMARK    1  A    between atoms: C_2  and  N_3 
REMARK    2  A    between atoms: N_3  and  C_4 
REMARK    3  A    between atoms: C_6  and  N_7 
REMARK    4  A    between atoms: N_7  and  C_8 
REMARK    5  A    between atoms: C_8  and  C_9 
REMARK    6  A    between atoms: C_9  and  C_10 
REMARK    7  A    between atoms: C_12  and  O_13 
ROOT
HETATM    1  C   UNL     1      42.859 -15.752   4.323  1.00  0.00     0.119 A 
HETATM    2  N   UNL     1      42.942 -14.606   5.025  1.00  0.00    -0.207 NA
HETATM    3  C   UNL     1      43.598 -14.617   6.195  1.00  0.00     0.181 A 
HETATM    4  N   UNL     1      44.198 -15.709   6.664  1.00  0.00    -0.330 N 
HETATM    5  H   UNL     1      44.727 -15.612   7.521  1.00  0.00     0.168 HD
HETATM    6  C   UNL     1      44.163 -16.869   6.001  1.00  0.00     0.048 A 
HETATM    7  C   UNL     1      43.475 -16.938   4.775  1.00  0.00     0.031 A 
HETATM    8  C   UNL     1      44.815 -17.996   6.525  1.00  0.00     0.030 A 
HETATM    9  C   UNL     1      44.788 -19.205   5.832  1.00  0.00     0.002 A 
HETATM   10  C   UNL     1      44.121 -19.294   4.614  1.00  0.00     0.001 A 
HETATM   11  C   UNL     1      43.474 -18.173   4.086  1.00  0.00     0.017 A 
ENDROOT
BRANCH   3  12
HETATM   12  N   UNL     1      43.707 -13.474   6.980  1.00  0.00    -0.262 NA
HETATM   13  H   UNL     1      43.947 -12.644   6.445  1.00  0.00     0.130 HD
BRANCH  12  14
HETATM   14  C   UNL     1      44.571 -13.622   8.162  1.00  0.00     0.100 C 
BRANCH  14  15
HETATM   15  C   UNL     1      45.258 -12.286   8.474  1.00  0.00     0.053 C 
BRANCH  15  16
HETATM   16  C   UNL     1      44.475 -11.474   9.475  1.00  0.00    -0.054 A 
HETATM   17  C   UNL     1      43.235 -10.914   9.122  1.00  0.00     0.044 A 
HETATM   18  C   UNL     1      42.517 -10.144  10.040  1.00  0.00     0.068 A 
HETATM   19  C   UNL     1      43.047  -9.929  11.314  1.00  0.00     0.037 A 
HETATM   20  C   UNL     1      44.277 -10.478  11.673  1.00  0.00     0.003 A 
HETATM   21  C   UNL     1      44.991 -11.248  10.757  1.00  0.00     0.007 A 
BRANCH  18  22
HETATM   22  O   UNL     1      41.307  -9.548   9.819  1.00  0.00    -0.356 OA
HETATM   23  C   UNL     1      41.070  -9.013   8.524  1.00  0.00     0.210 C 
ENDBRANCH  18  22
ENDBRANCH  15  16
ENDBRANCH  14  15
ENDBRANCH  12  14
ENDBRANCH   3  12
BRANCH   1  24
HETATM   24  N   UNL     1      42.200 -15.743   3.092  1.00  0.00    -0.273 NA
HETATM   25  H   UNL     1      42.704 -16.269   2.381  1.00  0.00     0.129 HD
BRANCH  24  26
HETATM   26  C   UNL     1      40.756 -16.004   3.050  1.00  0.00     0.053 C 
HETATM   27  C   UNL     1      40.412 -16.983   1.928  1.00  0.00     0.026 C 
HETATM   28  C   UNL     1      40.045 -14.670   2.817  1.00  0.00     0.026 C 
ENDBRANCH  24  26
ENDBRANCH   1  24
TORSDOF 7
ENDMDL
MODEL 10
REMARK VINA RESULT:      -6.6      3.630      7.669
REMARK  7 active torsions:
REMARK  status: ('A' for Active; 'I' for Inactive)
REMARK    1  A    between atoms: C_2  and  N_3 
REMARK    2  A    between atoms: N_3  and  C_4 
REMARK    3  A    between atoms: C_6  and  N_7 
REMARK    4  A    between atoms: N_7  and  C_8 
REMARK    5  A    between atoms: C_8  and  C_9 
REMARK    6  A    between atoms: C_9  and  C_10 
REMARK    7  A    between atoms: C_12  and  O_13 
ROOT
HETATM    1  C   UNL     1      40.191 -13.799   0.094  1.00  0.00     0.119 A 
HETATM    2  N   UNL     1      41.097 -14.324   0.939  1.00  0.00    -0.207 NA
HETATM    3  C   UNL     1      41.847 -15.354   0.517  1.00  0.00     0.181 A 
HETATM    4  N   UNL     1      41.750 -15.846  -0.715  1.00  0.00    -0.330 N 
HETATM    5  H   UNL     1      42.399 -16.578  -0.971  1.00  0.00     0.168 HD
HETATM    6  C   UNL     1      40.880 -15.353  -1.602  1.00  0.00     0.048 A 
HETATM    7  C   UNL     1      40.046 -14.284  -1.224  1.00  0.00     0.031 A 
HETATM    8  C   UNL     1      40.813 -15.895  -2.895  1.00  0.00     0.030 A 
HETATM    9  C   UNL     1      39.913 -15.377  -3.826  1.00  0.00     0.002 A 
HETATM   10  C   UNL     1      39.086 -14.315  -3.475  1.00  0.00     0.001 A 
HETATM   11  C   UNL     1      39.151 -13.769  -2.191  1.00  0.00     0.017 A 
ENDROOT
BRANCH   3  12
HETATM   12  N   UNL     1      42.789 -15.956   1.345  1.00  0.00    -0.262 NA
HETATM   13  H   UNL     1      43.077 -16.874   1.018  1.00  0.00     0.130 HD
BRANCH  12  14
HETATM   14  C   UNL     1      42.425 -15.982   2.770  1.00  0.00     0.100 C 
BRANCH  14  15
HETATM   15  C   UNL     1      41.895 -17.371   3.146  1.00  0.00     0.053 C 
BRANCH  15  16
HETATM   16  C   UNL     1      42.994 -18.272   3.652  1.00  0.00    -0.054 A 
HETATM   17  C   UNL     1      43.285 -19.479   2.992  1.00  0.00     0.044 A 
HETATM   18  C   UNL     1      44.289 -20.325   3.469  1.00  0.00     0.068 A 
HETATM   19  C   UNL     1      44.999 -19.964   4.616  1.00  0.00     0.037 A 
HETATM   20  C   UNL     1      44.718 -18.770   5.279  1.00  0.00     0.003 A 
HETATM   21  C   UNL     1      43.717 -17.925   4.800  1.00  0.00     0.007 A 
BRANCH  18  22
HETATM   22  O   UNL     1      44.663 -21.520   2.921  1.00  0.00    -0.356 OA
HETATM   23  C   UNL     1      44.160 -21.830   1.629  1.00  0.00     0.210 C 
ENDBRANCH  18  22
ENDBRANCH  15  16
ENDBRANCH  14  15
ENDBRANCH  12  14
ENDBRANCH   3  12
BRANCH   1  24
HETATM   24  N   UNL     1      39.425 -12.710   0.515  1.00  0.00    -0.273 NA
HETATM   25  H   UNL     1      39.195 -12.080  -0.250  1.00  0.00     0.129 HD
BRANCH  24  26
HETATM   26  C   UNL     1      38.277 -12.942   1.401  1.00  0.00     0.053 C 
HETATM   27  C   UNL     1      37.434 -14.115   0.903  1.00  0.00     0.026 C 
HETATM   28  C   UNL     1      37.437 -11.664   1.422  1.00  0.00     0.026 C 
ENDBRANCH  24  26
ENDBRANCH   1  24
TORSDOF 7
ENDMDL
