MODEL 1
REMARK VINA RESULT:      -8.5      0.000      0.000
REMARK  4 active torsions:
REMARK  status: ('A' for Active; 'I' for Inactive)
REMARK    1  A    between atoms: C_5  and  N_6 
REMARK       I    between atoms: N_6  and  C_7 
REMARK    2  A    between atoms: C_7  and  C_8 
REMARK    3  A    between atoms: C_8  and  N_9 
REMARK    4  A    between atoms: C_11  and  C_12 
REMARK       I    between atoms: C_12  and  N_13 
ROOT
HETATM    1  N   UNL     1      42.013 -17.428   2.750  1.00  0.00    -0.325 N 
HETATM    2  C   UNL     1      42.241 -16.755   1.560  1.00  0.00     0.240 C 
HETATM    3  O   UNL     1      43.303 -16.690   0.948  1.00  0.00    -0.271 OA
HETATM    4  H   UNL     1      41.060 -17.511   3.077  1.00  0.00     0.169 HD
ENDROOT
BRANCH   2   5
HETATM    5  C   UNL     1      41.006 -16.064   1.003  1.00  0.00     0.230 C 
BRANCH   5   6
HETATM    6  N   UNL     1      41.412 -14.814   0.311  1.00  0.00    -0.357 N 
HETATM    7  C   UNL     1      41.422 -14.780  -1.044  1.00  0.00     0.108 A 
HETATM    8  C   UNL     1      41.717 -13.601  -1.727  1.00  0.00     0.047 A 
HETATM    9  C   UNL     1      42.026 -12.454  -1.001  1.00  0.00     0.020 A 
HETATM   10  C   UNL     1      42.009 -12.508   0.390  1.00  0.00     0.018 A 
HETATM   11  C   UNL     1      41.687 -13.701   1.030  1.00  0.00     0.091 A 
BRANCH   8  12
HETATM   12  C   UNL     1      41.701 -13.667  -3.201  1.00  0.00     0.250 C 
HETATM   13  N   UNL     1      42.109 -12.577  -3.908  1.00  0.00    -0.366 N 
HETATM   14  H   UNL     1      42.285 -11.661  -3.518  1.00  0.00     0.159 HD
HETATM   15  H   UNL     1      42.024 -12.628  -4.919  1.00  0.00     0.159 HD
HETATM   16  O   UNL     1      41.298 -14.684  -3.749  1.00  0.00    -0.268 OA
ENDBRANCH   8  12
ENDBRANCH   5   6
ENDBRANCH   2   5
BRANCH   1  17
HETATM   17  C   UNL     1      42.983 -18.078   3.568  1.00  0.00     0.045 A 
HETATM   18  C   UNL     1      43.456 -19.381   3.200  1.00  0.00     0.001 A 
HETATM   19  C   UNL     1      44.390 -20.026   4.055  1.00  0.00    -0.024 A 
HETATM   20  C   UNL     1      43.079 -20.089   2.025  1.00  0.00     0.014 A 
HETATM   21  C   UNL     1      44.889 -21.300   3.741  1.00  0.00     0.012 A 
HETATM   22  C   UNL     1      44.831 -19.394   5.223  1.00  0.00     0.012 A 
HETATM   23  C   UNL     1      44.490 -21.964   2.584  1.00  0.00     0.001 A 
HETATM   24  C   UNL     1      43.587 -21.358   1.725  1.00  0.00     0.001 A 
HETATM   25  C   UNL     1      44.368 -18.131   5.566  1.00  0.00     0.003 A 
HETATM   26  C   UNL     1      43.452 -17.479   4.746  1.00  0.00     0.030 A 
ENDBRANCH   1  17
TORSDOF 4
ENDMDL
MODEL 2
REMARK VINA RESULT:      -8.4      2.556      3.490
REMARK  4 active torsions:
REMARK  status: ('A' for Active; 'I' for Inactive)
REMARK    1  A    between atoms: C_5  and  N_6 
REMARK       I    between atoms: N_6  and  C_7 
REMARK    2  A    between atoms: C_7  and  C_8 
REMARK    3  A    between atoms: C_8  and  N_9 
REMARK    4  A    between atoms: C_11  and  C_12 
REMARK       I    between atoms: C_12  and  N_13 
ROOT
HETATM    1  N   UNL     1      42.668 -17.741   2.462  1.00  0.00    -0.325 N 
HETATM    2  C   UNL     1      43.213 -16.958   1.458  1.00  0.00     0.240 C 
HETATM    3  O   UNL     1      44.405 -16.840   1.187  1.00  0.00    -0.271 OA
HETATM    4  H   UNL     1      41.664 -17.850   2.492  1.00  0.00     0.169 HD
ENDROOT
BRANCH   2   5
HETATM    5  C   UNL     1      42.176 -16.210   0.636  1.00  0.00     0.230 C 
BRANCH   5   6
HETATM    6  N   UNL     1      41.387 -15.324   1.529  1.00  0.00    -0.357 N 
HETATM    7  C   UNL     1      42.034 -14.444   2.331  1.00  0.00     0.108 A 
HETATM    8  C   UNL     1      41.324 -13.541   3.121  1.00  0.00     0.047 A 
HETATM    9  C   UNL     1      39.933 -13.563   3.096  1.00  0.00     0.020 A 
HETATM   10  C   UNL     1      39.285 -14.473   2.265  1.00  0.00     0.018 A 
HETATM   11  C   UNL     1      40.034 -15.342   1.476  1.00  0.00     0.091 A 
BRANCH   8  12
HETATM   12  C   UNL     1      42.121 -12.623   3.958  1.00  0.00     0.250 C 
HETATM   13  N   UNL     1      41.689 -11.341   4.115  1.00  0.00    -0.366 N 
HETATM   14  H   UNL     1      40.944 -10.908   3.588  1.00  0.00     0.159 HD
HETATM   15  H   UNL     1      42.292 -10.716   4.642  1.00  0.00     0.159 HD
HETATM   16  O   UNL     1      43.159 -13.027   4.465  1.00  0.00    -0.268 OA
ENDBRANCH   8  12
ENDBRANCH   5   6
ENDBRANCH   2   5
BRANCH   1  17
HETATM   17  C   UNL     1      43.376 -18.473   3.461  1.00  0.00     0.045 A 
HETATM   18  C   UNL     1      43.769 -19.826   3.197  1.00  0.00     0.001 A 
HETATM   19  C   UNL     1      44.436 -20.548   4.224  1.00  0.00    -0.024 A 
HETATM   20  C   UNL     1      43.562 -20.517   1.970  1.00  0.00     0.014 A 
HETATM   21  C   UNL     1      44.845 -21.874   4.019  1.00  0.00     0.012 A 
HETATM   22  C   UNL     1      44.698 -19.941   5.457  1.00  0.00     0.012 A 
HETATM   23  C   UNL     1      44.618 -22.518   2.806  1.00  0.00     0.001 A 
HETATM   24  C   UNL     1      43.978 -21.840   1.781  1.00  0.00     0.001 A 
HETATM   25  C   UNL     1      44.316 -18.628   5.698  1.00  0.00     0.003 A 
HETATM   26  C   UNL     1      43.661 -17.901   4.709  1.00  0.00     0.030 A 
ENDBRANCH   1  17
TORSDOF 4
ENDMDL
MODEL 3
REMARK VINA RESULT:      -8.3      1.683      2.946
REMARK  4 active torsions:
REMARK  status: ('A' for Active; 'I' for Inactive)
REMARK    1  A    between atoms: C_5  and  N_6 
REMARK       I    between atoms: N_6  and  C_7 
REMARK    2  A    between atoms: C_7  and  C_8 
REMARK    3  A    between atoms: C_8  and  N_9 
REMARK    4  A    between atoms: C_11  and  C_12 
REMARK       I    between atoms: C_12  and  N_13 
ROOT
HETATM    1  N   UNL     1      42.459 -16.162   2.421  1.00  0.00    -0.325 N 
HETATM    2  C   UNL     1      41.144 -15.843   2.122  1.00  0.00     0.240 C 
HETATM    3  O   UNL     1      40.189 -16.616   2.102  1.00  0.00    -0.271 OA
HETATM    4  H   UNL     1      43.121 -15.406   2.530  1.00  0.00     0.169 HD
ENDROOT
BRANCH   2   5
HETATM    5  C   UNL     1      40.928 -14.370   1.815  1.00  0.00     0.230 C 
BRANCH   5   6
HETATM    6  N   UNL     1      40.203 -14.238   0.525  1.00  0.00    -0.357 N 
HETATM    7  C   UNL     1      40.841 -14.554  -0.629  1.00  0.00     0.108 A 
HETATM    8  C   UNL     1      40.168 -14.522  -1.850  1.00  0.00     0.047 A 
HETATM    9  C   UNL     1      38.830 -14.136  -1.879  1.00  0.00     0.020 A 
HETATM   10  C   UNL     1      38.192 -13.816  -0.683  1.00  0.00     0.018 A 
HETATM   11  C   UNL     1      38.897 -13.884   0.515  1.00  0.00     0.091 A 
BRANCH   8  12
HETATM   12  C   UNL     1      40.949 -14.885  -3.047  1.00  0.00     0.250 C 
HETATM   13  N   UNL     1      42.207 -14.380  -3.184  1.00  0.00    -0.366 N 
HETATM   14  H   UNL     1      42.609 -13.653  -2.610  1.00  0.00     0.159 HD
HETATM   15  H   UNL     1      42.694 -14.594  -4.049  1.00  0.00     0.159 HD
HETATM   16  O   UNL     1      40.440 -15.604  -3.896  1.00  0.00    -0.268 OA
ENDBRANCH   8  12
ENDBRANCH   5   6
ENDBRANCH   2   5
BRANCH   1  17
HETATM   17  C   UNL     1      42.997 -17.463   2.646  1.00  0.00     0.045 A 
HETATM   18  C   UNL     1      43.585 -17.772   3.917  1.00  0.00     0.001 A 
HETATM   19  C   UNL     1      44.152 -19.062   4.102  1.00  0.00    -0.024 A 
HETATM   20  C   UNL     1      43.636 -16.892   5.034  1.00  0.00     0.014 A 
HETATM   21  C   UNL     1      44.739 -19.418   5.326  1.00  0.00     0.012 A 
HETATM   22  C   UNL     1      44.130 -19.998   3.063  1.00  0.00     0.012 A 
HETATM   23  C   UNL     1      44.776 -18.526   6.394  1.00  0.00     0.001 A 
HETATM   24  C   UNL     1      44.223 -17.263   6.248  1.00  0.00     0.001 A 
HETATM   25  C   UNL     1      43.553 -19.689   1.839  1.00  0.00     0.003 A 
HETATM   26  C   UNL     1      42.992 -18.432   1.632  1.00  0.00     0.030 A 
ENDBRANCH   1  17
TORSDOF 4
ENDMDL
MODEL 4
REMARK VINA RESULT:      -8.3      2.704      4.492
REMARK  4 active torsions:
REMARK  status: ('A' for Active; 'I' for Inactive)
REMARK    1  A    between atoms: C_5  and  N_6 
REMARK       I    between atoms: N_6  and  C_7 
REMARK    2  A    between atoms: C_7  and  C_8 
REMARK    3  A    between atoms: C_8  and  N_9 
REMARK    4  A    between atoms: C_11  and  C_12 
REMARK       I    between atoms: C_12  and  N_13 
ROOT
HETATM    1  N   UNL     1      42.624 -18.432   1.725  1.00  0.00    -0.325 N 
HETATM    2  C   UNL     1      43.198 -17.307   1.152  1.00  0.00     0.240 C 
HETATM    3  O   UNL     1      44.397 -17.053   1.081  1.00  0.00    -0.271 OA
HETATM    4  H   UNL     1      41.632 -18.579   1.598  1.00  0.00     0.169 HD
ENDROOT
BRANCH   2   5
HETATM    5  C   UNL     1      42.185 -16.342   0.557  1.00  0.00     0.230 C 
BRANCH   5   6
HETATM    6  N   UNL     1      41.472 -15.639   1.654  1.00  0.00    -0.357 N 
HETATM    7  C   UNL     1      42.186 -15.116   2.681  1.00  0.00     0.108 A 
HETATM    8  C   UNL     1      41.560 -14.379   3.685  1.00  0.00     0.047 A 
HETATM    9  C   UNL     1      40.180 -14.200   3.637  1.00  0.00     0.020 A 
HETATM   10  C   UNL     1      39.464 -14.743   2.574  1.00  0.00     0.018 A 
HETATM   11  C   UNL     1      40.134 -15.452   1.581  1.00  0.00     0.091 A 
BRANCH   8  12
HETATM   12  C   UNL     1      42.424 -13.852   4.758  1.00  0.00     0.250 C 
HETATM   13  N   UNL     1      41.995 -13.944   6.048  1.00  0.00    -0.366 N 
HETATM   14  H   UNL     1      41.063 -14.210   6.334  1.00  0.00     0.159 HD
HETATM   15  H   UNL     1      42.580 -13.514   6.757  1.00  0.00     0.159 HD
HETATM   16  O   UNL     1      43.487 -13.323   4.463  1.00  0.00    -0.268 OA
ENDBRANCH   8  12
ENDBRANCH   5   6
ENDBRANCH   2   5
BRANCH   1  17
HETATM   17  C   UNL     1      43.292 -19.461   2.452  1.00  0.00     0.045 A 
HETATM   18  C   UNL     1      43.625 -19.248   3.830  1.00  0.00     0.001 A 
HETATM   19  C   UNL     1      44.328 -20.271   4.520  1.00  0.00    -0.024 A 
HETATM   20  C   UNL     1      43.292 -18.088   4.585  1.00  0.00     0.014 A 
HETATM   21  C   UNL     1      44.677 -20.116   5.871  1.00  0.00     0.012 A 
HETATM   22  C   UNL     1      44.680 -21.454   3.861  1.00  0.00     0.012 A 
HETATM   23  C   UNL     1      44.339 -18.964   6.574  1.00  0.00     0.001 A 
HETATM   24  C   UNL     1      43.646 -17.950   5.932  1.00  0.00     0.001 A 
HETATM   25  C   UNL     1      44.348 -21.650   2.527  1.00  0.00     0.003 A 
HETATM   26  C   UNL     1      43.660 -20.662   1.829  1.00  0.00     0.030 A 
ENDBRANCH   1  17
TORSDOF 4
ENDMDL
MODEL 5
REMARK VINA RESULT:      -8.3      3.000      4.448
REMARK  4 active torsions:
REMARK  status: ('A' for Active; 'I' for Inactive)
REMARK    1  A    between atoms: C_5  and  N_6 
REMARK       I    between atoms: N_6  and  C_7 
REMARK    2  A    between atoms: C_7  and  C_8 
REMARK    3  A    between atoms: C_8  and  N_9 
REMARK    4  A    between atoms: C_11  and  C_12 
REMARK       I    between atoms: C_12  and  N_13 
ROOT
HETATM    1  N   UNL     1      41.524 -17.167   3.240  1.00  0.00    -0.325 N 
HETATM    2  C   UNL     1      41.539 -16.099   2.357  1.00  0.00     0.240 C 
HETATM    3  O   UNL     1      42.530 -15.503   1.947  1.00  0.00    -0.271 OA
HETATM    4  H   UNL     1      40.649 -17.650   3.392  1.00  0.00     0.169 HD
ENDROOT
BRANCH   2   5
HETATM    5  C   UNL     1      40.157 -15.687   1.876  1.00  0.00     0.230 C 
BRANCH   5   6
HETATM    6  N   UNL     1      39.795 -14.380   2.481  1.00  0.00    -0.357 N 
HETATM    7  C   UNL     1      39.777 -14.257   3.831  1.00  0.00     0.108 A 
HETATM    8  C   UNL     1      39.522 -13.026   4.434  1.00  0.00     0.047 A 
HETATM    9  C   UNL     1      39.262 -11.917   3.632  1.00  0.00     0.020 A 
HETATM   10  C   UNL     1      39.286 -12.063   2.248  1.00  0.00     0.018 A 
HETATM   11  C   UNL     1      39.568 -13.306   1.689  1.00  0.00     0.091 A 
BRANCH   8  12
HETATM   12  C   UNL     1      39.526 -12.996   5.909  1.00  0.00     0.250 C 
HETATM   13  N   UNL     1      40.086 -14.040   6.582  1.00  0.00    -0.366 N 
HETATM   14  H   UNL     1      40.373 -14.915   6.166  1.00  0.00     0.159 HD
HETATM   15  H   UNL     1      40.015 -14.023   7.594  1.00  0.00     0.159 HD
HETATM   16  O   UNL     1      39.004 -12.054   6.488  1.00  0.00    -0.268 OA
ENDBRANCH   8  12
ENDBRANCH   5   6
ENDBRANCH   2   5
BRANCH   1  17
HETATM   17  C   UNL     1      42.637 -17.715   3.944  1.00  0.00     0.045 A 
HETATM   18  C   UNL     1      43.274 -18.898   3.445  1.00  0.00     0.001 A 
HETATM   19  C   UNL     1      44.353 -19.448   4.188  1.00  0.00    -0.024 A 
HETATM   20  C   UNL     1      42.925 -19.573   2.241  1.00  0.00     0.014 A 
HETATM   21  C   UNL     1      45.014 -20.604   3.744  1.00  0.00     0.012 A 
HETATM   22  C   UNL     1      44.775 -18.840   5.375  1.00  0.00     0.012 A 
HETATM   23  C   UNL     1      44.639 -21.239   2.564  1.00  0.00     0.001 A 
HETATM   24  C   UNL     1      43.596 -20.723   1.811  1.00  0.00     0.001 A 
HETATM   25  C   UNL     1      44.153 -17.691   5.845  1.00  0.00     0.003 A 
HETATM   26  C   UNL     1      43.093 -17.134   5.136  1.00  0.00     0.030 A 
ENDBRANCH   1  17
TORSDOF 4
ENDMDL
MODEL 6
REMARK VINA RESULT:      -8.2      2.396      4.637
REMARK  4 active torsions:
REMARK  status: ('A' for Active; 'I' for Inactive)
REMARK    1  A    between atoms: C_5  and  N_6 
REMARK       I    between atoms: N_6  and  C_7 
REMARK    2  A    between atoms: C_7  and  C_8 
REMARK    3  A    between atoms: C_8  and  N_9 
REMARK    4  A    between atoms: C_11  and  C_12 
REMARK       I    between atoms: C_12  and  N_13 
ROOT
HETATM    1  N   UNL     1      41.959 -18.168   1.981  1.00  0.00    -0.325 N 
HETATM    2  C   UNL     1      42.142 -16.944   1.357  1.00  0.00     0.240 C 
HETATM    3  O   UNL     1      43.213 -16.382   1.147  1.00  0.00    -0.271 OA
HETATM    4  H   UNL     1      41.034 -18.576   1.971  1.00  0.00     0.169 HD
ENDROOT
BRANCH   2   5
HETATM    5  C   UNL     1      40.847 -16.294   0.897  1.00  0.00     0.230 C 
BRANCH   5   6
HETATM    6  N   UNL     1      40.582 -15.087   1.721  1.00  0.00    -0.357 N 
HETATM    7  C   UNL     1      40.352 -15.230   3.050  1.00  0.00     0.108 A 
HETATM    8  C   UNL     1      40.181 -14.115   3.870  1.00  0.00     0.047 A 
HETATM    9  C   UNL     1      40.227 -12.843   3.305  1.00  0.00     0.020 A 
HETATM   10  C   UNL     1      40.465 -12.716   1.939  1.00  0.00     0.018 A 
HETATM   11  C   UNL     1      40.653 -13.856   1.163  1.00  0.00     0.091 A 
BRANCH   8  12
HETATM   12  C   UNL     1      39.938 -14.376   5.301  1.00  0.00     0.250 C 
HETATM   13  N   UNL     1      40.017 -15.658   5.754  1.00  0.00    -0.366 N 
HETATM   14  H   UNL     1      40.083 -16.480   5.170  1.00  0.00     0.159 HD
HETATM   15  H   UNL     1      39.780 -15.814   6.729  1.00  0.00     0.159 HD
HETATM   16  O   UNL     1      39.645 -13.443   6.036  1.00  0.00    -0.268 OA
ENDBRANCH   8  12
ENDBRANCH   5   6
ENDBRANCH   2   5
BRANCH   1  17
HETATM   17  C   UNL     1      42.956 -18.967   2.612  1.00  0.00     0.045 A 
HETATM   18  C   UNL     1      43.485 -18.562   3.882  1.00  0.00     0.001 A 
HETATM   19  C   UNL     1      44.509 -19.353   4.470  1.00  0.00    -0.024 A 
HETATM   20  C   UNL     1      43.056 -17.427   4.626  1.00  0.00     0.014 A 
HETATM   21  C   UNL     1      45.061 -19.004   5.712  1.00  0.00     0.012 A 
HETATM   22  C   UNL     1      44.979 -20.497   3.817  1.00  0.00     0.012 A 
HETATM   23  C   UNL     1      44.619 -17.881   6.406  1.00  0.00     0.001 A 
HETATM   24  C   UNL     1      43.615 -17.094   5.864  1.00  0.00     0.001 A 
HETATM   25  C   UNL     1      44.456 -20.882   2.590  1.00  0.00     0.003 A 
HETATM   26  C   UNL     1      43.453 -20.123   1.993  1.00  0.00     0.030 A 
ENDBRANCH   1  17
TORSDOF 4
ENDMDL
MODEL 7
REMARK VINA RESULT:      -8.1      1.610      2.017
REMARK  4 active torsions:
REMARK  status: ('A' for Active; 'I' for Inactive)
REMARK    1  A    between atoms: C_5  and  N_6 
REMARK       I    between atoms: N_6  and  C_7 
REMARK    2  A    between atoms: C_7  and  C_8 
REMARK    3  A    between atoms: C_8  and  N_9 
REMARK    4  A    between atoms: C_11  and  C_12 
REMARK       I    between atoms: C_12  and  N_13 
ROOT
HETATM    1  N   UNL     1      42.275 -16.548   3.726  1.00  0.00    -0.325 N 
HETATM    2  C   UNL     1      42.534 -15.303   3.175  1.00  0.00     0.240 C 
HETATM    3  O   UNL     1      43.637 -14.788   3.017  1.00  0.00    -0.271 OA
HETATM    4  H   UNL     1      41.331 -16.906   3.677  1.00  0.00     0.169 HD
ENDROOT
BRANCH   2   5
HETATM    5  C   UNL     1      41.284 -14.561   2.728  1.00  0.00     0.230 C 
BRANCH   5   6
HETATM    6  N   UNL     1      41.324 -14.374   1.255  1.00  0.00    -0.357 N 
HETATM    7  C   UNL     1      41.730 -13.184   0.749  1.00  0.00     0.108 A 
HETATM    8  C   UNL     1      41.859 -12.999  -0.627  1.00  0.00     0.047 A 
HETATM    9  C   UNL     1      41.542 -14.048  -1.487  1.00  0.00     0.020 A 
HETATM   10  C   UNL     1      41.128 -15.263  -0.948  1.00  0.00     0.018 A 
HETATM   11  C   UNL     1      41.036 -15.410   0.433  1.00  0.00     0.091 A 
BRANCH   8  12
HETATM   12  C   UNL     1      42.309 -11.669  -1.078  1.00  0.00     0.250 C 
HETATM   13  N   UNL     1      41.464 -10.915  -1.835  1.00  0.00    -0.366 N 
HETATM   14  H   UNL     1      40.602 -11.242  -2.248  1.00  0.00     0.159 HD
HETATM   15  H   UNL     1      41.826 -10.033  -2.185  1.00  0.00     0.159 HD
HETATM   16  O   UNL     1      43.435 -11.288  -0.785  1.00  0.00    -0.268 OA
ENDBRANCH   8  12
ENDBRANCH   5   6
ENDBRANCH   2   5
BRANCH   1  17
HETATM   17  C   UNL     1      43.216 -17.432   4.330  1.00  0.00     0.045 A 
HETATM   18  C   UNL     1      43.545 -18.665   3.676  1.00  0.00     0.001 A 
HETATM   19  C   UNL     1      44.453 -19.548   4.319  1.00  0.00    -0.024 A 
HETATM   20  C   UNL     1      43.047 -19.080   2.409  1.00  0.00     0.014 A 
HETATM   21  C   UNL     1      44.813 -20.767   3.722  1.00  0.00     0.012 A 
HETATM   22  C   UNL     1      45.007 -19.212   5.559  1.00  0.00     0.012 A 
HETATM   23  C   UNL     1      44.298 -21.142   2.485  1.00  0.00     0.001 A 
HETATM   24  C   UNL     1      43.417 -20.298   1.827  1.00  0.00     0.001 A 
HETATM   25  C   UNL     1      44.684 -18.013   6.180  1.00  0.00     0.003 A 
HETATM   26  C   UNL     1      43.796 -17.131   5.571  1.00  0.00     0.030 A 
ENDBRANCH   1  17
TORSDOF 4
ENDMDL
MODEL 8
REMARK VINA RESULT:      -8.1      2.571      3.575
REMARK  4 active torsions:
REMARK  status: ('A' for Active; 'I' for Inactive)
REMARK    1  A    between atoms: C_5  and  N_6 
REMARK       I    between atoms: N_6  and  C_7 
REMARK    2  A    between atoms: C_7  and  C_8 
REMARK    3  A    between atoms: C_8  and  N_9 
REMARK    4  A    between atoms: C_11  and  C_12 
REMARK       I    between atoms: C_12  and  N_13 
ROOT
HETATM    1  N   UNL     1      42.530 -16.323   5.742  1.00  0.00    -0.325 N 
HETATM    2  C   UNL     1      41.198 -15.992   5.932  1.00  0.00     0.240 C 
HETATM    3  O   UNL     1      40.318 -16.722   6.379  1.00  0.00    -0.271 OA
HETATM    4  H   UNL     1      43.175 -15.587   5.490  1.00  0.00     0.169 HD
ENDROOT
BRANCH   2   5
HETATM    5  C   UNL     1      40.863 -14.561   5.540  1.00  0.00     0.230 C 
BRANCH   5   6
HETATM    6  N   UNL     1      41.301 -14.318   4.142  1.00  0.00    -0.357 N 
HETATM    7  C   UNL     1      41.016 -15.239   3.189  1.00  0.00     0.108 A 
HETATM    8  C   UNL     1      41.338 -15.006   1.852  1.00  0.00     0.047 A 
HETATM    9  C   UNL     1      41.981 -13.822   1.503  1.00  0.00     0.020 A 
HETATM   10  C   UNL     1      42.265 -12.888   2.496  1.00  0.00     0.018 A 
HETATM   11  C   UNL     1      41.904 -13.151   3.815  1.00  0.00     0.091 A 
BRANCH   8  12
HETATM   12  C   UNL     1      40.985 -16.069   0.891  1.00  0.00     0.250 C 
HETATM   13  N   UNL     1      40.369 -17.191   1.356  1.00  0.00    -0.366 N 
HETATM   14  H   UNL     1      40.259 -17.436   2.330  1.00  0.00     0.159 HD
HETATM   15  H   UNL     1      40.198 -17.931   0.682  1.00  0.00     0.159 HD
HETATM   16  O   UNL     1      41.278 -15.928  -0.289  1.00  0.00    -0.268 OA
ENDBRANCH   8  12
ENDBRANCH   5   6
ENDBRANCH   2   5
BRANCH   1  17
HETATM   17  C   UNL     1      43.128 -17.606   5.913  1.00  0.00     0.045 A 
HETATM   18  C   UNL     1      43.550 -18.346   4.759  1.00  0.00     0.001 A 
HETATM   19  C   UNL     1      44.103 -19.640   4.953  1.00  0.00    -0.024 A 
HETATM   20  C   UNL     1      43.477 -17.883   3.415  1.00  0.00     0.014 A 
HETATM   21  C   UNL     1      44.535 -20.407   3.859  1.00  0.00     0.012 A 
HETATM   22  C   UNL     1      44.229 -20.168   6.242  1.00  0.00     0.012 A 
HETATM   23  C   UNL     1      44.441 -19.922   2.558  1.00  0.00     0.001 A 
HETATM   24  C   UNL     1      43.914 -18.659   2.336  1.00  0.00     0.001 A 
HETATM   25  C   UNL     1      43.821 -19.440   7.351  1.00  0.00     0.003 A 
HETATM   26  C   UNL     1      43.275 -18.170   7.188  1.00  0.00     0.030 A 
ENDBRANCH   1  17
TORSDOF 4
ENDMDL
MODEL 9
REMARK VINA RESULT:      -8.1      2.472      8.043
REMARK  4 active torsions:
REMARK  status: ('A' for Active; 'I' for Inactive)
REMARK    1  A    between atoms: C_5  and  N_6 
REMARK       I    between atoms: N_6  and  C_7 
REMARK    2  A    between atoms: C_7  and  C_8 
REMARK    3  A    between atoms: C_8  and  N_9 
REMARK    4  A    between atoms: C_11  and  C_12 
REMARK       I    between atoms: C_12  and  N_13 
ROOT
HETATM    1  N   UNL     1      42.058 -15.879   0.450  1.00  0.00    -0.325 N 
HETATM    2  C   UNL     1      42.250 -17.168   0.920  1.00  0.00     0.240 C 
HETATM    3  O   UNL     1      41.375 -17.980   1.208  1.00  0.00    -0.271 OA
HETATM    4  H   UNL     1      42.865 -15.362   0.127  1.00  0.00     0.169 HD
ENDROOT
BRANCH   2   5
HETATM    5  C   UNL     1      43.713 -17.558   1.053  1.00  0.00     0.230 C 
BRANCH   5   6
HETATM    6  N   UNL     1      43.887 -18.416   2.253  1.00  0.00    -0.357 N 
HETATM    7  C   UNL     1      44.070 -19.750   2.093  1.00  0.00     0.108 A 
HETATM    8  C   UNL     1      44.319 -20.574   3.190  1.00  0.00     0.047 A 
HETATM    9  C   UNL     1      44.356 -20.016   4.465  1.00  0.00     0.020 A 
HETATM   10  C   UNL     1      44.166 -18.644   4.609  1.00  0.00     0.018 A 
HETATM   11  C   UNL     1      43.944 -17.856   3.483  1.00  0.00     0.091 A 
BRANCH   8  12
HETATM   12  C   UNL     1      44.506 -22.010   2.911  1.00  0.00     0.250 C 
HETATM   13  N   UNL     1      44.735 -22.854   3.955  1.00  0.00    -0.366 N 
HETATM   14  H   UNL     1      44.938 -22.568   4.903  1.00  0.00     0.159 HD
HETATM   15  H   UNL     1      44.925 -23.825   3.727  1.00  0.00     0.159 HD
HETATM   16  O   UNL     1      44.478 -22.402   1.752  1.00  0.00    -0.268 OA
ENDBRANCH   8  12
ENDBRANCH   5   6
ENDBRANCH   2   5
BRANCH   1  17
HETATM   17  C   UNL     1      40.817 -15.188   0.319  1.00  0.00     0.045 A 
HETATM   18  C   UNL     1      40.406 -14.717  -0.971  1.00  0.00     0.001 A 
HETATM   19  C   UNL     1      39.186 -13.994  -1.068  1.00  0.00    -0.024 A 
HETATM   20  C   UNL     1      41.116 -14.927  -2.186  1.00  0.00     0.014 A 
HETATM   21  C   UNL     1      38.735 -13.512  -2.307  1.00  0.00     0.012 A 
HETATM   22  C   UNL     1      38.414 -13.757   0.074  1.00  0.00     0.012 A 
HETATM   23  C   UNL     1      39.462 -13.733  -3.473  1.00  0.00     0.001 A 
HETATM   24  C   UNL     1      40.651 -14.441  -3.414  1.00  0.00     0.001 A 
HETATM   25  C   UNL     1      38.821 -14.223   1.317  1.00  0.00     0.003 A 
HETATM   26  C   UNL     1      40.012 -14.932   1.438  1.00  0.00     0.030 A 
ENDBRANCH   1  17
TORSDOF 4
ENDMDL
MODEL 10
REMARK VINA RESULT:      -8.0      1.888      2.591
REMARK  4 active torsions:
REMARK  status: ('A' for Active; 'I' for Inactive)
REMARK    1  A    between atoms: C_5  and  N_6 
REMARK       I    between atoms: N_6  and  C_7 
REMARK    2  A    between atoms: C_7  and  C_8 
REMARK    3  A    between atoms: C_8  and  N_9 
REMARK    4  A    between atoms: C_11  and  C_12 
REMARK       I    between atoms: C_12  and  N_13 
ROOT
HETATM    1  N   UNL     1      42.593 -15.151   4.272  1.00  0.00    -0.325 N 
HETATM    2  C   UNL     1      43.123 -13.988   3.736  1.00  0.00     0.240 C 
HETATM    3  O   UNL     1      44.313 -13.735   3.569  1.00  0.00    -0.271 OA
HETATM    4  H   UNL     1      41.592 -15.283   4.232  1.00  0.00     0.169 HD
ENDROOT
BRANCH   2   5
HETATM    5  C   UNL     1      42.071 -12.973   3.320  1.00  0.00     0.230 C 
BRANCH   5   6
HETATM    6  N   UNL     1      41.929 -12.989   1.842  1.00  0.00    -0.357 N 
HETATM    7  C   UNL     1      41.762 -14.174   1.205  1.00  0.00     0.108 A 
HETATM    8  C   UNL     1      41.543 -14.221  -0.171  1.00  0.00     0.047 A 
HETATM    9  C   UNL     1      41.519 -13.033  -0.897  1.00  0.00     0.020 A 
HETATM   10  C   UNL     1      41.691 -11.825  -0.225  1.00  0.00     0.018 A 
HETATM   11  C   UNL     1      41.884 -11.825   1.154  1.00  0.00     0.091 A 
BRANCH   8  12
HETATM   12  C   UNL     1      41.372 -15.558  -0.770  1.00  0.00     0.250 C 
HETATM   13  N   UNL     1      41.294 -15.661  -2.126  1.00  0.00    -0.366 N 
HETATM   14  H   UNL     1      41.193 -14.885  -2.766  1.00  0.00     0.159 HD
HETATM   15  H   UNL     1      41.110 -16.585  -2.505  1.00  0.00     0.159 HD
HETATM   16  O   UNL     1      41.277 -16.533  -0.037  1.00  0.00    -0.268 OA
ENDBRANCH   8  12
ENDBRANCH   5   6
ENDBRANCH   2   5
BRANCH   1  17
HETATM   17  C   UNL     1      43.315 -16.238   4.848  1.00  0.00     0.045 A 
HETATM   18  C   UNL     1      43.549 -17.419   4.069  1.00  0.00     0.001 A 
HETATM   19  C   UNL     1      44.233 -18.505   4.680  1.00  0.00    -0.024 A 
HETATM   20  C   UNL     1      43.166 -17.596   2.710  1.00  0.00     0.014 A 
HETATM   21  C   UNL     1      44.492 -19.684   3.963  1.00  0.00     0.012 A 
HETATM   22  C   UNL     1      44.664 -18.411   6.007  1.00  0.00     0.012 A 
HETATM   23  C   UNL     1      44.094 -19.821   2.636  1.00  0.00     0.001 A 
HETATM   24  C   UNL     1      43.433 -18.778   2.009  1.00  0.00     0.001 A 
HETATM   25  C   UNL     1      44.434 -17.260   6.749  1.00  0.00     0.003 A 
HETATM   26  C   UNL     1      43.765 -16.183   6.174  1.00  0.00     0.030 A 
ENDBRANCH   1  17
TORSDOF 4
ENDMDL
