MODEL 1
REMARK VINA RESULT:      -9.1      0.000      0.000
REMARK  6 active torsions:
REMARK  status: ('A' for Active; 'I' for Inactive)
REMARK    1  A    between atoms: C_2  and  C_3 
REMARK    2  A    between atoms: C_6  and  C_7 
REMARK    3  A    between atoms: C_11  and  C_12 
REMARK       I    between atoms: C_12  and  N_13 
REMARK    4  A    between atoms: N_13  and  N_14 
REMARK    5  A    between atoms: C_15  and  C_16 
REMARK    6  A    between atoms: C_17  and  O_18 
ROOT
HETATM    1  C   UNL     1      45.210 -13.373   7.633  1.00  0.00     0.289 C 
HETATM    2  N   UNL     1      44.350 -14.461   7.652  1.00  0.00    -0.241 N 
HETATM    3  O   UNL     1      46.114 -13.231   6.814  1.00  0.00    -0.264 OA
HETATM    4  H   UNL     1      43.637 -14.530   8.362  1.00  0.00     0.192 HD
ENDROOT
BRANCH   1   5
HETATM    5  C   UNL     1      44.980 -12.404   8.676  1.00  0.00     0.121 A 
HETATM    6  N   UNL     1      45.810 -11.334   8.849  1.00  0.00    -0.272 N 
HETATM    7  N   UNL     1      45.471 -10.533   9.869  1.00  0.00    -0.174 NA
HETATM    8  H   UNL     1      46.633 -11.107   8.297  1.00  0.00     0.189 HD
HETATM    9  C   UNL     1      44.351 -11.074  10.371  1.00  0.00     0.089 A 
HETATM   10  C   UNL     1      44.017 -12.260   9.655  1.00  0.00     0.071 A 
BRANCH   9  11
HETATM   11  C   UNL     1      43.638 -10.472  11.502  1.00  0.00    -0.006 A 
HETATM   12  C   UNL     1      43.231 -11.245  12.599  1.00  0.00     0.014 A 
HETATM   13  C   UNL     1      42.553 -10.662  13.675  1.00  0.00     0.008 A 
HETATM   14  C   UNL     1      42.265  -9.293  13.677  1.00  0.00    -0.059 A 
HETATM   15  C   UNL     1      42.671  -8.516  12.586  1.00  0.00     0.008 A 
HETATM   16  C   UNL     1      43.345  -9.101  11.510  1.00  0.00     0.014 A 
BRANCH  14  17
HETATM   17  C   UNL     1      41.550  -8.664  14.845  1.00  0.00     0.034 C 
HETATM   18  C   UNL     1      42.088  -9.166  16.175  1.00  0.00     0.010 C 
ENDBRANCH  14  17
ENDBRANCH   9  11
ENDBRANCH   1   5
BRANCH   2  19
HETATM   19  N   UNL     1      44.431 -15.405   6.675  1.00  0.00    -0.176 NA
HETATM   20  C   UNL     1      43.972 -16.605   6.895  1.00  0.00     0.064 C 
HETATM   21  C   UNL     1      43.406 -17.055   8.227  1.00  0.00     0.073 C 
BRANCH  20  22
HETATM   22  C   UNL     1      44.021 -17.586   5.758  1.00  0.00     0.023 A 
HETATM   23  C   UNL     1      43.334 -17.327   4.560  1.00  0.00     0.077 A 
HETATM   24  C   UNL     1      43.387 -18.229   3.497  1.00  0.00     0.037 A 
HETATM   25  C   UNL     1      44.114 -19.410   3.620  1.00  0.00     0.003 A 
HETATM   26  C   UNL     1      44.783 -19.692   4.809  1.00  0.00     0.001 A 
HETATM   27  C   UNL     1      44.733 -18.789   5.876  1.00  0.00     0.016 A 
BRANCH  23  28
HETATM   28  O   UNL     1      42.580 -16.204   4.343  1.00  0.00    -0.360 OA
HETATM   29  H   UNL     1      42.764 -15.877   3.433  1.00  0.00     0.217 HD
ENDBRANCH  23  28
ENDBRANCH  20  22
ENDBRANCH   2  19
TORSDOF 6
ENDMDL
MODEL 2
REMARK VINA RESULT:      -8.5      2.143     10.442
REMARK  6 active torsions:
REMARK  status: ('A' for Active; 'I' for Inactive)
REMARK    1  A    between atoms: C_2  and  C_3 
REMARK    2  A    between atoms: C_6  and  C_7 
REMARK    3  A    between atoms: C_11  and  C_12 
REMARK       I    between atoms: C_12  and  N_13 
REMARK    4  A    between atoms: N_13  and  N_14 
REMARK    5  A    between atoms: C_15  and  C_16 
REMARK    6  A    between atoms: C_17  and  O_18 
ROOT
HETATM    1  C   UNL     1      44.158 -13.057   7.903  1.00  0.00     0.289 C 
HETATM    2  N   UNL     1      43.238 -12.056   8.173  1.00  0.00    -0.241 N 
HETATM    3  O   UNL     1      45.171 -13.252   8.570  1.00  0.00    -0.264 OA
HETATM    4  H   UNL     1      42.432 -11.934   7.577  1.00  0.00     0.192 HD
ENDROOT
BRANCH   1   5
HETATM    5  C   UNL     1      43.851 -13.862   6.747  1.00  0.00     0.121 A 
HETATM    6  N   UNL     1      43.184 -13.342   5.674  1.00  0.00    -0.272 N 
HETATM    7  N   UNL     1      42.962 -14.220   4.686  1.00  0.00    -0.174 NA
HETATM    8  H   UNL     1      42.849 -12.388   5.570  1.00  0.00     0.189 HD
HETATM    9  C   UNL     1      43.535 -15.359   5.105  1.00  0.00     0.089 A 
HETATM   10  C   UNL     1      44.094 -15.177   6.402  1.00  0.00     0.071 A 
BRANCH   9  11
HETATM   11  C   UNL     1      43.535 -16.575   4.284  1.00  0.00    -0.006 A 
HETATM   12  C   UNL     1      43.448 -16.507   2.887  1.00  0.00     0.014 A 
HETATM   13  C   UNL     1      43.452 -17.672   2.111  1.00  0.00     0.008 A 
HETATM   14  C   UNL     1      43.539 -18.930   2.717  1.00  0.00    -0.059 A 
HETATM   15  C   UNL     1      43.629 -19.003   4.112  1.00  0.00     0.008 A 
HETATM   16  C   UNL     1      43.622 -17.838   4.886  1.00  0.00     0.014 A 
BRANCH  14  17
HETATM   17  C   UNL     1      43.560 -20.182   1.879  1.00  0.00     0.034 C 
HETATM   18  C   UNL     1      44.377 -21.286   2.532  1.00  0.00     0.010 C 
ENDBRANCH  14  17
ENDBRANCH   9  11
ENDBRANCH   1   5
BRANCH   2  19
HETATM   19  N   UNL     1      43.389 -11.277   9.279  1.00  0.00    -0.176 NA
HETATM   20  C   UNL     1      42.359 -10.655   9.779  1.00  0.00     0.064 C 
HETATM   21  C   UNL     1      40.978 -10.682   9.154  1.00  0.00     0.073 C 
BRANCH  20  22
HETATM   22  C   UNL     1      42.569  -9.868  11.042  1.00  0.00     0.023 A 
HETATM   23  C   UNL     1      43.167 -10.463  12.165  1.00  0.00     0.077 A 
HETATM   24  C   UNL     1      43.375  -9.732  13.334  1.00  0.00     0.037 A 
HETATM   25  C   UNL     1      42.976  -8.400  13.405  1.00  0.00     0.003 A 
HETATM   26  C   UNL     1      42.361  -7.800  12.308  1.00  0.00     0.001 A 
HETATM   27  C   UNL     1      42.153  -8.531  11.133  1.00  0.00     0.016 A 
BRANCH  23  28
HETATM   28  O   UNL     1      43.581 -11.768  12.203  1.00  0.00    -0.360 OA
HETATM   29  H   UNL     1      42.984 -12.266  12.807  1.00  0.00     0.217 HD
ENDBRANCH  23  28
ENDBRANCH  20  22
ENDBRANCH   2  19
TORSDOF 6
ENDMDL
MODEL 3
REMARK VINA RESULT:      -8.2      8.912     12.187
REMARK  6 active torsions:
REMARK  status: ('A' for Active; 'I' for Inactive)
REMARK    1  A    between atoms: C_2  and  C_3 
REMARK    2  A    between atoms: C_6  and  C_7 
REMARK    3  A    between atoms: C_11  and  C_12 
REMARK       I    between atoms: C_12  and  N_13 
REMARK    4  A    between atoms: N_13  and  N_14 
REMARK    5  A    between atoms: C_15  and  C_16 
REMARK    6  A    between atoms: C_17  and  O_18 
ROOT
HETATM    1  C   UNL     1      40.666 -14.762  -0.582  1.00  0.00     0.289 C 
HETATM    2  N   UNL     1      41.719 -14.403  -1.409  1.00  0.00    -0.241 N 
HETATM    3  O   UNL     1      39.539 -14.281  -0.663  1.00  0.00    -0.264 OA
HETATM    4  H   UNL     1      42.628 -14.821  -1.282  1.00  0.00     0.192 HD
ENDROOT
BRANCH   1   5
HETATM    5  C   UNL     1      40.994 -15.746   0.419  1.00  0.00     0.121 A 
HETATM    6  N   UNL     1      40.068 -16.173   1.328  1.00  0.00    -0.272 N 
HETATM    7  N   UNL     1      40.531 -17.080   2.201  1.00  0.00    -0.174 NA
HETATM    8  H   UNL     1      39.101 -15.869   1.399  1.00  0.00     0.189 HD
HETATM    9  C   UNL     1      41.805 -17.287   1.836  1.00  0.00     0.089 A 
HETATM   10  C   UNL     1      42.137 -16.457   0.726  1.00  0.00     0.071 A 
BRANCH   9  11
HETATM   11  C   UNL     1      42.667 -18.245   2.536  1.00  0.00    -0.006 A 
HETATM   12  C   UNL     1      43.196 -19.363   1.877  1.00  0.00     0.014 A 
HETATM   13  C   UNL     1      44.020 -20.270   2.552  1.00  0.00     0.008 A 
HETATM   14  C   UNL     1      44.329 -20.081   3.903  1.00  0.00    -0.059 A 
HETATM   15  C   UNL     1      43.807 -18.965   4.565  1.00  0.00     0.008 A 
HETATM   16  C   UNL     1      42.981 -18.060   3.891  1.00  0.00     0.014 A 
BRANCH  14  17
HETATM   17  C   UNL     1      45.231 -21.050   4.624  1.00  0.00     0.034 C 
HETATM   18  C   UNL     1      44.715 -22.477   4.533  1.00  0.00     0.010 C 
ENDBRANCH  14  17
ENDBRANCH   9  11
ENDBRANCH   1   5
BRANCH   2  19
HETATM   19  N   UNL     1      41.509 -13.531  -2.434  1.00  0.00    -0.176 NA
HETATM   20  C   UNL     1      41.930 -12.302  -2.335  1.00  0.00     0.064 C 
HETATM   21  C   UNL     1      42.592 -11.740  -1.092  1.00  0.00     0.073 C 
BRANCH  20  22
HETATM   22  C   UNL     1      41.736 -11.404  -3.523  1.00  0.00     0.023 A 
HETATM   23  C   UNL     1      40.544 -11.448  -4.267  1.00  0.00     0.077 A 
HETATM   24  C   UNL     1      40.355 -10.606  -5.363  1.00  0.00     0.037 A 
HETATM   25  C   UNL     1      41.358  -9.719  -5.743  1.00  0.00     0.003 A 
HETATM   26  C   UNL     1      42.554  -9.678  -5.030  1.00  0.00     0.001 A 
HETATM   27  C   UNL     1      42.746 -10.519  -3.929  1.00  0.00     0.016 A 
BRANCH  23  28
HETATM   28  O   UNL     1      39.504 -12.293  -3.985  1.00  0.00    -0.360 OA
HETATM   29  H   UNL     1      38.690 -11.938  -4.410  1.00  0.00     0.217 HD
ENDBRANCH  23  28
ENDBRANCH  20  22
ENDBRANCH   2  19
TORSDOF 6
ENDMDL
MODEL 4
REMARK VINA RESULT:      -7.9      8.458     12.125
REMARK  6 active torsions:
REMARK  status: ('A' for Active; 'I' for Inactive)
REMARK    1  A    between atoms: C_2  and  C_3 
REMARK    2  A    between atoms: C_6  and  C_7 
REMARK    3  A    between atoms: C_11  and  C_12 
REMARK       I    between atoms: C_12  and  N_13 
REMARK    4  A    between atoms: N_13  and  N_14 
REMARK    5  A    between atoms: C_15  and  C_16 
REMARK    6  A    between atoms: C_17  and  O_18 
ROOT
HETATM    1  C   UNL     1      39.819 -14.829   0.552  1.00  0.00     0.289 C 
HETATM    2  N   UNL     1      39.973 -14.683  -0.818  1.00  0.00    -0.241 N 
HETATM    3  O   UNL     1      38.848 -14.411   1.178  1.00  0.00    -0.264 OA
HETATM    4  H   UNL     1      40.803 -15.032  -1.274  1.00  0.00     0.192 HD
ENDROOT
BRANCH   1   5
HETATM    5  C   UNL     1      40.909 -15.501   1.214  1.00  0.00     0.121 A 
HETATM    6  N   UNL     1      42.050 -14.835   1.560  1.00  0.00    -0.272 N 
HETATM    7  N   UNL     1      42.975 -15.602   2.155  1.00  0.00    -0.174 NA
HETATM    8  H   UNL     1      42.251 -13.851   1.404  1.00  0.00     0.189 HD
HETATM    9  C   UNL     1      42.412 -16.816   2.237  1.00  0.00     0.089 A 
HETATM   10  C   UNL     1      41.116 -16.796   1.645  1.00  0.00     0.071 A 
BRANCH   9  11
HETATM   11  C   UNL     1      43.102 -17.951   2.859  1.00  0.00    -0.006 A 
HETATM   12  C   UNL     1      43.262 -18.031   4.249  1.00  0.00     0.014 A 
HETATM   13  C   UNL     1      43.919 -19.119   4.834  1.00  0.00     0.008 A 
HETATM   14  C   UNL     1      44.435 -20.149   4.041  1.00  0.00    -0.059 A 
HETATM   15  C   UNL     1      44.276 -20.076   2.652  1.00  0.00     0.008 A 
HETATM   16  C   UNL     1      43.622 -18.987   2.069  1.00  0.00     0.014 A 
BRANCH  14  17
HETATM   17  C   UNL     1      45.128 -21.328   4.674  1.00  0.00     0.034 C 
HETATM   18  C   UNL     1      44.642 -22.648   4.095  1.00  0.00     0.010 C 
ENDBRANCH  14  17
ENDBRANCH   9  11
ENDBRANCH   1   5
BRANCH   2  19
HETATM   19  N   UNL     1      38.976 -14.123  -1.557  1.00  0.00    -0.176 NA
HETATM   20  C   UNL     1      38.821 -14.470  -2.803  1.00  0.00     0.064 C 
HETATM   21  C   UNL     1      39.747 -15.425  -3.530  1.00  0.00     0.073 C 
BRANCH  20  22
HETATM   22  C   UNL     1      37.661 -13.876  -3.550  1.00  0.00     0.023 A 
HETATM   23  C   UNL     1      37.480 -12.483  -3.601  1.00  0.00     0.077 A 
HETATM   24  C   UNL     1      36.412 -11.927  -4.305  1.00  0.00     0.037 A 
HETATM   25  C   UNL     1      35.499 -12.753  -4.954  1.00  0.00     0.003 A 
HETATM   26  C   UNL     1      35.650 -14.137  -4.896  1.00  0.00     0.001 A 
HETATM   27  C   UNL     1      36.722 -14.697  -4.193  1.00  0.00     0.016 A 
BRANCH  23  28
HETATM   28  O   UNL     1      38.312 -11.586  -2.985  1.00  0.00    -0.360 OA
HETATM   29  H   UNL     1      39.140 -12.054  -2.732  1.00  0.00     0.217 HD
ENDBRANCH  23  28
ENDBRANCH  20  22
ENDBRANCH   2  19
TORSDOF 6
ENDMDL
MODEL 5
REMARK VINA RESULT:      -7.8      3.583     10.746
REMARK  6 active torsions:
REMARK  status: ('A' for Active; 'I' for Inactive)
REMARK    1  A    between atoms: C_2  and  C_3 
REMARK    2  A    between atoms: C_6  and  C_7 
REMARK    3  A    between atoms: C_11  and  C_12 
REMARK       I    between atoms: C_12  and  N_13 
REMARK    4  A    between atoms: N_13  and  N_14 
REMARK    5  A    between atoms: C_15  and  C_16 
REMARK    6  A    between atoms: C_17  and  O_18 
ROOT
HETATM    1  C   UNL     1      42.875 -13.391   5.870  1.00  0.00     0.289 C 
HETATM    2  N   UNL     1      41.881 -12.495   5.509  1.00  0.00    -0.241 N 
HETATM    3  O   UNL     1      43.551 -13.286   6.890  1.00  0.00    -0.264 OA
HETATM    4  H   UNL     1      41.370 -12.626   4.648  1.00  0.00     0.192 HD
ENDROOT
BRANCH   1   5
HETATM    5  C   UNL     1      43.083 -14.471   4.937  1.00  0.00     0.121 A 
HETATM    6  N   UNL     1      43.186 -14.241   3.595  1.00  0.00    -0.272 N 
HETATM    7  N   UNL     1      43.363 -15.347   2.859  1.00  0.00    -0.174 NA
HETATM    8  H   UNL     1      43.134 -13.340   3.126  1.00  0.00     0.189 HD
HETATM    9  C   UNL     1      43.414 -16.348   3.752  1.00  0.00     0.089 A 
HETATM   10  C   UNL     1      43.230 -15.837   5.069  1.00  0.00     0.071 A 
BRANCH   9  11
HETATM   11  C   UNL     1      43.627 -17.740   3.345  1.00  0.00    -0.006 A 
HETATM   12  C   UNL     1      43.225 -18.197   2.082  1.00  0.00     0.014 A 
HETATM   13  C   UNL     1      43.435 -19.527   1.701  1.00  0.00     0.008 A 
HETATM   14  C   UNL     1      44.047 -20.430   2.576  1.00  0.00    -0.059 A 
HETATM   15  C   UNL     1      44.452 -19.979   3.837  1.00  0.00     0.008 A 
HETATM   16  C   UNL     1      44.240 -18.651   4.218  1.00  0.00     0.014 A 
BRANCH  14  17
HETATM   17  C   UNL     1      44.287 -21.858   2.157  1.00  0.00     0.034 C 
HETATM   18  C   UNL     1      44.623 -22.747   3.344  1.00  0.00     0.010 C 
ENDBRANCH  14  17
ENDBRANCH   9  11
ENDBRANCH   1   5
BRANCH   2  19
HETATM   19  N   UNL     1      41.551 -11.475   6.347  1.00  0.00    -0.176 NA
HETATM   20  C   UNL     1      40.385 -11.465   6.928  1.00  0.00     0.064 C 
HETATM   21  C   UNL     1      39.311 -12.503   6.671  1.00  0.00     0.073 C 
BRANCH  20  22
HETATM   22  C   UNL     1      40.102 -10.353   7.898  1.00  0.00     0.023 A 
HETATM   23  C   UNL     1      40.793 -10.276   9.120  1.00  0.00     0.077 A 
HETATM   24  C   UNL     1      40.542  -9.238  10.017  1.00  0.00     0.037 A 
HETATM   25  C   UNL     1      39.588  -8.270   9.716  1.00  0.00     0.003 A 
HETATM   26  C   UNL     1      38.878  -8.344   8.519  1.00  0.00     0.001 A 
HETATM   27  C   UNL     1      39.128  -9.383   7.616  1.00  0.00     0.016 A 
BRANCH  23  28
HETATM   28  O   UNL     1      41.739 -11.184   9.516  1.00  0.00    -0.360 OA
HETATM   29  H   UNL     1      41.398 -11.664  10.304  1.00  0.00     0.217 HD
ENDBRANCH  23  28
ENDBRANCH  20  22
ENDBRANCH   2  19
TORSDOF 6
ENDMDL
MODEL 6
REMARK VINA RESULT:      -7.7      4.008     10.497
REMARK  6 active torsions:
REMARK  status: ('A' for Active; 'I' for Inactive)
REMARK    1  A    between atoms: C_2  and  C_3 
REMARK    2  A    between atoms: C_6  and  C_7 
REMARK    3  A    between atoms: C_11  and  C_12 
REMARK       I    between atoms: C_12  and  N_13 
REMARK    4  A    between atoms: N_13  and  N_14 
REMARK    5  A    between atoms: C_15  and  C_16 
REMARK    6  A    between atoms: C_17  and  O_18 
ROOT
HETATM    1  C   UNL     1      43.330 -13.691   6.778  1.00  0.00     0.289 C 
HETATM    2  N   UNL     1      42.188 -13.156   6.203  1.00  0.00    -0.241 N 
HETATM    3  O   UNL     1      44.135 -13.035   7.435  1.00  0.00    -0.264 OA
HETATM    4  H   UNL     1      41.573 -13.742   5.659  1.00  0.00     0.192 HD
ENDROOT
BRANCH   1   5
HETATM    5  C   UNL     1      43.526 -15.098   6.533  1.00  0.00     0.121 A 
HETATM    6  N   UNL     1      43.545 -16.003   7.556  1.00  0.00    -0.272 N 
HETATM    7  N   UNL     1      43.751 -17.269   7.168  1.00  0.00    -0.174 NA
HETATM    8  H   UNL     1      43.428 -15.804   8.546  1.00  0.00     0.189 HD
HETATM    9  C   UNL     1      43.839 -17.206   5.830  1.00  0.00     0.089 A 
HETATM   10  C   UNL     1      43.715 -15.856   5.394  1.00  0.00     0.071 A 
BRANCH   9  11
HETATM   11  C   UNL     1      44.042 -18.405   5.009  1.00  0.00    -0.006 A 
HETATM   12  C   UNL     1      43.739 -18.406   3.641  1.00  0.00     0.014 A 
HETATM   13  C   UNL     1      43.938 -19.553   2.864  1.00  0.00     0.008 A 
HETATM   14  C   UNL     1      44.441 -20.724   3.440  1.00  0.00    -0.059 A 
HETATM   15  C   UNL     1      44.748 -20.727   4.805  1.00  0.00     0.008 A 
HETATM   16  C   UNL     1      44.545 -19.582   5.581  1.00  0.00     0.014 A 
BRANCH  14  17
HETATM   17  C   UNL     1      44.670 -21.953   2.598  1.00  0.00     0.034 C 
HETATM   18  C   UNL     1      43.842 -21.928   1.323  1.00  0.00     0.010 C 
ENDBRANCH  14  17
ENDBRANCH   9  11
ENDBRANCH   1   5
BRANCH   2  19
HETATM   19  N   UNL     1      41.865 -11.852   6.423  1.00  0.00    -0.176 NA
HETATM   20  C   UNL     1      40.632 -11.527   6.694  1.00  0.00     0.064 C 
HETATM   21  C   UNL     1      39.487 -12.520   6.708  1.00  0.00     0.073 C 
BRANCH  20  22
HETATM   22  C   UNL     1      40.346 -10.084   7.000  1.00  0.00     0.023 A 
HETATM   23  C   UNL     1      41.245  -9.323   7.766  1.00  0.00     0.077 A 
HETATM   24  C   UNL     1      40.988  -7.980   8.042  1.00  0.00     0.037 A 
HETATM   25  C   UNL     1      39.824  -7.381   7.570  1.00  0.00     0.003 A 
HETATM   26  C   UNL     1      38.911  -8.127   6.828  1.00  0.00     0.001 A 
HETATM   27  C   UNL     1      39.166  -9.474   6.549  1.00  0.00     0.016 A 
BRANCH  23  28
HETATM   28  O   UNL     1      42.410  -9.821   8.287  1.00  0.00    -0.360 OA
HETATM   29  H   UNL     1      42.775 -10.482   7.656  1.00  0.00     0.217 HD
ENDBRANCH  23  28
ENDBRANCH  20  22
ENDBRANCH   2  19
TORSDOF 6
ENDMDL
MODEL 7
REMARK VINA RESULT:      -7.6      4.260     10.952
REMARK  6 active torsions:
REMARK  status: ('A' for Active; 'I' for Inactive)
REMARK    1  A    between atoms: C_2  and  C_3 
REMARK    2  A    between atoms: C_6  and  C_7 
REMARK    3  A    between atoms: C_11  and  C_12 
REMARK       I    between atoms: C_12  and  N_13 
REMARK    4  A    between atoms: N_13  and  N_14 
REMARK    5  A    between atoms: C_15  and  C_16 
REMARK    6  A    between atoms: C_17  and  O_18 
ROOT
HETATM    1  C   UNL     1      39.451 -12.959   5.666  1.00  0.00     0.289 C 
HETATM    2  N   UNL     1      39.915 -12.915   6.972  1.00  0.00    -0.241 N 
HETATM    3  O   UNL     1      38.636 -12.164   5.203  1.00  0.00    -0.264 OA
HETATM    4  H   UNL     1      40.571 -13.608   7.299  1.00  0.00     0.192 HD
ENDROOT
BRANCH   1   5
HETATM    5  C   UNL     1      39.984 -14.038   4.872  1.00  0.00     0.121 A 
HETATM    6  N   UNL     1      39.591 -14.231   3.578  1.00  0.00    -0.272 N 
HETATM    7  N   UNL     1      40.166 -15.284   2.980  1.00  0.00    -0.174 NA
HETATM    8  H   UNL     1      38.922 -13.673   3.056  1.00  0.00     0.189 HD
HETATM    9  C   UNL     1      40.999 -15.789   3.903  1.00  0.00     0.089 A 
HETATM   10  C   UNL     1      40.904 -15.040   5.111  1.00  0.00     0.071 A 
BRANCH   9  11
HETATM   11  C   UNL     1      41.848 -16.953   3.627  1.00  0.00    -0.006 A 
HETATM   12  C   UNL     1      42.646 -17.522   4.629  1.00  0.00     0.014 A 
HETATM   13  C   UNL     1      43.451 -18.635   4.359  1.00  0.00     0.008 A 
HETATM   14  C   UNL     1      43.478 -19.199   3.080  1.00  0.00    -0.059 A 
HETATM   15  C   UNL     1      42.681 -18.637   2.076  1.00  0.00     0.008 A 
HETATM   16  C   UNL     1      41.880 -17.523   2.347  1.00  0.00     0.014 A 
BRANCH  14  17
HETATM   17  C   UNL     1      44.332 -20.408   2.795  1.00  0.00     0.034 C 
HETATM   18  C   UNL     1      43.675 -21.342   1.792  1.00  0.00     0.010 C 
ENDBRANCH  14  17
ENDBRANCH   9  11
ENDBRANCH   1   5
BRANCH   2  19
HETATM   19  N   UNL     1      39.531 -11.900   7.793  1.00  0.00    -0.176 NA
HETATM   20  C   UNL     1      40.379 -10.957   8.096  1.00  0.00     0.064 C 
HETATM   21  C   UNL     1      41.825 -10.952   7.643  1.00  0.00     0.073 C 
BRANCH  20  22
HETATM   22  C   UNL     1      39.881  -9.823   8.947  1.00  0.00     0.023 A 
HETATM   23  C   UNL     1      38.889  -8.951   8.468  1.00  0.00     0.077 A 
HETATM   24  C   UNL     1      38.415  -7.905   9.260  1.00  0.00     0.037 A 
HETATM   25  C   UNL     1      38.935  -7.705  10.536  1.00  0.00     0.003 A 
HETATM   26  C   UNL     1      39.935  -8.548  11.018  1.00  0.00     0.001 A 
HETATM   27  C   UNL     1      40.411  -9.598  10.227  1.00  0.00     0.016 A 
BRANCH  23  28
HETATM   28  O   UNL     1      38.323  -9.053   7.225  1.00  0.00    -0.360 OA
HETATM   29  H   UNL     1      38.147 -10.004   7.041  1.00  0.00     0.217 HD
ENDBRANCH  23  28
ENDBRANCH  20  22
ENDBRANCH   2  19
TORSDOF 6
ENDMDL
MODEL 8
REMARK VINA RESULT:      -7.6      3.320     10.650
REMARK  6 active torsions:
REMARK  status: ('A' for Active; 'I' for Inactive)
REMARK    1  A    between atoms: C_2  and  C_3 
REMARK    2  A    between atoms: C_6  and  C_7 
REMARK    3  A    between atoms: C_11  and  C_12 
REMARK       I    between atoms: C_12  and  N_13 
REMARK    4  A    between atoms: N_13  and  N_14 
REMARK    5  A    between atoms: C_15  and  C_16 
REMARK    6  A    between atoms: C_17  and  O_18 
ROOT
HETATM    1  C   UNL     1      41.781 -12.562   5.035  1.00  0.00     0.289 C 
HETATM    2  N   UNL     1      41.894 -12.516   6.416  1.00  0.00    -0.241 N 
HETATM    3  O   UNL     1      41.191 -11.714   4.370  1.00  0.00    -0.264 OA
HETATM    4  H   UNL     1      42.377 -13.252   6.909  1.00  0.00     0.192 HD
ENDROOT
BRANCH   1   5
HETATM    5  C   UNL     1      42.399 -13.708   4.417  1.00  0.00     0.121 A 
HETATM    6  N   UNL     1      43.252 -13.573   3.359  1.00  0.00    -0.272 N 
HETATM    7  N   UNL     1      43.732 -14.732   2.887  1.00  0.00    -0.174 NA
HETATM    8  H   UNL     1      43.534 -12.704   2.912  1.00  0.00     0.189 HD
HETATM    9  C   UNL     1      43.204 -15.672   3.686  1.00  0.00     0.089 A 
HETATM   10  C   UNL     1      42.350 -15.068   4.654  1.00  0.00     0.071 A 
BRANCH   9  11
HETATM   11  C   UNL     1      43.510 -17.096   3.516  1.00  0.00    -0.006 A 
HETATM   12  C   UNL     1      43.432 -17.710   2.258  1.00  0.00     0.014 A 
HETATM   13  C   UNL     1      43.728 -19.069   2.104  1.00  0.00     0.008 A 
HETATM   14  C   UNL     1      44.105 -19.844   3.205  1.00  0.00    -0.059 A 
HETATM   15  C   UNL     1      44.187 -19.236   4.463  1.00  0.00     0.008 A 
HETATM   16  C   UNL     1      43.888 -17.879   4.616  1.00  0.00     0.014 A 
BRANCH  14  17
HETATM   17  C   UNL     1      44.440 -21.303   3.034  1.00  0.00     0.034 C 
HETATM   18  C   UNL     1      44.041 -21.819   1.660  1.00  0.00     0.010 C 
ENDBRANCH  14  17
ENDBRANCH   9  11
ENDBRANCH   1   5
BRANCH   2  19
HETATM   19  N   UNL     1      41.407 -11.445   7.101  1.00  0.00    -0.176 NA
HETATM   20  C   UNL     1      42.107 -10.922   8.068  1.00  0.00     0.064 C 
HETATM   21  C   UNL     1      43.431 -11.485   8.545  1.00  0.00     0.073 C 
BRANCH  20  22
HETATM   22  C   UNL     1      41.555  -9.697   8.741  1.00  0.00     0.023 A 
HETATM   23  C   UNL     1      41.415  -8.492   8.032  1.00  0.00     0.077 A 
HETATM   24  C   UNL     1      40.890  -7.357   8.650  1.00  0.00     0.037 A 
HETATM   25  C   UNL     1      40.512  -7.403   9.989  1.00  0.00     0.003 A 
HETATM   26  C   UNL     1      40.665  -8.584  10.713  1.00  0.00     0.001 A 
HETATM   27  C   UNL     1      41.189  -9.724  10.095  1.00  0.00     0.016 A 
BRANCH  23  28
HETATM   28  O   UNL     1      41.770  -8.338   6.718  1.00  0.00    -0.360 OA
HETATM   29  H   UNL     1      42.544  -7.732   6.674  1.00  0.00     0.217 HD
ENDBRANCH  23  28
ENDBRANCH  20  22
ENDBRANCH   2  19
TORSDOF 6
ENDMDL
MODEL 9
REMARK VINA RESULT:      -7.5      8.519     11.764
REMARK  6 active torsions:
REMARK  status: ('A' for Active; 'I' for Inactive)
REMARK    1  A    between atoms: C_2  and  C_3 
REMARK    2  A    between atoms: C_6  and  C_7 
REMARK    3  A    between atoms: C_11  and  C_12 
REMARK       I    between atoms: C_12  and  N_13 
REMARK    4  A    between atoms: N_13  and  N_14 
REMARK    5  A    between atoms: C_15  and  C_16 
REMARK    6  A    between atoms: C_17  and  O_18 
ROOT
HETATM    1  C   UNL     1      41.146 -15.693   1.288  1.00  0.00     0.289 C 
HETATM    2  N   UNL     1      41.581 -16.970   0.969  1.00  0.00    -0.241 N 
HETATM    3  O   UNL     1      41.036 -15.277   2.439  1.00  0.00    -0.264 OA
HETATM    4  H   UNL     1      41.634 -17.261   0.004  1.00  0.00     0.192 HD
ENDROOT
BRANCH   1   5
HETATM    5  C   UNL     1      40.804 -14.871   0.155  1.00  0.00     0.121 A 
HETATM    6  N   UNL     1      39.509 -14.726  -0.254  1.00  0.00    -0.272 N 
HETATM    7  N   UNL     1      39.356 -13.942  -1.331  1.00  0.00    -0.174 NA
HETATM    8  H   UNL     1      38.687 -15.151   0.167  1.00  0.00     0.189 HD
HETATM    9  C   UNL     1      40.595 -13.523  -1.628  1.00  0.00     0.089 A 
HETATM   10  C   UNL     1      41.536 -14.096  -0.723  1.00  0.00     0.071 A 
BRANCH   9  11
HETATM   11  C   UNL     1      40.859 -12.610  -2.745  1.00  0.00    -0.006 A 
HETATM   12  C   UNL     1      42.163 -12.386  -3.207  1.00  0.00     0.014 A 
HETATM   13  C   UNL     1      42.406 -11.516  -4.275  1.00  0.00     0.008 A 
HETATM   14  C   UNL     1      41.349 -10.848  -4.903  1.00  0.00    -0.059 A 
HETATM   15  C   UNL     1      40.044 -11.070  -4.448  1.00  0.00     0.008 A 
HETATM   16  C   UNL     1      39.804 -11.938  -3.378  1.00  0.00     0.014 A 
BRANCH  14  17
HETATM   17  C   UNL     1      41.610  -9.924  -6.065  1.00  0.00     0.034 C 
HETATM   18  C   UNL     1      42.513  -8.765  -5.674  1.00  0.00     0.010 C 
ENDBRANCH  14  17
ENDBRANCH   9  11
ENDBRANCH   1   5
BRANCH   2  19
HETATM   19  N   UNL     1      41.995 -17.811   1.956  1.00  0.00    -0.176 NA
HETATM   20  C   UNL     1      43.270 -17.993   2.159  1.00  0.00     0.064 C 
HETATM   21  C   UNL     1      44.353 -17.371   1.300  1.00  0.00     0.073 C 
BRANCH  20  22
HETATM   22  C   UNL     1      43.671 -18.875   3.307  1.00  0.00     0.023 A 
HETATM   23  C   UNL     1      43.302 -18.548   4.624  1.00  0.00     0.077 A 
HETATM   24  C   UNL     1      43.662 -19.372   5.690  1.00  0.00     0.037 A 
HETATM   25  C   UNL     1      44.408 -20.524   5.462  1.00  0.00     0.003 A 
HETATM   26  C   UNL     1      44.801 -20.851   4.166  1.00  0.00     0.001 A 
HETATM   27  C   UNL     1      44.441 -20.029   3.094  1.00  0.00     0.016 A 
BRANCH  23  28
HETATM   28  O   UNL     1      42.581 -17.432   4.956  1.00  0.00    -0.360 OA
HETATM   29  H   UNL     1      41.784 -17.395   4.380  1.00  0.00     0.217 HD
ENDBRANCH  23  28
ENDBRANCH  20  22
ENDBRANCH   2  19
TORSDOF 6
ENDMDL
MODEL 10
REMARK VINA RESULT:      -7.4      2.896      3.372
REMARK  6 active torsions:
REMARK  status: ('A' for Active; 'I' for Inactive)
REMARK    1  A    between atoms: C_2  and  C_3 
REMARK    2  A    between atoms: C_6  and  C_7 
REMARK    3  A    between atoms: C_11  and  C_12 
REMARK       I    between atoms: C_12  and  N_13 
REMARK    4  A    between atoms: N_13  and  N_14 
REMARK    5  A    between atoms: C_15  and  C_16 
REMARK    6  A    between atoms: C_17  and  O_18 
ROOT
HETATM    1  C   UNL     1      41.712 -12.003   5.454  1.00  0.00     0.289 C 
HETATM    2  N   UNL     1      42.036 -13.346   5.563  1.00  0.00    -0.241 N 
HETATM    3  O   UNL     1      41.523 -11.431   4.383  1.00  0.00    -0.264 OA
HETATM    4  H   UNL     1      42.196 -13.756   6.471  1.00  0.00     0.192 HD
ENDROOT
BRANCH   1   5
HETATM    5  C   UNL     1      41.629 -11.298   6.709  1.00  0.00     0.121 A 
HETATM    6  N   UNL     1      40.643 -10.384   6.948  1.00  0.00    -0.272 N 
HETATM    7  N   UNL     1      40.710  -9.805   8.155  1.00  0.00    -0.174 NA
HETATM    8  H   UNL     1      39.899 -10.111   6.311  1.00  0.00     0.189 HD
HETATM    9  C   UNL     1      41.762 -10.383   8.754  1.00  0.00     0.089 A 
HETATM   10  C   UNL     1      42.374 -11.319   7.871  1.00  0.00     0.071 A 
BRANCH   9  11
HETATM   11  C   UNL     1      42.163 -10.038  10.122  1.00  0.00    -0.006 A 
HETATM   12  C   UNL     1      41.398  -9.159  10.902  1.00  0.00     0.014 A 
HETATM   13  C   UNL     1      41.786  -8.838  12.207  1.00  0.00     0.008 A 
HETATM   14  C   UNL     1      42.948  -9.385  12.760  1.00  0.00    -0.059 A 
HETATM   15  C   UNL     1      43.714 -10.265  11.986  1.00  0.00     0.008 A 
HETATM   16  C   UNL     1      43.327 -10.583  10.681  1.00  0.00     0.014 A 
BRANCH  14  17
HETATM   17  C   UNL     1      43.355  -9.051  14.172  1.00  0.00     0.034 C 
HETATM   18  C   UNL     1      42.331  -9.537  15.186  1.00  0.00     0.010 C 
ENDBRANCH  14  17
ENDBRANCH   9  11
ENDBRANCH   1   5
BRANCH   2  19
HETATM   19  N   UNL     1      42.076 -14.127   4.448  1.00  0.00    -0.176 NA
HETATM   20  C   UNL     1      42.721 -15.259   4.473  1.00  0.00     0.064 C 
HETATM   21  C   UNL     1      43.514 -15.746   5.670  1.00  0.00     0.073 C 
BRANCH  20  22
HETATM   22  C   UNL     1      42.672 -16.113   3.239  1.00  0.00     0.023 A 
HETATM   23  C   UNL     1      41.449 -16.621   2.767  1.00  0.00     0.077 A 
HETATM   24  C   UNL     1      41.398 -17.403   1.614  1.00  0.00     0.037 A 
HETATM   25  C   UNL     1      42.568 -17.704   0.922  1.00  0.00     0.003 A 
HETATM   26  C   UNL     1      43.792 -17.228   1.388  1.00  0.00     0.001 A 
HETATM   27  C   UNL     1      43.846 -16.441   2.543  1.00  0.00     0.016 A 
BRANCH  23  28
HETATM   28  O   UNL     1      40.246 -16.395   3.381  1.00  0.00    -0.360 OA
HETATM   29  H   UNL     1      39.642 -15.966   2.733  1.00  0.00     0.217 HD
ENDBRANCH  23  28
ENDBRANCH  20  22
ENDBRANCH   2  19
TORSDOF 6
ENDMDL
