MODEL 1
REMARK VINA RESULT:      -7.4      0.000      0.000
REMARK  7 active torsions:
REMARK  status: ('A' for Active; 'I' for Inactive)
REMARK    1  A    between atoms: C_2  and  O_3 
REMARK    2  A    between atoms: O_3  and  C_4 
REMARK    3  A    between atoms: C_4  and  C_5 
REMARK    4  A    between atoms: C_12  and  C_13 
REMARK    5  A    between atoms: C_13  and  N_14 
REMARK    6  A    between atoms: C_19  and  N_20 
REMARK    7  A    between atoms: N_23  and  C_25 
ROOT
HETATM    1  C   UNL     1      43.584 -16.995   6.244  1.00  0.00     0.089 C 
HETATM    2  S   UNL     1      44.068 -15.426   6.720  1.00  0.00    -0.063 SA
HETATM    3  C   UNL     1      42.941 -14.687   5.694  1.00  0.00     0.115 C 
HETATM    4  C   UNL     1      42.236 -15.584   4.913  1.00  0.00     0.053 C 
HETATM    5  C   UNL     1      42.482 -16.942   5.387  1.00  0.00    -0.022 C 
HETATM    6  C   UNL     1      41.685 -18.155   4.998  1.00  0.00     0.051 C 
HETATM    7  N   UNL     1      42.825 -13.351   5.693  1.00  0.00    -0.224 NA
HETATM    8  C   UNL     1      41.928 -12.905   4.806  1.00  0.00     0.155 C 
HETATM    9  N   UNL     1      41.270 -13.655   3.896  1.00  0.00    -0.213 NA
HETATM   10  C   UNL     1      41.413 -15.011   3.902  1.00  0.00     0.141 C 
ENDROOT
BRANCH  10  11
HETATM   11  N   UNL     1      40.744 -15.758   2.934  1.00  0.00    -0.362 N 
HETATM   12  C   UNL     1      41.576 -16.451   1.929  1.00  0.00     0.152 C 
HETATM   13  C   UNL     1      41.744 -15.629   0.637  1.00  0.00     0.255 C 
HETATM   14  N   UNL     1      40.384 -15.212   0.074  1.00  0.00    -0.064 N 
HETATM   15  H   UNL     1      39.848 -16.076  -0.090  1.00  0.00     0.280 HD
HETATM   16  C   UNL     1      39.625 -14.409   1.143  1.00  0.00     0.255 C 
HETATM   17  C   UNL     1      39.459 -15.245   2.431  1.00  0.00     0.152 C 
BRANCH  14  18
HETATM   18  C   UNL     1      40.500 -14.494  -1.252  1.00  0.00     0.188 C 
HETATM   19  C   UNL     1      41.737 -13.602  -1.306  1.00  0.00     0.033 C 
HETATM   20  C   UNL     1      41.926 -13.361  -2.795  1.00  0.00     0.002 C 
HETATM   21  C   UNL     1      41.474 -14.652  -3.473  1.00  0.00     0.002 C 
HETATM   22  C   UNL     1      40.745 -15.467  -2.404  1.00  0.00     0.033 C 
ENDBRANCH  14  18
ENDBRANCH  10  11
BRANCH   8  23
HETATM   23  C   UNL     1      41.589 -11.422   4.919  1.00  0.00     0.314 C 
BRANCH  23  24
HETATM   24  N   UNL     1      41.245 -10.968   6.341  1.00  0.00    -0.072 N 
HETATM   25  H   UNL     1      41.958 -11.428   6.932  1.00  0.00     0.279 HD
HETATM   26  C   UNL     1      41.436  -9.495   6.546  1.00  0.00     0.269 C 
HETATM   27  C   UNL     1      39.902 -11.441   6.804  1.00  0.00     0.269 C 
ENDBRANCH  23  24
ENDBRANCH   8  23
BRANCH   1  28
HETATM   28  C   UNL     1      44.270 -18.191   6.729  1.00  0.00     0.300 C 
HETATM   29  O   UNL     1      44.080 -18.693   7.830  1.00  0.00    -0.259 OA
BRANCH  28  30
HETATM   30  O   UNL     1      45.070 -18.731   5.768  1.00  0.00    -0.317 OA
BRANCH  30  31
HETATM   31  C   UNL     1      44.736 -20.064   5.345  1.00  0.00     0.174 C 
HETATM   32  C   UNL     1      44.650 -20.119   3.831  1.00  0.00     0.034 C 
ENDBRANCH  30  31
ENDBRANCH  28  30
ENDBRANCH   1  28
TORSDOF 7
ENDMDL
MODEL 2
REMARK VINA RESULT:      -7.2      3.785      6.924
REMARK  7 active torsions:
REMARK  status: ('A' for Active; 'I' for Inactive)
REMARK    1  A    between atoms: C_2  and  O_3 
REMARK    2  A    between atoms: O_3  and  C_4 
REMARK    3  A    between atoms: C_4  and  C_5 
REMARK    4  A    between atoms: C_12  and  C_13 
REMARK    5  A    between atoms: C_13  and  N_14 
REMARK    6  A    between atoms: C_19  and  N_20 
REMARK    7  A    between atoms: N_23  and  C_25 
ROOT
HETATM    1  C   UNL     1      40.134 -12.002   1.922  1.00  0.00     0.089 C 
HETATM    2  S   UNL     1      40.789 -11.410   3.387  1.00  0.00    -0.063 SA
HETATM    3  C   UNL     1      41.778 -12.771   3.581  1.00  0.00     0.115 C 
HETATM    4  C   UNL     1      41.586 -13.734   2.607  1.00  0.00     0.053 C 
HETATM    5  C   UNL     1      40.765 -13.186   1.534  1.00  0.00    -0.022 C 
HETATM    6  C   UNL     1      40.579 -13.808   0.179  1.00  0.00     0.051 C 
HETATM    7  N   UNL     1      42.624 -12.831   4.620  1.00  0.00    -0.224 NA
HETATM    8  C   UNL     1      43.310 -13.978   4.670  1.00  0.00     0.155 C 
HETATM    9  N   UNL     1      43.128 -15.048   3.868  1.00  0.00    -0.213 NA
HETATM   10  C   UNL     1      42.250 -14.975   2.825  1.00  0.00     0.141 C 
ENDROOT
BRANCH  10  11
HETATM   11  N   UNL     1      42.062 -16.103   2.029  1.00  0.00    -0.362 N 
HETATM   12  C   UNL     1      41.403 -17.265   2.660  1.00  0.00     0.152 C 
HETATM   13  C   UNL     1      42.415 -18.287   3.212  1.00  0.00     0.255 C 
HETATM   14  N   UNL     1      43.414 -18.705   2.131  1.00  0.00    -0.064 N 
HETATM   15  H   UNL     1      42.867 -19.093   1.349  1.00  0.00     0.280 HD
HETATM   16  C   UNL     1      44.129 -17.452   1.600  1.00  0.00     0.255 C 
HETATM   17  C   UNL     1      43.105 -16.438   1.046  1.00  0.00     0.152 C 
BRANCH  14  18
HETATM   18  C   UNL     1      44.359 -19.788   2.601  1.00  0.00     0.188 C 
HETATM   19  C   UNL     1      44.282 -19.989   4.112  1.00  0.00     0.033 C 
HETATM   20  C   UNL     1      44.906 -21.361   4.311  1.00  0.00     0.002 C 
HETATM   21  C   UNL     1      44.513 -22.166   3.076  1.00  0.00     0.002 C 
HETATM   22  C   UNL     1      43.959 -21.162   2.065  1.00  0.00     0.033 C 
ENDBRANCH  14  18
ENDBRANCH  10  11
BRANCH   8  23
HETATM   23  C   UNL     1      44.444 -14.009   5.689  1.00  0.00     0.314 C 
BRANCH  23  24
HETATM   24  N   UNL     1      43.978 -14.232   7.132  1.00  0.00    -0.072 N 
HETATM   25  H   UNL     1      43.002 -13.889   7.138  1.00  0.00     0.279 HD
HETATM   26  C   UNL     1      43.901 -15.683   7.503  1.00  0.00     0.269 C 
HETATM   27  C   UNL     1      44.746 -13.426   8.132  1.00  0.00     0.269 C 
ENDBRANCH  23  24
ENDBRANCH   8  23
BRANCH   1  28
HETATM   28  C   UNL     1      39.069 -11.294   1.215  1.00  0.00     0.300 C 
HETATM   29  O   UNL     1      39.260 -10.388   0.413  1.00  0.00    -0.259 OA
BRANCH  28  30
HETATM   30  O   UNL     1      37.847 -11.832   1.486  1.00  0.00    -0.317 OA
BRANCH  30  31
HETATM   31  C   UNL     1      37.219 -12.543   0.406  1.00  0.00     0.174 C 
HETATM   32  C   UNL     1      37.108 -14.016   0.754  1.00  0.00     0.034 C 
ENDBRANCH  30  31
ENDBRANCH  28  30
ENDBRANCH   1  28
TORSDOF 7
ENDMDL
MODEL 3
REMARK VINA RESULT:      -7.1      1.955      5.959
REMARK  7 active torsions:
REMARK  status: ('A' for Active; 'I' for Inactive)
REMARK    1  A    between atoms: C_2  and  O_3 
REMARK    2  A    between atoms: O_3  and  C_4 
REMARK    3  A    between atoms: C_4  and  C_5 
REMARK    4  A    between atoms: C_12  and  C_13 
REMARK    5  A    between atoms: C_13  and  N_14 
REMARK    6  A    between atoms: C_19  and  N_20 
REMARK    7  A    between atoms: N_23  and  C_25 
ROOT
HETATM    1  C   UNL     1      43.890 -18.875   3.733  1.00  0.00     0.089 C 
HETATM    2  S   UNL     1      43.390 -18.674   2.110  1.00  0.00    -0.063 SA
HETATM    3  C   UNL     1      42.752 -17.137   2.420  1.00  0.00     0.115 C 
HETATM    4  C   UNL     1      42.820 -16.769   3.751  1.00  0.00     0.053 C 
HETATM    5  C   UNL     1      43.666 -17.712   4.474  1.00  0.00    -0.022 C 
HETATM    6  C   UNL     1      44.220 -17.499   5.855  1.00  0.00     0.051 C 
HETATM    7  N   UNL     1      42.233 -16.421   1.411  1.00  0.00    -0.224 NA
HETATM    8  C   UNL     1      41.730 -15.247   1.808  1.00  0.00     0.155 C 
HETATM    9  N   UNL     1      41.613 -14.823   3.084  1.00  0.00    -0.213 NA
HETATM   10  C   UNL     1      42.132 -15.573   4.099  1.00  0.00     0.141 C 
ENDROOT
BRANCH  10  11
HETATM   11  N   UNL     1      41.972 -15.125   5.409  1.00  0.00    -0.362 N 
HETATM   12  C   UNL     1      40.614 -15.206   5.984  1.00  0.00     0.152 C 
HETATM   13  C   UNL     1      39.834 -13.885   5.838  1.00  0.00     0.255 C 
HETATM   14  N   UNL     1      40.634 -12.712   6.408  1.00  0.00    -0.064 N 
HETATM   15  H   UNL     1      40.831 -12.932   7.394  1.00  0.00     0.280 HD
HETATM   16  C   UNL     1      41.990 -12.634   5.686  1.00  0.00     0.255 C 
HETATM   17  C   UNL     1      42.763 -13.961   5.844  1.00  0.00     0.152 C 
BRANCH  14  18
HETATM   18  C   UNL     1      39.860 -11.413   6.381  1.00  0.00     0.188 C 
HETATM   19  C   UNL     1      39.639 -10.858   7.786  1.00  0.00     0.033 C 
HETATM   20  C   UNL     1      39.292  -9.400   7.532  1.00  0.00     0.002 C 
HETATM   21  C   UNL     1      40.111  -8.998   6.309  1.00  0.00     0.002 C 
HETATM   22  C   UNL     1      40.651 -10.295   5.705  1.00  0.00     0.033 C 
ENDBRANCH  14  18
ENDBRANCH  10  11
BRANCH   8  23
HETATM   23  C   UNL     1      41.336 -14.298   0.680  1.00  0.00     0.314 C 
BRANCH  23  24
HETATM   24  N   UNL     1      40.028 -14.675  -0.022  1.00  0.00    -0.072 N 
HETATM   25  H   UNL     1      39.998 -15.707   0.036  1.00  0.00     0.279 HD
HETATM   26  C   UNL     1      38.811 -14.192   0.712  1.00  0.00     0.269 C 
HETATM   27  C   UNL     1      40.005 -14.303  -1.471  1.00  0.00     0.269 C 
ENDBRANCH  23  24
ENDBRANCH   8  23
BRANCH   1  28
HETATM   28  C   UNL     1      44.485 -20.124   4.205  1.00  0.00     0.300 C 
HETATM   29  O   UNL     1      44.344 -20.567   5.338  1.00  0.00    -0.259 OA
BRANCH  28  30
HETATM   30  O   UNL     1      45.132 -20.779   3.201  1.00  0.00    -0.317 OA
BRANCH  30  31
HETATM   31  C   UNL     1      44.625 -22.082   2.870  1.00  0.00     0.174 C 
HETATM   32  C   UNL     1      44.013 -22.061   1.482  1.00  0.00     0.034 C 
ENDBRANCH  30  31
ENDBRANCH  28  30
ENDBRANCH   1  28
TORSDOF 7
ENDMDL
MODEL 4
REMARK VINA RESULT:      -6.8      4.082      7.422
REMARK  7 active torsions:
REMARK  status: ('A' for Active; 'I' for Inactive)
REMARK    1  A    between atoms: C_2  and  O_3 
REMARK    2  A    between atoms: O_3  and  C_4 
REMARK    3  A    between atoms: C_4  and  C_5 
REMARK    4  A    between atoms: C_12  and  C_13 
REMARK    5  A    between atoms: C_13  and  N_14 
REMARK    6  A    between atoms: C_19  and  N_20 
REMARK    7  A    between atoms: N_23  and  C_25 
ROOT
HETATM    1  C   UNL     1      39.062 -13.567  -0.530  1.00  0.00     0.089 C 
HETATM    2  S   UNL     1      38.142 -13.223   0.869  1.00  0.00    -0.063 SA
HETATM    3  C   UNL     1      39.330 -13.856   1.896  1.00  0.00     0.115 C 
HETATM    4  C   UNL     1      40.402 -14.412   1.221  1.00  0.00     0.053 C 
HETATM    5  C   UNL     1      40.324 -14.059  -0.192  1.00  0.00    -0.022 C 
HETATM    6  C   UNL     1      41.437 -14.219  -1.189  1.00  0.00     0.051 C 
HETATM    7  N   UNL     1      39.156 -13.797   3.225  1.00  0.00    -0.224 NA
HETATM    8  C   UNL     1      40.153 -14.370   3.908  1.00  0.00     0.155 C 
HETATM    9  N   UNL     1      41.186 -15.060   3.379  1.00  0.00    -0.213 NA
HETATM   10  C   UNL     1      41.337 -15.124   2.025  1.00  0.00     0.141 C 
ENDROOT
BRANCH  10  11
HETATM   11  N   UNL     1      42.397 -15.866   1.505  1.00  0.00    -0.362 N 
HETATM   12  C   UNL     1      42.051 -17.076   0.732  1.00  0.00     0.152 C 
HETATM   13  C   UNL     1      42.075 -18.352   1.595  1.00  0.00     0.255 C 
HETATM   14  N   UNL     1      43.413 -18.494   2.323  1.00  0.00    -0.064 N 
HETATM   15  H   UNL     1      44.149 -18.506   1.602  1.00  0.00     0.280 HD
HETATM   16  C   UNL     1      43.649 -17.242   3.183  1.00  0.00     0.255 C 
HETATM   17  C   UNL     1      43.627 -15.970   2.307  1.00  0.00     0.152 C 
BRANCH  14  18
HETATM   18  C   UNL     1      43.519 -19.789   3.097  1.00  0.00     0.188 C 
HETATM   19  C   UNL     1      44.178 -20.890   2.270  1.00  0.00     0.033 C 
HETATM   20  C   UNL     1      44.607 -21.902   3.320  1.00  0.00     0.002 C 
HETATM   21  C   UNL     1      44.984 -21.076   4.546  1.00  0.00     0.002 C 
HETATM   22  C   UNL     1      44.466 -19.661   4.289  1.00  0.00     0.033 C 
ENDBRANCH  14  18
ENDBRANCH  10  11
BRANCH   8  23
HETATM   23  C   UNL     1      40.124 -14.133   5.415  1.00  0.00     0.314 C 
BRANCH  23  24
HETATM   24  N   UNL     1      41.142 -14.970   6.196  1.00  0.00    -0.072 N 
HETATM   25  H   UNL     1      41.015 -14.670   7.178  1.00  0.00     0.279 HD
HETATM   26  C   UNL     1      40.830 -16.437   6.177  1.00  0.00     0.269 C 
HETATM   27  C   UNL     1      42.560 -14.682   5.817  1.00  0.00     0.269 C 
ENDBRANCH  23  24
ENDBRANCH   8  23
BRANCH   1  28
HETATM   28  C   UNL     1      38.536 -13.329  -1.873  1.00  0.00     0.300 C 
HETATM   29  O   UNL     1      38.720 -12.301  -2.511  1.00  0.00    -0.259 OA
BRANCH  28  30
HETATM   30  O   UNL     1      37.900 -14.431  -2.362  1.00  0.00    -0.317 OA
BRANCH  30  31
HETATM   31  C   UNL     1      38.145 -14.738  -3.744  1.00  0.00     0.174 C 
HETATM   32  C   UNL     1      39.130 -15.888  -3.850  1.00  0.00     0.034 C 
ENDBRANCH  30  31
ENDBRANCH  28  30
ENDBRANCH   1  28
TORSDOF 7
ENDMDL
MODEL 5
REMARK VINA RESULT:      -6.8      3.858      7.408
REMARK  7 active torsions:
REMARK  status: ('A' for Active; 'I' for Inactive)
REMARK    1  A    between atoms: C_2  and  O_3 
REMARK    2  A    between atoms: O_3  and  C_4 
REMARK    3  A    between atoms: C_4  and  C_5 
REMARK    4  A    between atoms: C_12  and  C_13 
REMARK    5  A    between atoms: C_13  and  N_14 
REMARK    6  A    between atoms: C_19  and  N_20 
REMARK    7  A    between atoms: N_23  and  C_25 
ROOT
HETATM    1  C   UNL     1      39.268 -10.239   5.218  1.00  0.00     0.089 C 
HETATM    2  S   UNL     1      38.452 -10.216   3.715  1.00  0.00    -0.063 SA
HETATM    3  C   UNL     1      38.876 -11.820   3.377  1.00  0.00     0.115 C 
HETATM    4  C   UNL     1      39.702 -12.385   4.332  1.00  0.00     0.053 C 
HETATM    5  C   UNL     1      39.762 -11.515   5.500  1.00  0.00    -0.022 C 
HETATM    6  C   UNL     1      40.306 -11.904   6.846  1.00  0.00     0.051 C 
HETATM    7  N   UNL     1      38.423 -12.401   2.256  1.00  0.00    -0.224 NA
HETATM    8  C   UNL     1      38.870 -13.652   2.099  1.00  0.00     0.155 C 
HETATM    9  N   UNL     1      39.778 -14.275   2.879  1.00  0.00    -0.213 NA
HETATM   10  C   UNL     1      40.241 -13.662   4.006  1.00  0.00     0.141 C 
ENDROOT
BRANCH  10  11
HETATM   11  N   UNL     1      41.199 -14.317   4.779  1.00  0.00    -0.362 N 
HETATM   12  C   UNL     1      42.615 -14.062   4.446  1.00  0.00     0.152 C 
HETATM   13  C   UNL     1      43.197 -15.129   3.499  1.00  0.00     0.255 C 
HETATM   14  N   UNL     1      42.979 -16.535   4.059  1.00  0.00    -0.064 N 
HETATM   15  H   UNL     1      43.426 -16.564   4.986  1.00  0.00     0.280 HD
HETATM   16  C   UNL     1      41.473 -16.757   4.279  1.00  0.00     0.255 C 
HETATM   17  C   UNL     1      40.902 -15.685   5.233  1.00  0.00     0.152 C 
BRANCH  14  18
HETATM   18  C   UNL     1      43.630 -17.606   3.211  1.00  0.00     0.188 C 
HETATM   19  C   UNL     1      44.117 -18.779   4.058  1.00  0.00     0.033 C 
HETATM   20  C   UNL     1      44.290 -19.893   3.040  1.00  0.00     0.002 C 
HETATM   21  C   UNL     1      43.191 -19.669   2.005  1.00  0.00     0.002 C 
HETATM   22  C   UNL     1      42.628 -18.272   2.271  1.00  0.00     0.033 C 
ENDBRANCH  14  18
ENDBRANCH  10  11
BRANCH   8  23
HETATM   23  C   UNL     1      38.211 -14.437   0.969  1.00  0.00     0.314 C 
BRANCH  23  24
HETATM   24  N   UNL     1      38.847 -14.204  -0.405  1.00  0.00    -0.072 N 
HETATM   25  H   UNL     1      38.751 -15.115  -0.885  1.00  0.00     0.279 HD
HETATM   26  C   UNL     1      38.083 -13.222  -1.243  1.00  0.00     0.269 C 
HETATM   27  C   UNL     1      40.307 -13.882  -0.334  1.00  0.00     0.269 C 
ENDBRANCH  23  24
ENDBRANCH   8  23
BRANCH   1  28
HETATM   28  C   UNL     1      39.375  -9.044   6.053  1.00  0.00     0.300 C 
HETATM   29  O   UNL     1      40.204  -8.159   5.882  1.00  0.00    -0.259 OA
BRANCH  28  30
HETATM   30  O   UNL     1      38.377  -8.992   6.979  1.00  0.00    -0.317 OA
BRANCH  30  31
HETATM   31  C   UNL     1      38.756  -8.534   8.287  1.00  0.00     0.174 C 
HETATM   32  C   UNL     1      38.654  -9.675   9.283  1.00  0.00     0.034 C 
ENDBRANCH  30  31
ENDBRANCH  28  30
ENDBRANCH   1  28
TORSDOF 7
ENDMDL
MODEL 6
REMARK VINA RESULT:      -6.7      3.330      7.128
REMARK  7 active torsions:
REMARK  status: ('A' for Active; 'I' for Inactive)
REMARK    1  A    between atoms: C_2  and  O_3 
REMARK    2  A    between atoms: O_3  and  C_4 
REMARK    3  A    between atoms: C_4  and  C_5 
REMARK    4  A    between atoms: C_12  and  C_13 
REMARK    5  A    between atoms: C_13  and  N_14 
REMARK    6  A    between atoms: C_19  and  N_20 
REMARK    7  A    between atoms: N_23  and  C_25 
ROOT
HETATM    1  C   UNL     1      40.361 -11.198   4.653  1.00  0.00     0.089 C 
HETATM    2  S   UNL     1      40.757 -10.556   3.118  1.00  0.00    -0.063 SA
HETATM    3  C   UNL     1      41.024 -12.095   2.462  1.00  0.00     0.115 C 
HETATM    4  C   UNL     1      40.906 -13.116   3.388  1.00  0.00     0.053 C 
HETATM    5  C   UNL     1      40.325 -12.594   4.619  1.00  0.00    -0.022 C 
HETATM    6  C   UNL     1      39.773 -13.427   5.740  1.00  0.00     0.051 C 
HETATM    7  N   UNL     1      41.334 -12.215   1.163  1.00  0.00    -0.224 NA
HETATM    8  C   UNL     1      41.557 -13.481   0.794  1.00  0.00     0.155 C 
HETATM    9  N   UNL     1      41.605 -14.551   1.615  1.00  0.00    -0.213 NA
HETATM   10  C   UNL     1      41.303 -14.407   2.938  1.00  0.00     0.141 C 
ENDROOT
BRANCH  10  11
HETATM   11  N   UNL     1      41.387 -15.523   3.768  1.00  0.00    -0.362 N 
HETATM   12  C   UNL     1      42.666 -15.736   4.477  1.00  0.00     0.152 C 
HETATM   13  C   UNL     1      43.604 -16.697   3.721  1.00  0.00     0.255 C 
HETATM   14  N   UNL     1      42.894 -18.014   3.401  1.00  0.00    -0.064 N 
HETATM   15  H   UNL     1      42.580 -18.413   4.297  1.00  0.00     0.280 HD
HETATM   16  C   UNL     1      41.632 -17.714   2.575  1.00  0.00     0.255 C 
HETATM   17  C   UNL     1      40.698 -16.754   3.345  1.00  0.00     0.152 C 
BRANCH  14  18
HETATM   18  C   UNL     1      43.813 -19.026   2.754  1.00  0.00     0.188 C 
HETATM   19  C   UNL     1      44.440 -19.961   3.785  1.00  0.00     0.033 C 
HETATM   20  C   UNL     1      44.915 -21.135   2.945  1.00  0.00     0.002 C 
HETATM   21  C   UNL     1      43.890 -21.270   1.823  1.00  0.00     0.002 C 
HETATM   22  C   UNL     1      43.046 -19.995   1.855  1.00  0.00     0.033 C 
ENDBRANCH  14  18
ENDBRANCH  10  11
BRANCH   8  23
HETATM   23  C   UNL     1      41.687 -13.703  -0.710  1.00  0.00     0.314 C 
BRANCH  23  24
HETATM   24  N   UNL     1      40.613 -14.623  -1.299  1.00  0.00    -0.072 N 
HETATM   25  H   UNL     1      40.499 -15.366  -0.588  1.00  0.00     0.279 HD
HETATM   26  C   UNL     1      39.272 -13.959  -1.410  1.00  0.00     0.269 C 
HETATM   27  C   UNL     1      41.033 -15.282  -2.575  1.00  0.00     0.269 C 
ENDBRANCH  23  24
ENDBRANCH   8  23
BRANCH   1  28
HETATM   28  C   UNL     1      40.089 -10.333   5.800  1.00  0.00     0.300 C 
HETATM   29  O   UNL     1      38.966 -10.008   6.163  1.00  0.00    -0.259 OA
BRANCH  28  30
HETATM   30  O   UNL     1      41.233 -10.017   6.469  1.00  0.00    -0.317 OA
BRANCH  30  31
HETATM   31  C   UNL     1      41.353  -8.651   6.898  1.00  0.00     0.174 C 
HETATM   32  C   UNL     1      41.760  -7.775   5.727  1.00  0.00     0.034 C 
ENDBRANCH  30  31
ENDBRANCH  28  30
ENDBRANCH   1  28
TORSDOF 7
ENDMDL
MODEL 7
REMARK VINA RESULT:      -6.7      3.951      7.487
REMARK  7 active torsions:
REMARK  status: ('A' for Active; 'I' for Inactive)
REMARK    1  A    between atoms: C_2  and  O_3 
REMARK    2  A    between atoms: O_3  and  C_4 
REMARK    3  A    between atoms: C_4  and  C_5 
REMARK    4  A    between atoms: C_12  and  C_13 
REMARK    5  A    between atoms: C_13  and  N_14 
REMARK    6  A    between atoms: C_19  and  N_20 
REMARK    7  A    between atoms: N_23  and  C_25 
ROOT
HETATM    1  C   UNL     1      38.968 -13.402  -0.948  1.00  0.00     0.089 C 
HETATM    2  S   UNL     1      38.017 -12.457   0.114  1.00  0.00    -0.063 SA
HETATM    3  C   UNL     1      38.971 -12.868   1.451  1.00  0.00     0.115 C 
HETATM    4  C   UNL     1      39.968 -13.780   1.158  1.00  0.00     0.053 C 
HETATM    5  C   UNL     1      40.078 -13.934  -0.288  1.00  0.00    -0.022 C 
HETATM    6  C   UNL     1      41.219 -14.599  -1.006  1.00  0.00     0.051 C 
HETATM    7  N   UNL     1      38.701 -12.324   2.648  1.00  0.00    -0.224 NA
HETATM    8  C   UNL     1      39.507 -12.770   3.618  1.00  0.00     0.155 C 
HETATM    9  N   UNL     1      40.427 -13.750   3.499  1.00  0.00    -0.213 NA
HETATM   10  C   UNL     1      40.677 -14.303   2.277  1.00  0.00     0.141 C 
ENDROOT
BRANCH  10  11
HETATM   11  N   UNL     1      41.613 -15.332   2.187  1.00  0.00    -0.362 N 
HETATM   12  C   UNL     1      41.102 -16.713   2.308  1.00  0.00     0.152 C 
HETATM   13  C   UNL     1      41.205 -17.254   3.747  1.00  0.00     0.255 C 
HETATM   14  N   UNL     1      42.632 -17.115   4.282  1.00  0.00    -0.064 N 
HETATM   15  H   UNL     1      43.248 -17.630   3.637  1.00  0.00     0.280 HD
HETATM   16  C   UNL     1      43.048 -15.637   4.218  1.00  0.00     0.255 C 
HETATM   17  C   UNL     1      42.945 -15.108   2.771  1.00  0.00     0.152 C 
BRANCH  14  18
HETATM   18  C   UNL     1      42.801 -17.732   5.653  1.00  0.00     0.188 C 
HETATM   19  C   UNL     1      44.263 -18.049   5.954  1.00  0.00     0.033 C 
HETATM   20  C   UNL     1      44.281 -18.200   7.466  1.00  0.00     0.002 C 
HETATM   21  C   UNL     1      43.245 -17.207   7.983  1.00  0.00     0.002 C 
HETATM   22  C   UNL     1      42.441 -16.749   6.765  1.00  0.00     0.033 C 
ENDBRANCH  14  18
ENDBRANCH  10  11
BRANCH   8  23
HETATM   23  C   UNL     1      39.398 -12.022   4.943  1.00  0.00     0.314 C 
BRANCH  23  24
HETATM   24  N   UNL     1      40.734 -11.487   5.468  1.00  0.00    -0.072 N 
HETATM   25  H   UNL     1      41.410 -12.239   5.249  1.00  0.00     0.279 HD
HETATM   26  C   UNL     1      41.214 -10.279   4.720  1.00  0.00     0.269 C 
HETATM   27  C   UNL     1      40.748 -11.285   6.951  1.00  0.00     0.269 C 
ENDBRANCH  23  24
ENDBRANCH   8  23
BRANCH   1  28
HETATM   28  C   UNL     1      38.612 -13.569  -2.356  1.00  0.00     0.300 C 
HETATM   29  O   UNL     1      38.990 -12.826  -3.253  1.00  0.00    -0.259 OA
BRANCH  28  30
HETATM   30  O   UNL     1      37.890 -14.708  -2.556  1.00  0.00    -0.317 OA
BRANCH  30  31
HETATM   31  C   UNL     1      37.928 -15.250  -3.887  1.00  0.00     0.174 C 
HETATM   32  C   UNL     1      39.105 -16.198  -4.024  1.00  0.00     0.034 C 
ENDBRANCH  30  31
ENDBRANCH  28  30
ENDBRANCH   1  28
TORSDOF 7
ENDMDL
MODEL 8
REMARK VINA RESULT:      -6.7      3.078      3.983
REMARK  7 active torsions:
REMARK  status: ('A' for Active; 'I' for Inactive)
REMARK    1  A    between atoms: C_2  and  O_3 
REMARK    2  A    between atoms: O_3  and  C_4 
REMARK    3  A    between atoms: C_4  and  C_5 
REMARK    4  A    between atoms: C_12  and  C_13 
REMARK    5  A    between atoms: C_13  and  N_14 
REMARK    6  A    between atoms: C_19  and  N_20 
REMARK    7  A    between atoms: N_23  and  C_25 
ROOT
HETATM    1  C   UNL     1      44.415 -18.861   5.171  1.00  0.00     0.089 C 
HETATM    2  S   UNL     1      45.210 -18.128   6.497  1.00  0.00    -0.063 SA
HETATM    3  C   UNL     1      44.454 -16.639   6.221  1.00  0.00     0.115 C 
HETATM    4  C   UNL     1      43.656 -16.626   5.091  1.00  0.00     0.053 C 
HETATM    5  C   UNL     1      43.488 -17.988   4.598  1.00  0.00    -0.022 C 
HETATM    6  C   UNL     1      42.471 -18.424   3.581  1.00  0.00     0.051 C 
HETATM    7  N   UNL     1      44.679 -15.618   7.061  1.00  0.00    -0.224 NA
HETATM    8  C   UNL     1      44.049 -14.494   6.698  1.00  0.00     0.155 C 
HETATM    9  N   UNL     1      43.353 -14.306   5.558  1.00  0.00    -0.213 NA
HETATM   10  C   UNL     1      43.148 -15.353   4.706  1.00  0.00     0.141 C 
ENDROOT
BRANCH  10  11
HETATM   11  N   UNL     1      42.448 -15.125   3.523  1.00  0.00    -0.362 N 
HETATM   12  C   UNL     1      42.841 -13.942   2.730  1.00  0.00     0.152 C 
HETATM   13  C   UNL     1      41.970 -12.710   3.040  1.00  0.00     0.255 C 
HETATM   14  N   UNL     1      40.483 -13.040   2.888  1.00  0.00    -0.064 N 
HETATM   15  H   UNL     1      40.345 -13.372   1.923  1.00  0.00     0.280 HD
HETATM   16  C   UNL     1      40.134 -14.211   3.821  1.00  0.00     0.255 C 
HETATM   17  C   UNL     1      41.010 -15.441   3.498  1.00  0.00     0.152 C 
BRANCH  14  18
HETATM   18  C   UNL     1      39.597 -11.829   3.079  1.00  0.00     0.188 C 
HETATM   19  C   UNL     1      40.236 -10.566   2.509  1.00  0.00     0.033 C 
HETATM   20  C   UNL     1      39.058  -9.614   2.371  1.00  0.00     0.002 C 
HETATM   21  C   UNL     1      37.865 -10.497   2.017  1.00  0.00     0.002 C 
HETATM   22  C   UNL     1      38.306 -11.939   2.272  1.00  0.00     0.033 C 
ENDBRANCH  14  18
ENDBRANCH  10  11
BRANCH   8  23
HETATM   23  C   UNL     1      44.083 -13.372   7.731  1.00  0.00     0.314 C 
BRANCH  23  24
HETATM   24  N   UNL     1      45.489 -13.026   8.229  1.00  0.00    -0.072 N 
HETATM   25  H   UNL     1      45.790 -13.871   8.744  1.00  0.00     0.279 HD
HETATM   26  C   UNL     1      46.479 -12.857   7.114  1.00  0.00     0.269 C 
HETATM   27  C   UNL     1      45.511 -11.880   9.191  1.00  0.00     0.269 C 
ENDBRANCH  23  24
ENDBRANCH   8  23
BRANCH   1  28
HETATM   28  C   UNL     1      44.707 -20.235   4.764  1.00  0.00     0.300 C 
HETATM   29  O   UNL     1      44.641 -21.202   5.513  1.00  0.00    -0.259 OA
BRANCH  28  30
HETATM   30  O   UNL     1      44.965 -20.315   3.429  1.00  0.00    -0.317 OA
BRANCH  30  31
HETATM   31  C   UNL     1      44.731 -21.594   2.818  1.00  0.00     0.174 C 
HETATM   32  C   UNL     1      43.582 -21.493   1.832  1.00  0.00     0.034 C 
ENDBRANCH  30  31
ENDBRANCH  28  30
ENDBRANCH   1  28
TORSDOF 7
ENDMDL
MODEL 9
REMARK VINA RESULT:      -6.5      2.031      2.609
REMARK  7 active torsions:
REMARK  status: ('A' for Active; 'I' for Inactive)
REMARK    1  A    between atoms: C_2  and  O_3 
REMARK    2  A    between atoms: O_3  and  C_4 
REMARK    3  A    between atoms: C_4  and  C_5 
REMARK    4  A    between atoms: C_12  and  C_13 
REMARK    5  A    between atoms: C_13  and  N_14 
REMARK    6  A    between atoms: C_19  and  N_20 
REMARK    7  A    between atoms: N_23  and  C_25 
ROOT
HETATM    1  C   UNL     1      44.008 -18.869   4.596  1.00  0.00     0.089 C 
HETATM    2  S   UNL     1      44.414 -17.774   5.845  1.00  0.00    -0.063 SA
HETATM    3  C   UNL     1      43.457 -16.546   5.180  1.00  0.00     0.115 C 
HETATM    4  C   UNL     1      42.878 -16.891   3.972  1.00  0.00     0.053 C 
HETATM    5  C   UNL     1      43.049 -18.321   3.740  1.00  0.00    -0.022 C 
HETATM    6  C   UNL     1      42.320 -19.125   2.702  1.00  0.00     0.051 C 
HETATM    7  N   UNL     1      43.343 -15.375   5.824  1.00  0.00    -0.224 NA
HETATM    8  C   UNL     1      42.590 -14.487   5.165  1.00  0.00     0.155 C 
HETATM    9  N   UNL     1      42.079 -14.644   3.926  1.00  0.00    -0.213 NA
HETATM   10  C   UNL     1      42.219 -15.837   3.278  1.00  0.00     0.141 C 
ENDROOT
BRANCH  10  11
HETATM   11  N   UNL     1      41.704 -15.963   1.989  1.00  0.00    -0.362 N 
HETATM   12  C   UNL     1      42.235 -15.041   0.964  1.00  0.00     0.152 C 
HETATM   13  C   UNL     1      41.355 -13.789   0.787  1.00  0.00     0.255 C 
HETATM   14  N   UNL     1      39.899 -14.178   0.518  1.00  0.00    -0.064 N 
HETATM   15  H   UNL     1      39.896 -14.769  -0.325  1.00  0.00     0.280 HD
HETATM   16  C   UNL     1      39.392 -15.048   1.679  1.00  0.00     0.255 C 
HETATM   17  C   UNL     1      40.279 -16.301   1.844  1.00  0.00     0.152 C 
BRANCH  14  18
HETATM   18  C   UNL     1      39.022 -12.980   0.232  1.00  0.00     0.188 C 
HETATM   19  C   UNL     1      39.781 -11.889  -0.520  1.00  0.00     0.033 C 
HETATM   20  C   UNL     1      38.669 -11.033  -1.104  1.00  0.00     0.002 C 
HETATM   21  C   UNL     1      37.539 -12.005  -1.428  1.00  0.00     0.002 C 
HETATM   22  C   UNL     1      37.893 -13.323  -0.738  1.00  0.00     0.033 C 
ENDBRANCH  14  18
ENDBRANCH  10  11
BRANCH   8  23
HETATM   23  C   UNL     1      42.239 -13.227   5.950  1.00  0.00     0.314 C 
BRANCH  23  24
HETATM   24  N   UNL     1      41.019 -12.476   5.408  1.00  0.00    -0.072 N 
HETATM   25  H   UNL     1      40.707 -13.047   4.603  1.00  0.00     0.279 HD
HETATM   26  C   UNL     1      39.867 -12.463   6.368  1.00  0.00     0.269 C 
HETATM   27  C   UNL     1      41.348 -11.110   4.891  1.00  0.00     0.269 C 
ENDBRANCH  23  24
ENDBRANCH   8  23
BRANCH   1  28
HETATM   28  C   UNL     1      44.612 -20.198   4.512  1.00  0.00     0.300 C 
HETATM   29  O   UNL     1      44.722 -20.963   5.461  1.00  0.00    -0.259 OA
BRANCH  28  30
HETATM   30  O   UNL     1      44.946 -20.513   3.229  1.00  0.00    -0.317 OA
BRANCH  30  31
HETATM   31  C   UNL     1      44.728 -21.880   2.840  1.00  0.00     0.174 C 
HETATM   32  C   UNL     1      44.085 -21.930   1.467  1.00  0.00     0.034 C 
ENDBRANCH  30  31
ENDBRANCH  28  30
ENDBRANCH   1  28
TORSDOF 7
ENDMDL
MODEL 10
REMARK VINA RESULT:      -6.5      3.169      5.956
REMARK  7 active torsions:
REMARK  status: ('A' for Active; 'I' for Inactive)
REMARK    1  A    between atoms: C_2  and  O_3 
REMARK    2  A    between atoms: O_3  and  C_4 
REMARK    3  A    between atoms: C_4  and  C_5 
REMARK    4  A    between atoms: C_12  and  C_13 
REMARK    5  A    between atoms: C_13  and  N_14 
REMARK    6  A    between atoms: C_19  and  N_20 
REMARK    7  A    between atoms: N_23  and  C_25 
ROOT
HETATM    1  C   UNL     1      40.254 -12.580   5.360  1.00  0.00     0.089 C 
HETATM    2  S   UNL     1      40.305 -14.244   5.750  1.00  0.00    -0.063 SA
HETATM    3  C   UNL     1      40.763 -14.674   4.177  1.00  0.00     0.115 C 
HETATM    4  C   UNL     1      40.809 -13.602   3.304  1.00  0.00     0.053 C 
HETATM    5  C   UNL     1      40.701 -12.357   4.056  1.00  0.00    -0.022 C 
HETATM    6  C   UNL     1      41.000 -10.987   3.514  1.00  0.00     0.051 C 
HETATM    7  N   UNL     1      41.019 -15.959   3.891  1.00  0.00    -0.224 NA
HETATM    8  C   UNL     1      41.328 -16.156   2.605  1.00  0.00     0.155 C 
HETATM    9  N   UNL     1      41.282 -15.229   1.625  1.00  0.00    -0.213 NA
HETATM   10  C   UNL     1      41.003 -13.929   1.932  1.00  0.00     0.141 C 
ENDROOT
BRANCH  10  11
HETATM   11  N   UNL     1      40.934 -12.997   0.898  1.00  0.00    -0.362 N 
HETATM   12  C   UNL     1      39.587 -12.595   0.447  1.00  0.00     0.152 C 
HETATM   13  C   UNL     1      39.103 -13.414  -0.765  1.00  0.00     0.255 C 
HETATM   14  N   UNL     1      40.129 -13.370  -1.899  1.00  0.00    -0.064 N 
HETATM   15  H   UNL     1      40.270 -12.378  -2.140  1.00  0.00     0.280 HD
HETATM   16  C   UNL     1      41.474 -13.900  -1.377  1.00  0.00     0.255 C 
HETATM   17  C   UNL     1      41.950 -13.069  -0.166  1.00  0.00     0.152 C 
BRANCH  14  18
HETATM   18  C   UNL     1      39.645 -14.072  -3.148  1.00  0.00     0.188 C 
HETATM   19  C   UNL     1      40.077 -15.536  -3.176  1.00  0.00     0.033 C 
HETATM   20  C   UNL     1      39.142 -16.153  -4.203  1.00  0.00     0.002 C 
HETATM   21  C   UNL     1      37.823 -15.401  -4.052  1.00  0.00     0.002 C 
HETATM   22  C   UNL     1      38.122 -14.177  -3.185  1.00  0.00     0.033 C 
ENDBRANCH  14  18
ENDBRANCH  10  11
BRANCH   8  23
HETATM   23  C   UNL     1      41.849 -17.551   2.271  1.00  0.00     0.314 C 
BRANCH  23  24
HETATM   24  N   UNL     1      43.338 -17.749   2.575  1.00  0.00    -0.072 N 
HETATM   25  H   UNL     1      43.531 -17.076   3.337  1.00  0.00     0.279 HD
HETATM   26  C   UNL     1      43.643 -19.103   3.143  1.00  0.00     0.269 C 
HETATM   27  C   UNL     1      44.228 -17.397   1.426  1.00  0.00     0.269 C 
ENDBRANCH  23  24
ENDBRANCH   8  23
BRANCH   1  28
HETATM   28  C   UNL     1      39.809 -11.578   6.327  1.00  0.00     0.300 C 
HETATM   29  O   UNL     1      38.781 -10.923   6.212  1.00  0.00    -0.259 OA
BRANCH  28  30
HETATM   30  O   UNL     1      40.628 -11.536   7.415  1.00  0.00    -0.317 OA
BRANCH  30  31
HETATM   31  C   UNL     1      41.814 -10.735   7.279  1.00  0.00     0.174 C 
HETATM   32  C   UNL     1      42.659 -10.847   8.534  1.00  0.00     0.034 C 
ENDBRANCH  30  31
ENDBRANCH  28  30
ENDBRANCH   1  28
TORSDOF 7
ENDMDL
