MODEL 1
REMARK VINA RESULT:      -9.1      0.000      0.000
REMARK  5 active torsions:
REMARK  status: ('A' for Active; 'I' for Inactive)
REMARK    1  A    between atoms: C_7  and  C_8 
REMARK    2  A    between atoms: N_9  and  N_10 
REMARK       I    between atoms: N_10  and  C_11 
REMARK    3  A    between atoms: C_11  and  C_12 
REMARK    4  A    between atoms: C_12  and  N_13 
REMARK       I    between atoms: N_13  and  C_14 
REMARK    5  A    between atoms: C_14  and  C_15 
ROOT
HETATM    1  N   UNL     1      43.997 -15.651   6.536  1.00  0.00    -0.246 N 
HETATM    2  C   UNL     1      43.996 -14.264   6.538  1.00  0.00     0.255 C 
HETATM    3  O   UNL     1      43.505 -13.549   5.667  1.00  0.00    -0.270 OA
HETATM    4  H   UNL     1      44.549 -16.146   7.240  1.00  0.00     0.192 HD
ENDROOT
BRANCH   1   5
HETATM    5  N   UNL     1      43.404 -16.342   5.521  1.00  0.00    -0.184 NA
HETATM    6  C   UNL     1      44.170 -17.180   4.903  1.00  0.00     0.153 C 
BRANCH   6   7
HETATM    7  C   UNL     1      43.660 -17.955   3.786  1.00  0.00     0.018 A 
HETATM    8  C   UNL     1      42.807 -17.513   2.781  1.00  0.00     0.018 A 
HETATM    9  C   UNL     1      42.179 -16.184   2.545  1.00  0.00     0.069 C 
HETATM   10  N   UNL     1      42.593 -18.562   1.922  1.00  0.00    -0.358 N 
HETATM   11  H   UNL     1      42.015 -18.524   1.096  1.00  0.00     0.166 HD
HETATM   12  C   UNL     1      43.278 -19.677   2.338  1.00  0.00     0.043 A 
HETATM   13  C   UNL     1      43.954 -19.331   3.507  1.00  0.00     0.004 A 
HETATM   14  C   UNL     1      43.345 -20.956   1.770  1.00  0.00     0.030 A 
HETATM   15  C   UNL     1      44.735 -20.321   4.144  1.00  0.00     0.014 A 
HETATM   16  C   UNL     1      44.810 -21.606   3.592  1.00  0.00     0.001 A 
HETATM   17  C   UNL     1      44.125 -21.915   2.421  1.00  0.00     0.002 A 
ENDBRANCH   6   7
ENDBRANCH   1   5
BRANCH   2  18
HETATM   18  C   UNL     1      44.796 -13.665   7.698  1.00  0.00     0.227 C 
BRANCH  18  19
HETATM   19  N   UNL     1      44.013 -12.834   8.607  1.00  0.00    -0.348 N 
HETATM   20  C   UNL     1      44.476 -11.621   9.065  1.00  0.00     0.252 C 
HETATM   21  O   UNL     1      45.633 -11.264   8.852  1.00  0.00    -0.268 OA
HETATM   22  H   UNL     1      43.157 -13.233   8.965  1.00  0.00     0.163 HD
BRANCH  20  23
HETATM   23  C   UNL     1      43.561 -10.773   9.882  1.00  0.00     0.033 A 
HETATM   24  C   UNL     1      43.921 -10.526  11.215  1.00  0.00     0.041 A 
HETATM   25  C   UNL     1      43.113  -9.728  12.023  1.00  0.00     0.035 A 
HETATM   26 CL   UNL     1      43.567  -9.427  13.655  1.00  0.00    -0.084 Cl
HETATM   27  C   UNL     1      41.943  -9.168  11.519  1.00  0.00     0.024 A 
HETATM   28  C   UNL     1      41.580  -9.401  10.192  1.00  0.00     0.003 A 
HETATM   29  C   UNL     1      42.388 -10.196   9.373  1.00  0.00     0.017 A 
ENDBRANCH  20  23
ENDBRANCH  18  19
ENDBRANCH   2  18
TORSDOF 5
ENDMDL
MODEL 2
REMARK VINA RESULT:      -9.1      1.975      2.873
REMARK  5 active torsions:
REMARK  status: ('A' for Active; 'I' for Inactive)
REMARK    1  A    between atoms: C_7  and  C_8 
REMARK    2  A    between atoms: N_9  and  N_10 
REMARK       I    between atoms: N_10  and  C_11 
REMARK    3  A    between atoms: C_11  and  C_12 
REMARK    4  A    between atoms: C_12  and  N_13 
REMARK       I    between atoms: N_13  and  C_14 
REMARK    5  A    between atoms: C_14  and  C_15 
ROOT
HETATM    1  N   UNL     1      42.971 -14.208   6.476  1.00  0.00    -0.246 N 
HETATM    2  C   UNL     1      42.620 -13.193   5.599  1.00  0.00     0.255 C 
HETATM    3  O   UNL     1      42.828 -13.192   4.387  1.00  0.00    -0.270 OA
HETATM    4  H   UNL     1      42.871 -14.050   7.481  1.00  0.00     0.192 HD
ENDROOT
BRANCH   1   5
HETATM    5  N   UNL     1      43.584 -15.337   6.018  1.00  0.00    -0.184 NA
HETATM    6  C   UNL     1      42.873 -16.416   6.083  1.00  0.00     0.153 C 
BRANCH   6   7
HETATM    7  C   UNL     1      43.427 -17.687   5.651  1.00  0.00     0.018 A 
HETATM    8  C   UNL     1      44.001 -18.665   6.454  1.00  0.00     0.018 A 
HETATM    9  C   UNL     1      44.223 -18.718   7.925  1.00  0.00     0.069 C 
HETATM   10  N   UNL     1      44.376 -19.706   5.642  1.00  0.00    -0.358 N 
HETATM   11  H   UNL     1      44.817 -20.557   5.959  1.00  0.00     0.166 HD
HETATM   12  C   UNL     1      44.067 -19.435   4.332  1.00  0.00     0.043 A 
HETATM   13  C   UNL     1      43.473 -18.174   4.302  1.00  0.00     0.004 A 
HETATM   14  C   UNL     1      44.269 -20.209   3.181  1.00  0.00     0.030 A 
HETATM   15  C   UNL     1      43.066 -17.657   3.052  1.00  0.00     0.014 A 
HETATM   16  C   UNL     1      43.265 -18.415   1.892  1.00  0.00     0.001 A 
HETATM   17  C   UNL     1      43.857 -19.673   1.959  1.00  0.00     0.002 A 
ENDBRANCH   6   7
ENDBRANCH   1   5
BRANCH   2  18
HETATM   18  C   UNL     1      42.037 -11.965   6.304  1.00  0.00     0.227 C 
BRANCH  18  19
HETATM   19  N   UNL     1      42.412 -11.840   7.710  1.00  0.00    -0.348 N 
HETATM   20  C   UNL     1      42.351 -10.636   8.373  1.00  0.00     0.252 C 
HETATM   21  O   UNL     1      42.133  -9.589   7.768  1.00  0.00    -0.268 OA
HETATM   22  H   UNL     1      42.811 -12.657   8.148  1.00  0.00     0.163 HD
BRANCH  20  23
HETATM   23  C   UNL     1      42.622 -10.618   9.840  1.00  0.00     0.033 A 
HETATM   24  C   UNL     1      41.574 -10.985  10.698  1.00  0.00     0.041 A 
HETATM   25  C   UNL     1      41.772 -11.003  12.078  1.00  0.00     0.035 A 
HETATM   26 CL   UNL     1      40.483 -11.459  13.120  1.00  0.00    -0.084 Cl
HETATM   27  C   UNL     1      43.008 -10.658  12.619  1.00  0.00     0.024 A 
HETATM   28  C   UNL     1      44.058 -10.300  11.773  1.00  0.00     0.003 A 
HETATM   29  C   UNL     1      43.869 -10.285  10.387  1.00  0.00     0.017 A 
ENDBRANCH  20  23
ENDBRANCH  18  19
ENDBRANCH   2  18
TORSDOF 5
ENDMDL
MODEL 3
REMARK VINA RESULT:      -9.0      6.240      8.346
REMARK  5 active torsions:
REMARK  status: ('A' for Active; 'I' for Inactive)
REMARK    1  A    between atoms: C_7  and  C_8 
REMARK    2  A    between atoms: N_9  and  N_10 
REMARK       I    between atoms: N_10  and  C_11 
REMARK    3  A    between atoms: C_11  and  C_12 
REMARK    4  A    between atoms: C_12  and  N_13 
REMARK       I    between atoms: N_13  and  C_14 
REMARK    5  A    between atoms: C_14  and  C_15 
ROOT
HETATM    1  N   UNL     1      41.794 -15.689   2.954  1.00  0.00    -0.246 N 
HETATM    2  C   UNL     1      40.942 -14.894   3.706  1.00  0.00     0.255 C 
HETATM    3  O   UNL     1      40.458 -15.196   4.795  1.00  0.00    -0.270 OA
HETATM    4  H   UNL     1      42.032 -15.398   2.004  1.00  0.00     0.192 HD
ENDROOT
BRANCH   1   5
HETATM    5  N   UNL     1      42.182 -16.913   3.412  1.00  0.00    -0.184 NA
HETATM    6  C   UNL     1      43.446 -17.036   3.658  1.00  0.00     0.153 C 
BRANCH   6   7
HETATM    7  C   UNL     1      43.984 -18.301   4.124  1.00  0.00     0.018 A 
HETATM    8  C   UNL     1      44.572 -18.556   5.357  1.00  0.00     0.018 A 
HETATM    9  C   UNL     1      44.825 -17.667   6.523  1.00  0.00     0.069 C 
HETATM   10  N   UNL     1      44.926 -19.882   5.386  1.00  0.00    -0.358 N 
HETATM   11  H   UNL     1      45.370 -20.345   6.165  1.00  0.00     0.166 HD
HETATM   12  C   UNL     1      44.589 -20.500   4.206  1.00  0.00     0.043 A 
HETATM   13  C   UNL     1      44.000 -19.534   3.391  1.00  0.00     0.004 A 
HETATM   14  C   UNL     1      44.764 -21.831   3.806  1.00  0.00     0.030 A 
HETATM   15  C   UNL     1      43.568 -19.922   2.103  1.00  0.00     0.014 A 
HETATM   16  C   UNL     1      43.739 -21.248   1.685  1.00  0.00     0.001 A 
HETATM   17  C   UNL     1      44.327 -22.186   2.528  1.00  0.00     0.002 A 
ENDBRANCH   6   7
ENDBRANCH   1   5
BRANCH   2  18
HETATM   18  C   UNL     1      40.536 -13.604   2.988  1.00  0.00     0.227 C 
BRANCH  18  19
HETATM   19  N   UNL     1      40.611 -13.672   1.532  1.00  0.00    -0.348 N 
HETATM   20  C   UNL     1      41.668 -13.135   0.833  1.00  0.00     0.252 C 
HETATM   21  O   UNL     1      42.511 -12.439   1.394  1.00  0.00    -0.268 OA
HETATM   22  H   UNL     1      39.804 -14.044   1.053  1.00  0.00     0.163 HD
BRANCH  20  23
HETATM   23  C   UNL     1      41.736 -13.365  -0.640  1.00  0.00     0.033 A 
HETATM   24  C   UNL     1      41.075 -14.491  -1.153  1.00  0.00     0.041 A 
HETATM   25  C   UNL     1      41.091 -14.749  -2.523  1.00  0.00     0.035 A 
HETATM   26 CL   UNL     1      40.272 -16.129  -3.141  1.00  0.00    -0.084 Cl
HETATM   27  C   UNL     1      41.759 -13.894  -3.395  1.00  0.00     0.024 A 
HETATM   28  C   UNL     1      42.411 -12.767  -2.895  1.00  0.00     0.003 A 
HETATM   29  C   UNL     1      42.397 -12.498  -1.522  1.00  0.00     0.017 A 
ENDBRANCH  20  23
ENDBRANCH  18  19
ENDBRANCH   2  18
TORSDOF 5
ENDMDL
MODEL 4
REMARK VINA RESULT:      -8.9      1.401      2.312
REMARK  5 active torsions:
REMARK  status: ('A' for Active; 'I' for Inactive)
REMARK    1  A    between atoms: C_7  and  C_8 
REMARK    2  A    between atoms: N_9  and  N_10 
REMARK       I    between atoms: N_10  and  C_11 
REMARK    3  A    between atoms: C_11  and  C_12 
REMARK    4  A    between atoms: C_12  and  N_13 
REMARK       I    between atoms: N_13  and  C_14 
REMARK    5  A    between atoms: C_14  and  C_15 
ROOT
HETATM    1  N   UNL     1      44.172 -15.406   7.334  1.00  0.00    -0.246 N 
HETATM    2  C   UNL     1      44.482 -14.107   6.959  1.00  0.00     0.255 C 
HETATM    3  O   UNL     1      44.385 -13.649   5.822  1.00  0.00    -0.270 OA
HETATM    4  H   UNL     1      44.415 -15.719   8.276  1.00  0.00     0.192 HD
ENDROOT
BRANCH   1   5
HETATM    5  N   UNL     1      43.697 -16.296   6.418  1.00  0.00    -0.184 NA
HETATM    6  C   UNL     1      44.504 -17.259   6.113  1.00  0.00     0.153 C 
BRANCH   6   7
HETATM    7  C   UNL     1      44.122 -18.255   5.128  1.00  0.00     0.018 A 
HETATM    8  C   UNL     1      43.896 -19.608   5.350  1.00  0.00     0.018 A 
HETATM    9  C   UNL     1      43.972 -20.421   6.595  1.00  0.00     0.069 C 
HETATM   10  N   UNL     1      43.542 -20.175   4.152  1.00  0.00    -0.358 N 
HETATM   11  H   UNL     1      43.316 -21.150   4.018  1.00  0.00     0.166 HD
HETATM   12  C   UNL     1      43.534 -19.233   3.152  1.00  0.00     0.043 A 
HETATM   13  C   UNL     1      43.897 -18.018   3.731  1.00  0.00     0.004 A 
HETATM   14  C   UNL     1      43.235 -19.370   1.791  1.00  0.00     0.030 A 
HETATM   15  C   UNL     1      43.971 -16.879   2.899  1.00  0.00     0.014 A 
HETATM   16  C   UNL     1      43.680 -16.998   1.534  1.00  0.00     0.001 A 
HETATM   17  C   UNL     1      43.316 -18.227   0.991  1.00  0.00     0.002 A 
ENDBRANCH   6   7
ENDBRANCH   1   5
BRANCH   2  18
HETATM   18  C   UNL     1      45.098 -13.285   8.095  1.00  0.00     0.227 C 
BRANCH  18  19
HETATM   19  N   UNL     1      44.154 -12.421   8.797  1.00  0.00    -0.348 N 
HETATM   20  C   UNL     1      44.305 -12.110  10.129  1.00  0.00     0.252 C 
HETATM   21  O   UNL     1      45.151 -12.675  10.819  1.00  0.00    -0.268 OA
HETATM   22  H   UNL     1      43.329 -12.140   8.287  1.00  0.00     0.163 HD
BRANCH  20  23
HETATM   23  C   UNL     1      43.375 -11.114  10.737  1.00  0.00     0.033 A 
HETATM   24  C   UNL     1      43.672 -10.651  12.028  1.00  0.00     0.041 A 
HETATM   25  C   UNL     1      42.847  -9.709  12.641  1.00  0.00     0.035 A 
HETATM   26 CL   UNL     1      43.224  -9.145  14.221  1.00  0.00    -0.084 Cl
HETATM   27  C   UNL     1      41.724  -9.218  11.982  1.00  0.00     0.024 A 
HETATM   28  C   UNL     1      41.426  -9.666  10.695  1.00  0.00     0.003 A 
HETATM   29  C   UNL     1      42.250 -10.608  10.070  1.00  0.00     0.017 A 
ENDBRANCH  20  23
ENDBRANCH  18  19
ENDBRANCH   2  18
TORSDOF 5
ENDMDL
MODEL 5
REMARK VINA RESULT:      -8.7      6.530      9.994
REMARK  5 active torsions:
REMARK  status: ('A' for Active; 'I' for Inactive)
REMARK    1  A    between atoms: C_7  and  C_8 
REMARK    2  A    between atoms: N_9  and  N_10 
REMARK       I    between atoms: N_10  and  C_11 
REMARK    3  A    between atoms: C_11  and  C_12 
REMARK    4  A    between atoms: C_12  and  N_13 
REMARK       I    between atoms: N_13  and  C_14 
REMARK    5  A    between atoms: C_14  and  C_15 
ROOT
HETATM    1  N   UNL     1      41.489 -14.370   1.802  1.00  0.00    -0.246 N 
HETATM    2  C   UNL     1      40.639 -15.331   2.328  1.00  0.00     0.255 C 
HETATM    3  O   UNL     1      39.613 -15.748   1.793  1.00  0.00    -0.270 OA
HETATM    4  H   UNL     1      42.240 -14.001   2.388  1.00  0.00     0.192 HD
ENDROOT
BRANCH   1   5
HETATM    5  N   UNL     1      41.234 -13.813   0.584  1.00  0.00    -0.184 NA
HETATM    6  C   UNL     1      42.037 -14.170  -0.365  1.00  0.00     0.153 C 
BRANCH   6   7
HETATM    7  C   UNL     1      41.886 -13.623  -1.701  1.00  0.00     0.018 A 
HETATM    8  C   UNL     1      41.341 -14.261  -2.809  1.00  0.00     0.018 A 
HETATM    9  C   UNL     1      40.776 -15.629  -2.971  1.00  0.00     0.069 C 
HETATM   10  N   UNL     1      41.377 -13.379  -3.860  1.00  0.00    -0.358 N 
HETATM   11  H   UNL     1      41.041 -13.575  -4.792  1.00  0.00     0.166 HD
HETATM   12  C   UNL     1      41.933 -12.185  -3.472  1.00  0.00     0.043 A 
HETATM   13  C   UNL     1      42.267 -12.306  -2.124  1.00  0.00     0.004 A 
HETATM   14  C   UNL     1      42.163 -11.017  -4.212  1.00  0.00     0.030 A 
HETATM   15  C   UNL     1      42.869 -11.200  -1.483  1.00  0.00     0.014 A 
HETATM   16  C   UNL     1      43.110 -10.027  -2.209  1.00  0.00     0.001 A 
HETATM   17  C   UNL     1      42.759  -9.939  -3.553  1.00  0.00     0.002 A 
ENDBRANCH   6   7
ENDBRANCH   1   5
BRANCH   2  18
HETATM   18  C   UNL     1      41.026 -15.765   3.744  1.00  0.00     0.227 C 
BRANCH  18  19
HETATM   19  N   UNL     1      41.677 -17.069   3.821  1.00  0.00    -0.348 N 
HETATM   20  C   UNL     1      42.958 -17.270   3.361  1.00  0.00     0.252 C 
HETATM   21  O   UNL     1      43.546 -16.399   2.723  1.00  0.00    -0.268 OA
HETATM   22  H   UNL     1      41.110 -17.842   4.138  1.00  0.00     0.163 HD
BRANCH  20  23
HETATM   23  C   UNL     1      43.599 -18.596   3.598  1.00  0.00     0.033 A 
HETATM   24  C   UNL     1      43.572 -19.527   2.549  1.00  0.00     0.041 A 
HETATM   25  C   UNL     1      44.168 -20.778   2.707  1.00  0.00     0.035 A 
HETATM   26 CL   UNL     1      44.134 -21.910   1.412  1.00  0.00    -0.084 Cl
HETATM   27  C   UNL     1      44.795 -21.116   3.903  1.00  0.00     0.024 A 
HETATM   28  C   UNL     1      44.834 -20.193   4.949  1.00  0.00     0.003 A 
HETATM   29  C   UNL     1      44.243 -18.935   4.797  1.00  0.00     0.017 A 
ENDBRANCH  20  23
ENDBRANCH  18  19
ENDBRANCH   2  18
TORSDOF 5
ENDMDL
MODEL 6
REMARK VINA RESULT:      -8.7      6.260      8.358
REMARK  5 active torsions:
REMARK  status: ('A' for Active; 'I' for Inactive)
REMARK    1  A    between atoms: C_7  and  C_8 
REMARK    2  A    between atoms: N_9  and  N_10 
REMARK       I    between atoms: N_10  and  C_11 
REMARK    3  A    between atoms: C_11  and  C_12 
REMARK    4  A    between atoms: C_12  and  N_13 
REMARK       I    between atoms: N_13  and  C_14 
REMARK    5  A    between atoms: C_14  and  C_15 
ROOT
HETATM    1  N   UNL     1      41.460 -15.753   3.565  1.00  0.00    -0.246 N 
HETATM    2  C   UNL     1      40.510 -15.679   2.557  1.00  0.00     0.255 C 
HETATM    3  O   UNL     1      40.061 -16.634   1.927  1.00  0.00    -0.270 OA
HETATM    4  H   UNL     1      41.861 -14.887   3.931  1.00  0.00     0.192 HD
ENDROOT
BRANCH   1   5
HETATM    5  N   UNL     1      41.966 -16.958   3.952  1.00  0.00    -0.184 NA
HETATM    6  C   UNL     1      43.249 -17.080   3.838  1.00  0.00     0.153 C 
BRANCH   6   7
HETATM    7  C   UNL     1      43.902 -18.328   4.192  1.00  0.00     0.018 A 
HETATM    8  C   UNL     1      44.620 -18.596   5.351  1.00  0.00     0.018 A 
HETATM    9  C   UNL     1      44.932 -17.742   6.529  1.00  0.00     0.069 C 
HETATM   10  N   UNL     1      45.050 -19.898   5.284  1.00  0.00    -0.358 N 
HETATM   11  H   UNL     1      45.594 -20.365   5.996  1.00  0.00     0.166 HD
HETATM   12  C   UNL     1      44.639 -20.486   4.114  1.00  0.00     0.043 A 
HETATM   13  C   UNL     1      43.919 -19.526   3.403  1.00  0.00     0.004 A 
HETATM   14  C   UNL     1      44.851 -21.786   3.637  1.00  0.00     0.030 A 
HETATM   15  C   UNL     1      43.388 -19.887   2.145  1.00  0.00     0.014 A 
HETATM   16  C   UNL     1      43.595 -21.181   1.651  1.00  0.00     0.001 A 
HETATM   17  C   UNL     1      44.315 -22.115   2.390  1.00  0.00     0.002 A 
ENDBRANCH   6   7
ENDBRANCH   1   5
BRANCH   2  18
HETATM   18  C   UNL     1      40.137 -14.240   2.189  1.00  0.00     0.227 C 
BRANCH  18  19
HETATM   19  N   UNL     1      40.878 -13.694   1.056  1.00  0.00    -0.348 N 
HETATM   20  C   UNL     1      40.333 -13.628  -0.206  1.00  0.00     0.252 C 
HETATM   21  O   UNL     1      39.262 -14.173  -0.462  1.00  0.00    -0.268 OA
HETATM   22  H   UNL     1      41.845 -13.455   1.219  1.00  0.00     0.163 HD
BRANCH  20  23
HETATM   23  C   UNL     1      41.104 -12.934  -1.278  1.00  0.00     0.033 A 
HETATM   24  C   UNL     1      42.006 -11.933  -0.885  1.00  0.00     0.041 A 
HETATM   25  C   UNL     1      42.765 -11.260  -1.842  1.00  0.00     0.035 A 
HETATM   26 CL   UNL     1      43.871 -10.039  -1.348  1.00  0.00    -0.084 Cl
HETATM   27  C   UNL     1      42.639 -11.573  -3.192  1.00  0.00     0.024 A 
HETATM   28  C   UNL     1      41.751 -12.573  -3.591  1.00  0.00     0.003 A 
HETATM   29  C   UNL     1      40.989 -13.256  -2.638  1.00  0.00     0.017 A 
ENDBRANCH  20  23
ENDBRANCH  18  19
ENDBRANCH   2  18
TORSDOF 5
ENDMDL
MODEL 7
REMARK VINA RESULT:      -8.6      6.693      9.198
REMARK  5 active torsions:
REMARK  status: ('A' for Active; 'I' for Inactive)
REMARK    1  A    between atoms: C_7  and  C_8 
REMARK    2  A    between atoms: N_9  and  N_10 
REMARK       I    between atoms: N_10  and  C_11 
REMARK    3  A    between atoms: C_11  and  C_12 
REMARK    4  A    between atoms: C_12  and  N_13 
REMARK       I    between atoms: N_13  and  C_14 
REMARK    5  A    between atoms: C_14  and  C_15 
ROOT
HETATM    1  N   UNL     1      41.379 -15.604   3.683  1.00  0.00    -0.246 N 
HETATM    2  C   UNL     1      40.440 -15.546   2.664  1.00  0.00     0.255 C 
HETATM    3  O   UNL     1      40.009 -16.510   2.034  1.00  0.00    -0.270 OA
HETATM    4  H   UNL     1      41.766 -14.731   4.049  1.00  0.00     0.192 HD
ENDROOT
BRANCH   1   5
HETATM    5  N   UNL     1      41.895 -16.801   4.081  1.00  0.00    -0.184 NA
HETATM    6  C   UNL     1      43.166 -16.946   3.887  1.00  0.00     0.153 C 
BRANCH   6   7
HETATM    7  C   UNL     1      43.826 -18.189   4.245  1.00  0.00     0.018 A 
HETATM    8  C   UNL     1      44.537 -18.453   5.409  1.00  0.00     0.018 A 
HETATM    9  C   UNL     1      44.833 -17.598   6.591  1.00  0.00     0.069 C 
HETATM   10  N   UNL     1      44.979 -19.751   5.344  1.00  0.00    -0.358 N 
HETATM   11  H   UNL     1      45.520 -20.215   6.060  1.00  0.00     0.166 HD
HETATM   12  C   UNL     1      44.581 -20.341   4.170  1.00  0.00     0.043 A 
HETATM   13  C   UNL     1      43.859 -19.386   3.455  1.00  0.00     0.004 A 
HETATM   14  C   UNL     1      44.807 -21.639   3.693  1.00  0.00     0.030 A 
HETATM   15  C   UNL     1      43.341 -19.749   2.192  1.00  0.00     0.014 A 
HETATM   16  C   UNL     1      43.562 -21.041   1.698  1.00  0.00     0.001 A 
HETATM   17  C   UNL     1      44.283 -21.971   2.441  1.00  0.00     0.002 A 
ENDBRANCH   6   7
ENDBRANCH   1   5
BRANCH   2  18
HETATM   18  C   UNL     1      40.053 -14.114   2.284  1.00  0.00     0.227 C 
BRANCH  18  19
HETATM   19  N   UNL     1      39.307 -14.000   1.035  1.00  0.00    -0.348 N 
HETATM   20  C   UNL     1      39.924 -13.674  -0.152  1.00  0.00     0.252 C 
HETATM   21  O   UNL     1      41.097 -13.311  -0.178  1.00  0.00    -0.268 OA
HETATM   22  H   UNL     1      38.303 -14.075   1.097  1.00  0.00     0.163 HD
BRANCH  20  23
HETATM   23  C   UNL     1      39.115 -13.710  -1.406  1.00  0.00     0.033 A 
HETATM   24  C   UNL     1      39.341 -14.772  -2.294  1.00  0.00     0.041 A 
HETATM   25  C   UNL     1      38.605 -14.866  -3.475  1.00  0.00     0.035 A 
HETATM   26 CL   UNL     1      38.886 -16.176  -4.554  1.00  0.00    -0.084 Cl
HETATM   27  C   UNL     1      37.640 -13.911  -3.784  1.00  0.00     0.024 A 
HETATM   28  C   UNL     1      37.403 -12.857  -2.902  1.00  0.00     0.003 A 
HETATM   29  C   UNL     1      38.134 -12.757  -1.714  1.00  0.00     0.017 A 
ENDBRANCH  20  23
ENDBRANCH  18  19
ENDBRANCH   2  18
TORSDOF 5
ENDMDL
MODEL 8
REMARK VINA RESULT:      -8.5      2.041      2.504
REMARK  5 active torsions:
REMARK  status: ('A' for Active; 'I' for Inactive)
REMARK    1  A    between atoms: C_7  and  C_8 
REMARK    2  A    between atoms: N_9  and  N_10 
REMARK       I    between atoms: N_10  and  C_11 
REMARK    3  A    between atoms: C_11  and  C_12 
REMARK    4  A    between atoms: C_12  and  N_13 
REMARK       I    between atoms: N_13  and  C_14 
REMARK    5  A    between atoms: C_14  and  C_15 
ROOT
HETATM    1  N   UNL     1      42.213 -13.884   5.545  1.00  0.00    -0.246 N 
HETATM    2  C   UNL     1      41.104 -13.059   5.444  1.00  0.00     0.255 C 
HETATM    3  O   UNL     1      40.076 -13.316   4.820  1.00  0.00    -0.270 OA
HETATM    4  H   UNL     1      43.064 -13.518   5.976  1.00  0.00     0.192 HD
ENDROOT
BRANCH   1   5
HETATM    5  N   UNL     1      42.223 -15.107   4.942  1.00  0.00    -0.184 NA
HETATM    6  C   UNL     1      43.137 -15.271   4.042  1.00  0.00     0.153 C 
BRANCH   6   7
HETATM    7  C   UNL     1      43.232 -16.521   3.310  1.00  0.00     0.018 A 
HETATM    8  C   UNL     1      42.835 -16.754   1.999  1.00  0.00     0.018 A 
HETATM    9  C   UNL     1      42.220 -15.852   0.987  1.00  0.00     0.069 C 
HETATM   10  N   UNL     1      43.118 -18.064   1.703  1.00  0.00    -0.358 N 
HETATM   11  H   UNL     1      42.938 -18.508   0.814  1.00  0.00     0.166 HD
HETATM   12  C   UNL     1      43.685 -18.695   2.783  1.00  0.00     0.043 A 
HETATM   13  C   UNL     1      43.767 -17.755   3.810  1.00  0.00     0.004 A 
HETATM   14  C   UNL     1      44.126 -20.017   2.924  1.00  0.00     0.030 A 
HETATM   15  C   UNL     1      44.314 -18.164   5.046  1.00  0.00     0.014 A 
HETATM   16  C   UNL     1      44.756 -19.483   5.205  1.00  0.00     0.001 A 
HETATM   17  C   UNL     1      44.663 -20.394   4.157  1.00  0.00     0.002 A 
ENDBRANCH   6   7
ENDBRANCH   1   5
BRANCH   2  18
HETATM   18  C   UNL     1      41.313 -11.689   6.095  1.00  0.00     0.227 C 
BRANCH  18  19
HETATM   19  N   UNL     1      41.874 -11.738   7.442  1.00  0.00    -0.348 N 
HETATM   20  C   UNL     1      42.175 -10.595   8.146  1.00  0.00     0.252 C 
HETATM   21  O   UNL     1      42.133  -9.491   7.609  1.00  0.00    -0.268 OA
HETATM   22  H   UNL     1      42.123 -12.650   7.797  1.00  0.00     0.163 HD
BRANCH  20  23
HETATM   23  C   UNL     1      42.618 -10.730   9.564  1.00  0.00     0.033 A 
HETATM   24  C   UNL     1      41.628 -10.937  10.537  1.00  0.00     0.041 A 
HETATM   25  C   UNL     1      41.983 -11.086  11.877  1.00  0.00     0.035 A 
HETATM   26 CL   UNL     1      40.762 -11.345  13.060  1.00  0.00    -0.084 Cl
HETATM   27  C   UNL     1      43.319 -11.031  12.264  1.00  0.00     0.024 A 
HETATM   28  C   UNL     1      44.311 -10.834  11.303  1.00  0.00     0.003 A 
HETATM   29  C   UNL     1      43.964 -10.689   9.956  1.00  0.00     0.017 A 
ENDBRANCH  20  23
ENDBRANCH  18  19
ENDBRANCH   2  18
TORSDOF 5
ENDMDL
MODEL 9
REMARK VINA RESULT:      -8.3      3.412     10.562
REMARK  5 active torsions:
REMARK  status: ('A' for Active; 'I' for Inactive)
REMARK    1  A    between atoms: C_7  and  C_8 
REMARK    2  A    between atoms: N_9  and  N_10 
REMARK       I    between atoms: N_10  and  C_11 
REMARK    3  A    between atoms: C_11  and  C_12 
REMARK    4  A    between atoms: C_12  and  N_13 
REMARK       I    between atoms: N_13  and  C_14 
REMARK    5  A    between atoms: C_14  and  C_15 
ROOT
HETATM    1  N   UNL     1      43.655 -11.855   8.871  1.00  0.00    -0.246 N 
HETATM    2  C   UNL     1      44.847 -12.556   8.980  1.00  0.00     0.255 C 
HETATM    3  O   UNL     1      45.476 -12.739  10.021  1.00  0.00    -0.270 OA
HETATM    4  H   UNL     1      43.286 -11.649   7.940  1.00  0.00     0.192 HD
ENDROOT
BRANCH   1   5
HETATM    5  N   UNL     1      43.068 -11.314   9.976  1.00  0.00    -0.184 NA
HETATM    6  C   UNL     1      41.964 -10.677   9.757  1.00  0.00     0.153 C 
BRANCH   6   7
HETATM    7  C   UNL     1      41.258 -10.033  10.850  1.00  0.00     0.018 A 
HETATM    8  C   UNL     1      39.921  -9.655  10.875  1.00  0.00     0.018 A 
HETATM    9  C   UNL     1      38.849  -9.781   9.850  1.00  0.00     0.069 C 
HETATM   10  N   UNL     1      39.666  -9.097  12.103  1.00  0.00    -0.358 N 
HETATM   11  H   UNL     1      38.771  -8.738  12.401  1.00  0.00     0.166 HD
HETATM   12  C   UNL     1      40.799  -9.095  12.879  1.00  0.00     0.043 A 
HETATM   13  C   UNL     1      41.817  -9.672  12.121  1.00  0.00     0.004 A 
HETATM   14  C   UNL     1      40.994  -8.628  14.186  1.00  0.00     0.030 A 
HETATM   15  C   UNL     1      43.101  -9.781  12.700  1.00  0.00     0.014 A 
HETATM   16  C   UNL     1      43.314  -9.315  14.004  1.00  0.00     0.001 A 
HETATM   17  C   UNL     1      42.273  -8.748  14.733  1.00  0.00     0.002 A 
ENDBRANCH   6   7
ENDBRANCH   1   5
BRANCH   2  18
HETATM   18  C   UNL     1      45.409 -13.000   7.626  1.00  0.00     0.227 C 
BRANCH  18  19
HETATM   19  N   UNL     1      44.979 -14.328   7.199  1.00  0.00    -0.348 N 
HETATM   20  C   UNL     1      43.868 -14.513   6.408  1.00  0.00     0.252 C 
HETATM   21  O   UNL     1      43.103 -13.583   6.162  1.00  0.00    -0.268 OA
HETATM   22  H   UNL     1      45.476 -15.114   7.591  1.00  0.00     0.163 HD
BRANCH  20  23
HETATM   23  C   UNL     1      43.574 -15.886   5.905  1.00  0.00     0.033 A 
HETATM   24  C   UNL     1      43.767 -16.957   6.790  1.00  0.00     0.041 A 
HETATM   25  C   UNL     1      43.495 -18.262   6.381  1.00  0.00     0.035 A 
HETATM   26 CL   UNL     1      43.731 -19.567   7.477  1.00  0.00    -0.084 Cl
HETATM   27  C   UNL     1      43.028 -18.516   5.095  1.00  0.00     0.024 A 
HETATM   28  C   UNL     1      42.824 -17.457   4.211  1.00  0.00     0.003 A 
HETATM   29  C   UNL     1      43.091 -16.145   4.614  1.00  0.00     0.017 A 
ENDBRANCH  20  23
ENDBRANCH  18  19
ENDBRANCH   2  18
TORSDOF 5
ENDMDL
MODEL 10
REMARK VINA RESULT:      -8.1      4.386     11.050
REMARK  5 active torsions:
REMARK  status: ('A' for Active; 'I' for Inactive)
REMARK    1  A    between atoms: C_7  and  C_8 
REMARK    2  A    between atoms: N_9  and  N_10 
REMARK       I    between atoms: N_10  and  C_11 
REMARK    3  A    between atoms: C_11  and  C_12 
REMARK    4  A    between atoms: C_12  and  N_13 
REMARK       I    between atoms: N_13  and  C_14 
REMARK    5  A    between atoms: C_14  and  C_15 
ROOT
HETATM    1  N   UNL     1      39.449 -11.811   8.293  1.00  0.00    -0.246 N 
HETATM    2  C   UNL     1      39.975 -11.777   7.010  1.00  0.00     0.255 C 
HETATM    3  O   UNL     1      40.702 -10.894   6.559  1.00  0.00    -0.270 OA
HETATM    4  H   UNL     1      38.750 -12.521   8.521  1.00  0.00     0.192 HD
ENDROOT
BRANCH   1   5
HETATM    5  N   UNL     1      39.739 -10.823   9.186  1.00  0.00    -0.184 NA
HETATM    6  C   UNL     1      39.785 -11.195  10.424  1.00  0.00     0.153 C 
BRANCH   6   7
HETATM    7  C   UNL     1      40.057 -10.227  11.472  1.00  0.00     0.018 A 
HETATM    8  C   UNL     1      39.156  -9.337  12.043  1.00  0.00     0.018 A 
HETATM    9  C   UNL     1      37.711  -9.101  11.776  1.00  0.00     0.069 C 
HETATM   10  N   UNL     1      39.827  -8.621  13.002  1.00  0.00    -0.358 N 
HETATM   11  H   UNL     1      39.415  -7.903  13.582  1.00  0.00     0.166 HD
HETATM   12  C   UNL     1      41.140  -9.014  13.073  1.00  0.00     0.043 A 
HETATM   13  C   UNL     1      41.319 -10.019  12.123  1.00  0.00     0.004 A 
HETATM   14  C   UNL     1      42.174  -8.557  13.901  1.00  0.00     0.030 A 
HETATM   15  C   UNL     1      42.604 -10.592  11.991  1.00  0.00     0.014 A 
HETATM   16  C   UNL     1      43.649 -10.143  12.808  1.00  0.00     0.001 A 
HETATM   17  C   UNL     1      43.434  -9.141  13.749  1.00  0.00     0.002 A 
ENDBRANCH   6   7
ENDBRANCH   1   5
BRANCH   2  18
HETATM   18  C   UNL     1      39.459 -12.910   6.119  1.00  0.00     0.227 C 
BRANCH  18  19
HETATM   19  N   UNL     1      40.187 -14.168   6.257  1.00  0.00    -0.348 N 
HETATM   20  C   UNL     1      40.445 -14.980   5.176  1.00  0.00     0.252 C 
HETATM   21  O   UNL     1      39.936 -14.758   4.080  1.00  0.00    -0.268 OA
HETATM   22  H   UNL     1      40.408 -14.464   7.196  1.00  0.00     0.163 HD
BRANCH  20  23
HETATM   23  C   UNL     1      41.310 -16.179   5.379  1.00  0.00     0.033 A 
HETATM   24  C   UNL     1      41.652 -16.932   4.246  1.00  0.00     0.041 A 
HETATM   25  C   UNL     1      42.470 -18.055   4.371  1.00  0.00     0.035 A 
HETATM   26 CL   UNL     1      42.887 -18.968   2.975  1.00  0.00    -0.084 Cl
HETATM   27  C   UNL     1      42.956 -18.438   5.618  1.00  0.00     0.024 A 
HETATM   28  C   UNL     1      42.629 -17.690   6.749  1.00  0.00     0.003 A 
HETATM   29  C   UNL     1      41.812 -16.561   6.631  1.00  0.00     0.017 A 
ENDBRANCH  20  23
ENDBRANCH  18  19
ENDBRANCH   2  18
TORSDOF 5
ENDMDL
