MODEL 1
REMARK VINA RESULT:      -9.2      0.000      0.000
REMARK  5 active torsions:
REMARK  status: ('A' for Active; 'I' for Inactive)
REMARK    1  A    between atoms: C_4  and  C_5 
REMARK    2  A    between atoms: C_11  and  C_12 
REMARK    3  A    between atoms: C_12  and  N_13 
REMARK    4  A    between atoms: C_16  and  C_17 
REMARK    5  A    between atoms: C_17  and  O_18 
ROOT
HETATM    1  N   UNL     1      42.939 -15.856   1.550  1.00  0.00    -0.066 N 
HETATM    2  H   UNL     1      43.421 -15.140   0.984  1.00  0.00     0.280 HD
HETATM    3  C   UNL     1      41.938 -15.176   2.435  1.00  0.00     0.250 C 
HETATM    4  C   UNL     1      40.777 -14.789   1.506  1.00  0.00     0.036 C 
HETATM    5  C   UNL     1      40.899 -15.761   0.292  1.00  0.00     0.061 C 
HETATM    6  C   UNL     1      42.090 -16.677   0.615  1.00  0.00     0.245 C 
HETATM    7  C   UNL     1      40.928 -13.322   1.076  1.00  0.00     0.189 C 
HETATM    8  O   UNL     1      42.046 -13.167   0.194  1.00  0.00    -0.350 OA
HETATM    9  C   UNL     1      41.738 -13.769  -1.000  1.00  0.00     0.075 A 
HETATM   10  C   UNL     1      41.132 -15.030  -1.010  1.00  0.00    -0.018 A 
HETATM   11  C   UNL     1      42.033 -13.096  -2.179  1.00  0.00     0.037 A 
HETATM   12  C   UNL     1      41.669 -13.667  -3.397  1.00  0.00     0.003 A 
HETATM   13  C   UNL     1      41.035 -14.910  -3.427  1.00  0.00     0.001 A 
HETATM   14  C   UNL     1      40.776 -15.597  -2.239  1.00  0.00     0.010 A 
ENDROOT
BRANCH   1  15
HETATM   15  C   UNL     1      43.974 -16.628   2.313  1.00  0.00     0.277 C 
BRANCH  15  16
HETATM   16  C   UNL     1      43.520 -17.068   3.653  1.00  0.00     0.016 A 
HETATM   17  C   UNL     1      43.436 -18.404   4.156  1.00  0.00     0.096 A 
HETATM   18  N   UNL     1      43.030 -18.404   5.432  1.00  0.00    -0.172 NA
HETATM   19  N   UNL     1      42.753 -17.124   5.711  1.00  0.00    -0.284 N 
HETATM   20  C   UNL     1      42.187 -16.777   6.994  1.00  0.00     0.179 C 
HETATM   21  C   UNL     1      43.064 -16.275   4.690  1.00  0.00     0.123 A 
BRANCH  17  22
HETATM   22  C   UNL     1      43.754 -19.661   3.482  1.00  0.00    -0.005 A 
HETATM   23  C   UNL     1      43.253 -19.941   2.204  1.00  0.00     0.014 A 
HETATM   24  C   UNL     1      43.577 -21.141   1.566  1.00  0.00     0.001 A 
HETATM   25  C   UNL     1      44.386 -22.076   2.209  1.00  0.00     0.000 A 
HETATM   26  C   UNL     1      44.866 -21.819   3.492  1.00  0.00     0.001 A 
HETATM   27  C   UNL     1      44.550 -20.617   4.127  1.00  0.00     0.014 A 
ENDBRANCH  17  22
ENDBRANCH  15  16
ENDBRANCH   1  15
BRANCH   4  28
HETATM   28  C   UNL     1      39.436 -14.956   2.230  1.00  0.00     0.178 C 
BRANCH  28  29
HETATM   29  O   UNL     1      39.017 -16.310   2.129  1.00  0.00    -0.400 OA
HETATM   30  H   UNL     1      38.113 -16.363   2.501  1.00  0.00     0.209 HD
ENDBRANCH  28  29
ENDBRANCH   4  28
TORSDOF 5
ENDMDL
MODEL 2
REMARK VINA RESULT:      -9.2      2.538      6.287
REMARK  5 active torsions:
REMARK  status: ('A' for Active; 'I' for Inactive)
REMARK    1  A    between atoms: C_4  and  C_5 
REMARK    2  A    between atoms: C_11  and  C_12 
REMARK    3  A    between atoms: C_12  and  N_13 
REMARK    4  A    between atoms: C_16  and  C_17 
REMARK    5  A    between atoms: C_17  and  O_18 
ROOT
HETATM    1  N   UNL     1      42.219 -14.074   3.089  1.00  0.00    -0.066 N 
HETATM    2  H   UNL     1      42.114 -15.092   2.951  1.00  0.00     0.280 HD
HETATM    3  C   UNL     1      41.003 -13.556   3.795  1.00  0.00     0.250 C 
HETATM    4  C   UNL     1      41.161 -14.009   5.255  1.00  0.00     0.036 C 
HETATM    5  C   UNL     1      42.692 -14.241   5.434  1.00  0.00     0.061 C 
HETATM    6  C   UNL     1      43.328 -13.865   4.087  1.00  0.00     0.245 C 
HETATM    7  C   UNL     1      40.359 -15.300   5.483  1.00  0.00     0.189 C 
HETATM    8  O   UNL     1      40.965 -16.398   4.790  1.00  0.00    -0.350 OA
HETATM    9  C   UNL     1      42.149 -16.700   5.413  1.00  0.00     0.075 A 
HETATM   10  C   UNL     1      43.019 -15.672   5.792  1.00  0.00    -0.018 A 
HETATM   11  C   UNL     1      42.448 -18.033   5.661  1.00  0.00     0.037 A 
HETATM   12  C   UNL     1      43.617 -18.352   6.349  1.00  0.00     0.003 A 
HETATM   13  C   UNL     1      44.484 -17.339   6.764  1.00  0.00     0.001 A 
HETATM   14  C   UNL     1      44.195 -16.003   6.477  1.00  0.00     0.010 A 
ENDROOT
BRANCH   1  15
HETATM   15  C   UNL     1      42.441 -13.439   1.749  1.00  0.00     0.277 C 
BRANCH  15  16
HETATM   16  C   UNL     1      41.707 -14.105   0.647  1.00  0.00     0.016 A 
HETATM   17  C   UNL     1      41.649 -15.503   0.350  1.00  0.00     0.096 A 
HETATM   18  N   UNL     1      40.840 -15.731  -0.692  1.00  0.00    -0.172 NA
HETATM   19  N   UNL     1      40.476 -14.518  -1.125  1.00  0.00    -0.284 N 
HETATM   20  C   UNL     1      39.669 -14.395  -2.318  1.00  0.00     0.179 C 
HETATM   21  C   UNL     1      40.938 -13.507  -0.335  1.00  0.00     0.123 A 
BRANCH  17  22
HETATM   22  C   UNL     1      42.304 -16.615   1.035  1.00  0.00    -0.005 A 
HETATM   23  C   UNL     1      43.690 -16.616   1.246  1.00  0.00     0.014 A 
HETATM   24  C   UNL     1      44.301 -17.680   1.914  1.00  0.00     0.001 A 
HETATM   25  C   UNL     1      43.536 -18.757   2.357  1.00  0.00     0.000 A 
HETATM   26  C   UNL     1      42.161 -18.778   2.128  1.00  0.00     0.001 A 
HETATM   27  C   UNL     1      41.548 -17.711   1.467  1.00  0.00     0.014 A 
ENDBRANCH  17  22
ENDBRANCH  15  16
ENDBRANCH   1  15
BRANCH   4  28
HETATM   28  C   UNL     1      40.637 -12.928   6.208  1.00  0.00     0.178 C 
BRANCH  28  29
HETATM   29  O   UNL     1      39.547 -13.453   6.953  1.00  0.00    -0.400 OA
HETATM   30  H   UNL     1      39.476 -12.927   7.776  1.00  0.00     0.209 HD
ENDBRANCH  28  29
ENDBRANCH   4  28
TORSDOF 5
ENDMDL
MODEL 3
REMARK VINA RESULT:      -8.9      2.732      4.960
REMARK  5 active torsions:
REMARK  status: ('A' for Active; 'I' for Inactive)
REMARK    1  A    between atoms: C_4  and  C_5 
REMARK    2  A    between atoms: C_11  and  C_12 
REMARK    3  A    between atoms: C_12  and  N_13 
REMARK    4  A    between atoms: C_16  and  C_17 
REMARK    5  A    between atoms: C_17  and  O_18 
ROOT
HETATM    1  N   UNL     1      42.535 -16.488   5.567  1.00  0.00    -0.066 N 
HETATM    2  H   UNL     1      42.582 -16.505   4.536  1.00  0.00     0.280 HD
HETATM    3  C   UNL     1      43.795 -15.872   6.096  1.00  0.00     0.250 C 
HETATM    4  C   UNL     1      43.650 -14.366   5.829  1.00  0.00     0.036 C 
HETATM    5  C   UNL     1      42.113 -14.131   5.706  1.00  0.00     0.061 C 
HETATM    6  C   UNL     1      41.464 -15.502   5.954  1.00  0.00     0.245 C 
HETATM    7  C   UNL     1      44.387 -14.000   4.531  1.00  0.00     0.189 C 
HETATM    8  O   UNL     1      43.706 -14.545   3.394  1.00  0.00    -0.350 OA
HETATM    9  C   UNL     1      42.523 -13.869   3.235  1.00  0.00     0.075 A 
HETATM   10  C   UNL     1      41.719 -13.599   4.347  1.00  0.00    -0.018 A 
HETATM   11  C   UNL     1      42.160 -13.457   1.959  1.00  0.00     0.037 A 
HETATM   12  C   UNL     1      40.993 -12.714   1.790  1.00  0.00     0.003 A 
HETATM   13  C   UNL     1      40.192 -12.408   2.892  1.00  0.00     0.001 A 
HETATM   14  C   UNL     1      40.545 -12.857   4.166  1.00  0.00     0.010 A 
ENDROOT
BRANCH   1  15
HETATM   15  C   UNL     1      42.313 -17.891   6.050  1.00  0.00     0.277 C 
BRANCH  15  16
HETATM   16  C   UNL     1      43.165 -18.895   5.370  1.00  0.00     0.016 A 
HETATM   17  C   UNL     1      43.417 -19.027   3.968  1.00  0.00     0.096 A 
HETATM   18  N   UNL     1      44.283 -20.021   3.736  1.00  0.00    -0.172 NA
HETATM   19  N   UNL     1      44.497 -20.586   4.930  1.00  0.00    -0.284 N 
HETATM   20  C   UNL     1      45.319 -21.770   5.026  1.00  0.00     0.179 C 
HETATM   21  C   UNL     1      43.879 -19.926   5.952  1.00  0.00     0.123 A 
BRANCH  17  22
HETATM   22  C   UNL     1      42.893 -18.229   2.862  1.00  0.00    -0.005 A 
HETATM   23  C   UNL     1      41.540 -17.868   2.810  1.00  0.00     0.014 A 
HETATM   24  C   UNL     1      41.056 -17.094   1.754  1.00  0.00     0.001 A 
HETATM   25  C   UNL     1      41.915 -16.692   0.733  1.00  0.00     0.000 A 
HETATM   26  C   UNL     1      43.257 -17.069   0.761  1.00  0.00     0.001 A 
HETATM   27  C   UNL     1      43.744 -17.836   1.821  1.00  0.00     0.014 A 
ENDBRANCH  17  22
ENDBRANCH  15  16
ENDBRANCH   1  15
BRANCH   4  28
HETATM   28  C   UNL     1      44.254 -13.559   6.983  1.00  0.00     0.178 C 
BRANCH  28  29
HETATM   29  O   UNL     1      44.155 -14.315   8.182  1.00  0.00    -0.400 OA
HETATM   30  H   UNL     1      45.009 -14.227   8.653  1.00  0.00     0.209 HD
ENDBRANCH  28  29
ENDBRANCH   4  28
TORSDOF 5
ENDMDL
MODEL 4
REMARK VINA RESULT:      -8.8      2.367      4.438
REMARK  5 active torsions:
REMARK  status: ('A' for Active; 'I' for Inactive)
REMARK    1  A    between atoms: C_4  and  C_5 
REMARK    2  A    between atoms: C_11  and  C_12 
REMARK    3  A    between atoms: C_12  and  N_13 
REMARK    4  A    between atoms: C_16  and  C_17 
REMARK    5  A    between atoms: C_17  and  O_18 
ROOT
HETATM    1  N   UNL     1      42.649 -15.381   3.340  1.00  0.00    -0.066 N 
HETATM    2  H   UNL     1      41.878 -15.584   3.995  1.00  0.00     0.280 HD
HETATM    3  C   UNL     1      42.069 -15.089   1.989  1.00  0.00     0.250 C 
HETATM    4  C   UNL     1      41.478 -13.676   2.102  1.00  0.00     0.036 C 
HETATM    5  C   UNL     1      42.247 -13.017   3.288  1.00  0.00     0.061 C 
HETATM    6  C   UNL     1      43.263 -14.070   3.757  1.00  0.00     0.245 C 
HETATM    7  C   UNL     1      39.970 -13.769   2.384  1.00  0.00     0.189 C 
HETATM    8  O   UNL     1      39.734 -14.269   3.705  1.00  0.00    -0.350 OA
HETATM    9  C   UNL     1      40.119 -13.308   4.605  1.00  0.00     0.075 A 
HETATM   10  C   UNL     1      41.329 -12.628   4.424  1.00  0.00    -0.018 A 
HETATM   11  C   UNL     1      39.282 -13.026   5.677  1.00  0.00     0.037 A 
HETATM   12  C   UNL     1      39.629 -12.008   6.563  1.00  0.00     0.003 A 
HETATM   13  C   UNL     1      40.816 -11.297   6.382  1.00  0.00     0.001 A 
HETATM   14  C   UNL     1      41.671 -11.611   5.323  1.00  0.00     0.010 A 
ENDROOT
BRANCH   1  15
HETATM   15  C   UNL     1      43.587 -16.552   3.341  1.00  0.00     0.277 C 
BRANCH  15  16
HETATM   16  C   UNL     1      43.657 -17.255   4.643  1.00  0.00     0.016 A 
HETATM   17  C   UNL     1      43.828 -18.656   4.876  1.00  0.00     0.096 A 
HETATM   18  N   UNL     1      43.897 -18.912   6.189  1.00  0.00    -0.172 NA
HETATM   19  N   UNL     1      43.666 -17.737   6.787  1.00  0.00    -0.284 N 
HETATM   20  C   UNL     1      43.570 -17.673   8.227  1.00  0.00     0.179 C 
HETATM   21  C   UNL     1      43.552 -16.701   5.907  1.00  0.00     0.123 A 
BRANCH  17  22
HETATM   22  C   UNL     1      43.957 -19.739   3.904  1.00  0.00    -0.005 A 
HETATM   23  C   UNL     1      43.391 -19.634   2.627  1.00  0.00     0.014 A 
HETATM   24  C   UNL     1      43.533 -20.671   1.703  1.00  0.00     0.001 A 
HETATM   25  C   UNL     1      44.225 -21.829   2.056  1.00  0.00     0.000 A 
HETATM   26  C   UNL     1      44.768 -21.955   3.334  1.00  0.00     0.001 A 
HETATM   27  C   UNL     1      44.633 -20.915   4.255  1.00  0.00     0.014 A 
ENDBRANCH  17  22
ENDBRANCH  15  16
ENDBRANCH   1  15
BRANCH   4  28
HETATM   28  C   UNL     1      41.688 -12.903   0.795  1.00  0.00     0.178 C 
BRANCH  28  29
HETATM   29  O   UNL     1      42.652 -11.881   1.008  1.00  0.00    -0.400 OA
HETATM   30  H   UNL     1      43.444 -12.304   1.398  1.00  0.00     0.209 HD
ENDBRANCH  28  29
ENDBRANCH   4  28
TORSDOF 5
ENDMDL
MODEL 5
REMARK VINA RESULT:      -8.8      2.410      2.804
REMARK  5 active torsions:
REMARK  status: ('A' for Active; 'I' for Inactive)
REMARK    1  A    between atoms: C_4  and  C_5 
REMARK    2  A    between atoms: C_11  and  C_12 
REMARK    3  A    between atoms: C_12  and  N_13 
REMARK    4  A    between atoms: C_16  and  C_17 
REMARK    5  A    between atoms: C_17  and  O_18 
ROOT
HETATM    1  N   UNL     1      42.264 -14.909   3.355  1.00  0.00    -0.066 N 
HETATM    2  H   UNL     1      42.377 -14.333   2.507  1.00  0.00     0.280 HD
HETATM    3  C   UNL     1      42.052 -14.002   4.529  1.00  0.00     0.250 C 
HETATM    4  C   UNL     1      40.608 -13.498   4.394  1.00  0.00     0.036 C 
HETATM    5  C   UNL     1      39.895 -14.569   3.512  1.00  0.00     0.061 C 
HETATM    6  C   UNL     1      40.955 -15.645   3.232  1.00  0.00     0.245 C 
HETATM    7  C   UNL     1      40.605 -12.116   3.722  1.00  0.00     0.189 C 
HETATM    8  O   UNL     1      40.987 -12.224   2.345  1.00  0.00    -0.350 OA
HETATM    9  C   UNL     1      39.977 -12.856   1.667  1.00  0.00     0.075 A 
HETATM   10  C   UNL     1      39.372 -13.992   2.216  1.00  0.00    -0.018 A 
HETATM   11  C   UNL     1      39.571 -12.338   0.444  1.00  0.00     0.037 A 
HETATM   12  C   UNL     1      38.504 -12.933  -0.227  1.00  0.00     0.003 A 
HETATM   13  C   UNL     1      37.867 -14.049   0.320  1.00  0.00     0.001 A 
HETATM   14  C   UNL     1      38.305 -14.586   1.532  1.00  0.00     0.010 A 
ENDROOT
BRANCH   1  15
HETATM   15  C   UNL     1      43.475 -15.784   3.494  1.00  0.00     0.277 C 
BRANCH  15  16
HETATM   16  C   UNL     1      43.497 -16.573   4.748  1.00  0.00     0.016 A 
HETATM   17  C   UNL     1      43.601 -17.993   4.890  1.00  0.00     0.096 A 
HETATM   18  N   UNL     1      43.643 -18.337   6.183  1.00  0.00    -0.172 NA
HETATM   19  N   UNL     1      43.459 -17.194   6.855  1.00  0.00    -0.284 N 
HETATM   20  C   UNL     1      43.348 -17.219   8.295  1.00  0.00     0.179 C 
HETATM   21  C   UNL     1      43.403 -16.099   6.043  1.00  0.00     0.123 A 
BRANCH  17  22
HETATM   22  C   UNL     1      43.692 -19.015   3.850  1.00  0.00    -0.005 A 
HETATM   23  C   UNL     1      42.871 -18.966   2.715  1.00  0.00     0.014 A 
HETATM   24  C   UNL     1      42.978 -19.943   1.723  1.00  0.00     0.001 A 
HETATM   25  C   UNL     1      43.892 -20.985   1.867  1.00  0.00     0.000 A 
HETATM   26  C   UNL     1      44.694 -21.058   3.004  1.00  0.00     0.001 A 
HETATM   27  C   UNL     1      44.593 -20.078   3.993  1.00  0.00     0.014 A 
ENDBRANCH  17  22
ENDBRANCH  15  16
ENDBRANCH   1  15
BRANCH   4  28
HETATM   28  C   UNL     1      39.953 -13.376   5.774  1.00  0.00     0.178 C 
BRANCH  28  29
HETATM   29  O   UNL     1      40.030 -14.630   6.438  1.00  0.00    -0.400 OA
HETATM   30  H   UNL     1      39.188 -14.756   6.922  1.00  0.00     0.209 HD
ENDBRANCH  28  29
ENDBRANCH   4  28
TORSDOF 5
ENDMDL
MODEL 6
REMARK VINA RESULT:      -8.8      2.176      3.699
REMARK  5 active torsions:
REMARK  status: ('A' for Active; 'I' for Inactive)
REMARK    1  A    between atoms: C_4  and  C_5 
REMARK    2  A    between atoms: C_11  and  C_12 
REMARK    3  A    between atoms: C_12  and  N_13 
REMARK    4  A    between atoms: C_16  and  C_17 
REMARK    5  A    between atoms: C_17  and  O_18 
ROOT
HETATM    1  N   UNL     1      41.212 -15.245   0.153  1.00  0.00    -0.066 N 
HETATM    2  H   UNL     1      40.297 -15.105   0.609  1.00  0.00     0.280 HD
HETATM    3  C   UNL     1      40.984 -15.604  -1.284  1.00  0.00     0.250 C 
HETATM    4  C   UNL     1      40.579 -14.289  -1.968  1.00  0.00     0.036 C 
HETATM    5  C   UNL     1      41.154 -13.169  -1.048  1.00  0.00     0.061 C 
HETATM    6  C   UNL     1      41.893 -13.903   0.082  1.00  0.00     0.245 C 
HETATM    7  C   UNL     1      39.047 -14.211  -2.068  1.00  0.00     0.189 C 
HETATM    8  O   UNL     1      38.466 -14.034  -0.771  1.00  0.00    -0.350 OA
HETATM    9  C   UNL     1      38.773 -12.772  -0.330  1.00  0.00     0.075 A 
HETATM   10  C   UNL     1      40.073 -12.278  -0.481  1.00  0.00    -0.018 A 
HETATM   11  C   UNL     1      37.769 -12.008   0.251  1.00  0.00     0.037 A 
HETATM   12  C   UNL     1      38.050 -10.702   0.646  1.00  0.00     0.003 A 
HETATM   13  C   UNL     1      39.333 -10.180   0.476  1.00  0.00     0.001 A 
HETATM   14  C   UNL     1      40.347 -10.967  -0.075  1.00  0.00     0.010 A 
ENDROOT
BRANCH   1  15
HETATM   15  C   UNL     1      41.961 -16.298   0.914  1.00  0.00     0.277 C 
BRANCH  15  16
HETATM   16  C   UNL     1      41.707 -16.269   2.374  1.00  0.00     0.016 A 
HETATM   17  C   UNL     1      42.160 -17.198   3.363  1.00  0.00     0.096 A 
HETATM   18  N   UNL     1      41.775 -16.811   4.586  1.00  0.00    -0.172 NA
HETATM   19  N   UNL     1      41.006 -15.734   4.386  1.00  0.00    -0.284 N 
HETATM   20  C   UNL     1      40.336 -15.115   5.507  1.00  0.00     0.179 C 
HETATM   21  C   UNL     1      40.961 -15.342   3.080  1.00  0.00     0.123 A 
BRANCH  17  22
HETATM   22  C   UNL     1      42.962 -18.407   3.188  1.00  0.00    -0.005 A 
HETATM   23  C   UNL     1      43.919 -18.782   4.140  1.00  0.00     0.014 A 
HETATM   24  C   UNL     1      44.669 -19.947   3.966  1.00  0.00     0.001 A 
HETATM   25  C   UNL     1      44.482 -20.734   2.831  1.00  0.00     0.000 A 
HETATM   26  C   UNL     1      43.552 -20.354   1.864  1.00  0.00     0.001 A 
HETATM   27  C   UNL     1      42.796 -19.194   2.041  1.00  0.00     0.014 A 
ENDBRANCH  17  22
ENDBRANCH  15  16
ENDBRANCH   1  15
BRANCH   4  28
HETATM   28  C   UNL     1      41.170 -14.218  -3.381  1.00  0.00     0.178 C 
BRANCH  28  29
HETATM   29  O   UNL     1      42.209 -15.180  -3.500  1.00  0.00    -0.400 OA
HETATM   30  H   UNL     1      43.057 -14.710  -3.363  1.00  0.00     0.209 HD
ENDBRANCH  28  29
ENDBRANCH   4  28
TORSDOF 5
ENDMDL
MODEL 7
REMARK VINA RESULT:      -8.8      2.109      3.386
REMARK  5 active torsions:
REMARK  status: ('A' for Active; 'I' for Inactive)
REMARK    1  A    between atoms: C_4  and  C_5 
REMARK    2  A    between atoms: C_11  and  C_12 
REMARK    3  A    between atoms: C_12  and  N_13 
REMARK    4  A    between atoms: C_16  and  C_17 
REMARK    5  A    between atoms: C_17  and  O_18 
ROOT
HETATM    1  N   UNL     1      40.281 -15.399   0.790  1.00  0.00    -0.066 N 
HETATM    2  H   UNL     1      40.179 -16.110   0.049  1.00  0.00     0.280 HD
HETATM    3  C   UNL     1      41.557 -14.646   0.561  1.00  0.00     0.250 C 
HETATM    4  C   UNL     1      41.265 -13.711  -0.622  1.00  0.00     0.036 C 
HETATM    5  C   UNL     1      39.714 -13.550  -0.629  1.00  0.00     0.061 C 
HETATM    6  C   UNL     1      39.210 -14.362   0.575  1.00  0.00     0.245 C 
HETATM    7  C   UNL     1      41.776 -14.351  -1.922  1.00  0.00     0.189 C 
HETATM    8  O   UNL     1      40.978 -15.489  -2.271  1.00  0.00    -0.350 OA
HETATM    9  C   UNL     1      39.739 -15.044  -2.656  1.00  0.00     0.075 A 
HETATM   10  C   UNL     1      39.088 -14.058  -1.908  1.00  0.00    -0.018 A 
HETATM   11  C   UNL     1      39.164 -15.586  -3.799  1.00  0.00     0.037 A 
HETATM   12  C   UNL     1      37.934 -15.098  -4.238  1.00  0.00     0.003 A 
HETATM   13  C   UNL     1      37.283 -14.092  -3.522  1.00  0.00     0.001 A 
HETATM   14  C   UNL     1      37.850 -13.579  -2.353  1.00  0.00     0.010 A 
ENDROOT
BRANCH   1  15
HETATM   15  C   UNL     1      40.235 -16.095   2.118  1.00  0.00     0.277 C 
BRANCH  15  16
HETATM   16  C   UNL     1      41.126 -15.491   3.136  1.00  0.00     0.016 A 
HETATM   17  C   UNL     1      42.351 -16.017   3.655  1.00  0.00     0.096 A 
HETATM   18  N   UNL     1      42.903 -15.161   4.523  1.00  0.00    -0.172 NA
HETATM   19  N   UNL     1      42.015 -14.168   4.649  1.00  0.00    -0.284 N 
HETATM   20  C   UNL     1      42.255 -13.108   5.601  1.00  0.00     0.179 C 
HETATM   21  C   UNL     1      40.946 -14.297   3.811  1.00  0.00     0.123 A 
BRANCH  17  22
HETATM   22  C   UNL     1      43.018 -17.276   3.332  1.00  0.00    -0.005 A 
HETATM   23  C   UNL     1      43.359 -18.191   4.338  1.00  0.00     0.014 A 
HETATM   24  C   UNL     1      43.985 -19.396   4.013  1.00  0.00     0.001 A 
HETATM   25  C   UNL     1      44.292 -19.687   2.685  1.00  0.00     0.000 A 
HETATM   26  C   UNL     1      43.982 -18.771   1.680  1.00  0.00     0.001 A 
HETATM   27  C   UNL     1      43.349 -17.570   2.003  1.00  0.00     0.014 A 
ENDBRANCH  17  22
ENDBRANCH  15  16
ENDBRANCH   1  15
BRANCH   4  28
HETATM   28  C   UNL     1      41.972 -12.365  -0.425  1.00  0.00     0.178 C 
BRANCH  28  29
HETATM   29  O   UNL     1      42.468 -12.289   0.904  1.00  0.00    -0.400 OA
HETATM   30  H   UNL     1      43.425 -12.494   0.869  1.00  0.00     0.209 HD
ENDBRANCH  28  29
ENDBRANCH   4  28
TORSDOF 5
ENDMDL
MODEL 8
REMARK VINA RESULT:      -8.7      2.184      5.061
REMARK  5 active torsions:
REMARK  status: ('A' for Active; 'I' for Inactive)
REMARK    1  A    between atoms: C_4  and  C_5 
REMARK    2  A    between atoms: C_11  and  C_12 
REMARK    3  A    between atoms: C_12  and  N_13 
REMARK    4  A    between atoms: C_16  and  C_17 
REMARK    5  A    between atoms: C_17  and  O_18 
ROOT
HETATM    1  N   UNL     1      42.788 -15.723   2.242  1.00  0.00    -0.066 N 
HETATM    2  H   UNL     1      42.328 -16.083   3.093  1.00  0.00     0.280 HD
HETATM    3  C   UNL     1      41.800 -15.742   1.115  1.00  0.00     0.250 C 
HETATM    4  C   UNL     1      40.855 -14.562   1.389  1.00  0.00     0.036 C 
HETATM    5  C   UNL     1      41.677 -13.599   2.300  1.00  0.00     0.061 C 
HETATM    6  C   UNL     1      43.056 -14.257   2.458  1.00  0.00     0.245 C 
HETATM    7  C   UNL     1      39.588 -15.070   2.095  1.00  0.00     0.189 C 
HETATM    8  O   UNL     1      39.890 -15.492   3.430  1.00  0.00    -0.350 OA
HETATM    9  C   UNL     1      40.190 -14.380   4.176  1.00  0.00     0.075 A 
HETATM   10  C   UNL     1      41.031 -13.394   3.651  1.00  0.00    -0.018 A 
HETATM   11  C   UNL     1      39.633 -14.261   5.444  1.00  0.00     0.037 A 
HETATM   12  C   UNL     1      39.877 -13.108   6.188  1.00  0.00     0.003 A 
HETATM   13  C   UNL     1      40.689 -12.098   5.668  1.00  0.00     0.001 A 
HETATM   14  C   UNL     1      41.275 -12.242   4.409  1.00  0.00     0.010 A 
ENDROOT
BRANCH   1  15
HETATM   15  C   UNL     1      44.005 -16.559   1.976  1.00  0.00     0.277 C 
BRANCH  15  16
HETATM   16  C   UNL     1      43.830 -17.989   2.325  1.00  0.00     0.016 A 
HETATM   17  C   UNL     1      43.641 -18.559   3.623  1.00  0.00     0.096 A 
HETATM   18  N   UNL     1      43.466 -19.884   3.536  1.00  0.00    -0.172 NA
HETATM   19  N   UNL     1      43.647 -20.177   2.243  1.00  0.00    -0.284 N 
HETATM   20  C   UNL     1      43.627 -21.556   1.811  1.00  0.00     0.179 C 
HETATM   21  C   UNL     1      43.832 -19.072   1.464  1.00  0.00     0.123 A 
BRANCH  17  22
HETATM   22  C   UNL     1      43.592 -17.890   4.921  1.00  0.00    -0.005 A 
HETATM   23  C   UNL     1      44.660 -17.985   5.823  1.00  0.00     0.014 A 
HETATM   24  C   UNL     1      44.604 -17.329   7.055  1.00  0.00     0.001 A 
HETATM   25  C   UNL     1      43.474 -16.592   7.401  1.00  0.00     0.000 A 
HETATM   26  C   UNL     1      42.394 -16.514   6.523  1.00  0.00     0.001 A 
HETATM   27  C   UNL     1      42.452 -17.163   5.288  1.00  0.00     0.014 A 
ENDBRANCH  17  22
ENDBRANCH  15  16
ENDBRANCH   1  15
BRANCH   4  28
HETATM   28  C   UNL     1      40.450 -13.887   0.074  1.00  0.00     0.178 C 
BRANCH  28  29
HETATM   29  O   UNL     1      39.473 -14.686  -0.578  1.00  0.00    -0.400 OA
HETATM   30  H   UNL     1      39.199 -15.384   0.052  1.00  0.00     0.209 HD
ENDBRANCH  28  29
ENDBRANCH   4  28
TORSDOF 5
ENDMDL
MODEL 9
REMARK VINA RESULT:      -8.6      2.536      7.064
REMARK  5 active torsions:
REMARK  status: ('A' for Active; 'I' for Inactive)
REMARK    1  A    between atoms: C_4  and  C_5 
REMARK    2  A    between atoms: C_11  and  C_12 
REMARK    3  A    between atoms: C_12  and  N_13 
REMARK    4  A    between atoms: C_16  and  C_17 
REMARK    5  A    between atoms: C_17  and  O_18 
ROOT
HETATM    1  N   UNL     1      41.653 -16.121   1.316  1.00  0.00    -0.066 N 
HETATM    2  H   UNL     1      42.218 -15.481   1.896  1.00  0.00     0.280 HD
HETATM    3  C   UNL     1      42.529 -17.241   0.841  1.00  0.00     0.250 C 
HETATM    4  C   UNL     1      42.724 -18.146   2.066  1.00  0.00     0.036 C 
HETATM    5  C   UNL     1      41.507 -17.832   2.990  1.00  0.00     0.061 C 
HETATM    6  C   UNL     1      40.663 -16.802   2.224  1.00  0.00     0.245 C 
HETATM    7  C   UNL     1      44.059 -17.809   2.750  1.00  0.00     0.189 C 
HETATM    8  O   UNL     1      43.994 -16.520   3.371  1.00  0.00    -0.350 OA
HETATM    9  C   UNL     1      43.151 -16.603   4.450  1.00  0.00     0.075 A 
HETATM   10  C   UNL     1      41.930 -17.277   4.330  1.00  0.00    -0.018 A 
HETATM   11  C   UNL     1      43.543 -16.018   5.647  1.00  0.00     0.037 A 
HETATM   12  C   UNL     1      42.726 -16.149   6.768  1.00  0.00     0.003 A 
HETATM   13  C   UNL     1      41.518 -16.844   6.677  1.00  0.00     0.001 A 
HETATM   14  C   UNL     1      41.114 -17.397   5.461  1.00  0.00     0.010 A 
ENDROOT
BRANCH   1  15
HETATM   15  C   UNL     1      41.048 -15.327   0.196  1.00  0.00     0.277 C 
BRANCH  15  16
HETATM   16  C   UNL     1      41.610 -13.962   0.065  1.00  0.00     0.016 A 
HETATM   17  C   UNL     1      41.791 -12.985   1.094  1.00  0.00     0.096 A 
HETATM   18  N   UNL     1      42.379 -11.886   0.604  1.00  0.00    -0.172 NA
HETATM   19  N   UNL     1      42.471 -12.097  -0.715  1.00  0.00    -0.284 N 
HETATM   20  C   UNL     1      42.975 -11.051  -1.574  1.00  0.00     0.179 C 
HETATM   21  C   UNL     1      42.058 -13.343  -1.088  1.00  0.00     0.123 A 
BRANCH  17  22
HETATM   22  C   UNL     1      41.458 -13.075   2.514  1.00  0.00    -0.005 A 
HETATM   23  C   UNL     1      40.133 -13.251   2.934  1.00  0.00     0.014 A 
HETATM   24  C   UNL     1      39.830 -13.348   4.294  1.00  0.00     0.001 A 
HETATM   25  C   UNL     1      40.846 -13.250   5.243  1.00  0.00     0.000 A 
HETATM   26  C   UNL     1      42.164 -13.047   4.836  1.00  0.00     0.001 A 
HETATM   27  C   UNL     1      42.469 -12.958   3.477  1.00  0.00     0.014 A 
ENDBRANCH  17  22
ENDBRANCH  15  16
ENDBRANCH   1  15
BRANCH   4  28
HETATM   28  C   UNL     1      42.746 -19.620   1.643  1.00  0.00     0.178 C 
BRANCH  28  29
HETATM   29  O   UNL     1      43.873 -20.256   2.229  1.00  0.00    -0.400 OA
HETATM   30  H   UNL     1      43.536 -20.972   2.806  1.00  0.00     0.209 HD
ENDBRANCH  28  29
ENDBRANCH   4  28
TORSDOF 5
ENDMDL
MODEL 10
REMARK VINA RESULT:      -8.6      2.655      7.148
REMARK  5 active torsions:
REMARK  status: ('A' for Active; 'I' for Inactive)
REMARK    1  A    between atoms: C_4  and  C_5 
REMARK    2  A    between atoms: C_11  and  C_12 
REMARK    3  A    between atoms: C_12  and  N_13 
REMARK    4  A    between atoms: C_16  and  C_17 
REMARK    5  A    between atoms: C_17  and  O_18 
ROOT
HETATM    1  N   UNL     1      40.044 -14.903   1.915  1.00  0.00    -0.066 N 
HETATM    2  H   UNL     1      39.886 -15.863   2.260  1.00  0.00     0.280 HD
HETATM    3  C   UNL     1      40.372 -14.021   3.082  1.00  0.00     0.250 C 
HETATM    4  C   UNL     1      41.817 -14.376   3.462  1.00  0.00     0.036 C 
HETATM    5  C   UNL     1      42.428 -14.994   2.167  1.00  0.00     0.061 C 
HETATM    6  C   UNL     1      41.316 -14.917   1.108  1.00  0.00     0.245 C 
HETATM    7  C   UNL     1      41.812 -15.382   4.624  1.00  0.00     0.189 C 
HETATM    8  O   UNL     1      41.325 -16.656   4.186  1.00  0.00    -0.350 OA
HETATM    9  C   UNL     1      42.261 -17.211   3.351  1.00  0.00     0.075 A 
HETATM   10  C   UNL     1      42.869 -16.426   2.365  1.00  0.00    -0.018 A 
HETATM   11  C   UNL     1      42.589 -18.550   3.517  1.00  0.00     0.037 A 
HETATM   12  C   UNL     1      43.584 -19.112   2.719  1.00  0.00     0.003 A 
HETATM   13  C   UNL     1      44.225 -18.337   1.750  1.00  0.00     0.001 A 
HETATM   14  C   UNL     1      43.863 -17.001   1.564  1.00  0.00     0.010 A 
ENDROOT
BRANCH   1  15
HETATM   15  C   UNL     1      38.821 -14.465   1.166  1.00  0.00     0.277 C 
BRANCH  15  16
HETATM   16  C   UNL     1      39.019 -13.224   0.381  1.00  0.00     0.016 A 
HETATM   17  C   UNL     1      39.135 -13.093  -1.039  1.00  0.00     0.096 A 
HETATM   18  N   UNL     1      39.251 -11.806  -1.387  1.00  0.00    -0.172 NA
HETATM   19  N   UNL     1      39.322 -11.136  -0.230  1.00  0.00    -0.284 N 
HETATM   20  C   UNL     1      39.555  -9.710  -0.241  1.00  0.00     0.179 C 
HETATM   21  C   UNL     1      39.150 -11.934   0.862  1.00  0.00     0.123 A 
BRANCH  17  22
HETATM   22  C   UNL     1      39.107 -14.136  -2.062  1.00  0.00    -0.005 A 
HETATM   23  C   UNL     1      37.932 -14.419  -2.772  1.00  0.00     0.014 A 
HETATM   24  C   UNL     1      37.924 -15.409  -3.757  1.00  0.00     0.001 A 
HETATM   25  C   UNL     1      39.082 -16.136  -4.025  1.00  0.00     0.000 A 
HETATM   26  C   UNL     1      40.248 -15.881  -3.304  1.00  0.00     0.001 A 
HETATM   27  C   UNL     1      40.260 -14.886  -2.326  1.00  0.00     0.014 A 
ENDBRANCH  17  22
ENDBRANCH  15  16
ENDBRANCH   1  15
BRANCH   4  28
HETATM   28  C   UNL     1      42.578 -13.120   3.901  1.00  0.00     0.178 C 
BRANCH  28  29
HETATM   29  O   UNL     1      42.066 -11.996   3.197  1.00  0.00    -0.400 OA
HETATM   30  H   UNL     1      42.319 -11.196   3.702  1.00  0.00     0.209 HD
ENDBRANCH  28  29
ENDBRANCH   4  28
TORSDOF 5
ENDMDL
