MODEL 1
REMARK VINA RESULT:      -9.4      0.000      0.000
REMARK  8 active torsions:
REMARK  status: ('A' for Active; 'I' for Inactive)
REMARK    1  A    between atoms: C_6  and  N_7 
REMARK    2  A    between atoms: C_6  and  C_26 
REMARK       I    between atoms: N_7  and  C_8 
REMARK    3  A    between atoms: N_7  and  C_23 
REMARK    4  A    between atoms: C_8  and  C_9 
REMARK    5  A    between atoms: C_9  and  N_10 
REMARK    6  A    between atoms: C_14  and  C_15 
REMARK       I    between atoms: C_26  and  N_27 
REMARK    7  A    between atoms: N_27  and  C_28 
REMARK    8  A    between atoms: C_31  and  N_32 
ROOT
HETATM    1  C   UNL     1      44.323 -19.888   4.006  1.00  0.00     0.269 C 
HETATM    2  N   UNL     1      43.386 -18.899   3.356  1.00  0.00    -0.075 N 
HETATM    3  H   UNL     1      42.752 -19.451   2.762  1.00  0.00     0.279 HD
HETATM    4  C   UNL     1      42.556 -18.194   4.391  1.00  0.00     0.237 C 
HETATM    5  C   UNL     1      41.620 -17.185   3.738  1.00  0.00     0.069 C 
HETATM    6  C   UNL     1      42.295 -16.165   2.773  1.00  0.00     0.120 C 
HETATM    7  C   UNL     1      43.177 -16.990   1.791  1.00  0.00     0.069 C 
HETATM    8  C   UNL     1      44.143 -17.943   2.482  1.00  0.00     0.237 C 
ENDROOT
BRANCH   6   9
HETATM    9  N   UNL     1      41.244 -15.337   2.056  1.00  0.00    -0.328 N 
HETATM   10  C   UNL     1      41.016 -15.604   0.692  1.00  0.00     0.239 C 
HETATM   11  O   UNL     1      41.353 -16.684   0.200  1.00  0.00    -0.271 OA
BRANCH  10  12
HETATM   12  C   UNL     1      40.358 -14.515  -0.180  1.00  0.00     0.228 C 
BRANCH  12  13
HETATM   13  N   UNL     1      41.192 -14.051  -1.285  1.00  0.00    -0.347 N 
HETATM   14  C   UNL     1      41.136 -14.518  -2.603  1.00  0.00     0.171 C 
HETATM   15  S   UNL     1      40.361 -15.843  -3.217  1.00  0.00    -0.041 SA
HETATM   16  N   UNL     1      41.867 -13.654  -3.398  1.00  0.00    -0.357 N 
HETATM   17  C   UNL     1      42.519 -12.633  -2.617  1.00  0.00     0.135 C 
HETATM   18  H   UNL     1      42.047 -13.833  -4.379  1.00  0.00     0.162 HD
HETATM   19  C   UNL     1      41.772 -12.708  -1.279  1.00  0.00     0.155 C 
BRANCH  17  20
HETATM   20  C   UNL     1      42.510 -11.278  -3.274  1.00  0.00    -0.034 A 
HETATM   21  C   UNL     1      42.606 -10.093  -2.529  1.00  0.00     0.009 A 
HETATM   22  C   UNL     1      42.585  -8.850  -3.163  1.00  0.00     0.001 A 
HETATM   23  C   UNL     1      42.481  -8.774  -4.549  1.00  0.00     0.000 A 
HETATM   24  C   UNL     1      42.401  -9.942  -5.305  1.00  0.00     0.001 A 
HETATM   25  C   UNL     1      42.418 -11.187  -4.672  1.00  0.00     0.009 A 
ENDBRANCH  17  20
ENDBRANCH  12  13
ENDBRANCH  10  12
BRANCH   9  26
HETATM   26  C   UNL     1      40.612 -14.213   2.723  1.00  0.00     0.088 A 
HETATM   27  C   UNL     1      39.102 -14.138   2.826  1.00  0.00     0.027 A 
HETATM   28  C   UNL     1      39.913 -14.300   4.063  1.00  0.00     0.027 A 
ENDBRANCH   9  26
ENDBRANCH   6   9
BRANCH   6  29
HETATM   29  C   UNL     1      43.284 -15.230   3.541  1.00  0.00     0.251 C 
HETATM   30  N   UNL     1      43.177 -15.321   4.914  1.00  0.00    -0.325 N 
HETATM   31  H   UNL     1      42.854 -16.213   5.274  1.00  0.00     0.169 HD
HETATM   32  O   UNL     1      43.872 -14.334   2.937  1.00  0.00    -0.270 OA
BRANCH  30  33
HETATM   33  C   UNL     1      43.469 -14.324   5.867  1.00  0.00     0.034 A 
HETATM   34  C   UNL     1      42.689 -13.192   6.070  1.00  0.00     0.032 A 
HETATM   35  C   UNL     1      42.990 -12.298   7.110  1.00  0.00     0.031 A 
HETATM   36  C   UNL     1      44.063 -12.499   7.990  1.00  0.00     0.030 A 
HETATM   37  C   UNL     1      44.860 -13.622   7.739  1.00  0.00     0.031 A 
HETATM   38  C   UNL     1      44.570 -14.525   6.701  1.00  0.00     0.032 A 
BRANCH  36  39
HETATM   39  N   UNL     1      44.318 -11.580   9.004  1.00  0.00    -0.377 N 
HETATM   40  C   UNL     1      43.235 -10.640   9.386  1.00  0.00     0.149 C 
HETATM   41  C   UNL     1      42.423 -11.214  10.561  1.00  0.00     0.187 C 
HETATM   42  O   UNL     1      43.263 -11.510  11.689  1.00  0.00    -0.388 OA
HETATM   43  C   UNL     1      44.287 -12.452  11.328  1.00  0.00     0.187 C 
HETATM   44  C   UNL     1      45.156 -11.925  10.173  1.00  0.00     0.149 C 
ENDBRANCH  36  39
ENDBRANCH  30  33
ENDBRANCH   6  29
TORSDOF 8
ENDMDL
MODEL 2
REMARK VINA RESULT:      -8.9      3.116      7.553
REMARK  8 active torsions:
REMARK  status: ('A' for Active; 'I' for Inactive)
REMARK    1  A    between atoms: C_6  and  N_7 
REMARK    2  A    between atoms: C_6  and  C_26 
REMARK       I    between atoms: N_7  and  C_8 
REMARK    3  A    between atoms: N_7  and  C_23 
REMARK    4  A    between atoms: C_8  and  C_9 
REMARK    5  A    between atoms: C_9  and  N_10 
REMARK    6  A    between atoms: C_14  and  C_15 
REMARK       I    between atoms: C_26  and  N_27 
REMARK    7  A    between atoms: N_27  and  C_28 
REMARK    8  A    between atoms: C_31  and  N_32 
ROOT
HETATM    1  C   UNL     1      42.636  -8.899  -2.373  1.00  0.00     0.269 C 
HETATM    2  N   UNL     1      42.128 -10.215  -1.837  1.00  0.00    -0.075 N 
HETATM    3  H   UNL     1      42.315 -10.915  -2.568  1.00  0.00     0.279 HD
HETATM    4  C   UNL     1      42.890 -10.615  -0.605  1.00  0.00     0.237 C 
HETATM    5  C   UNL     1      42.369 -11.936  -0.052  1.00  0.00     0.069 C 
HETATM    6  C   UNL     1      40.832 -12.006   0.194  1.00  0.00     0.120 C 
HETATM    7  C   UNL     1      40.144 -11.510  -1.112  1.00  0.00     0.069 C 
HETATM    8  C   UNL     1      40.648 -10.159  -1.600  1.00  0.00     0.237 C 
ENDROOT
BRANCH   6   9
HETATM    9  N   UNL     1      40.418 -13.416   0.570  1.00  0.00    -0.328 N 
HETATM   10  C   UNL     1      41.344 -14.205   1.280  1.00  0.00     0.239 C 
HETATM   11  O   UNL     1      42.272 -13.677   1.899  1.00  0.00    -0.271 OA
BRANCH  10  12
HETATM   12  C   UNL     1      41.192 -15.739   1.253  1.00  0.00     0.228 C 
BRANCH  12  13
HETATM   13  N   UNL     1      42.137 -16.449   2.110  1.00  0.00    -0.347 N 
HETATM   14  C   UNL     1      42.053 -16.558   3.503  1.00  0.00     0.171 C 
HETATM   15  S   UNL     1      41.084 -15.742   4.566  1.00  0.00    -0.041 SA
HETATM   16  N   UNL     1      42.954 -17.523   3.914  1.00  0.00    -0.357 N 
HETATM   17  C   UNL     1      43.742 -18.021   2.814  1.00  0.00     0.135 C 
HETATM   18  H   UNL     1      43.139 -17.718   4.891  1.00  0.00     0.162 HD
HETATM   19  C   UNL     1      42.940 -17.555   1.592  1.00  0.00     0.155 C 
BRANCH  17  20
HETATM   20  C   UNL     1      43.995 -19.503   2.881  1.00  0.00    -0.034 A 
HETATM   21  C   UNL     1      44.569 -20.107   4.010  1.00  0.00     0.009 A 
HETATM   22  C   UNL     1      44.802 -21.483   4.042  1.00  0.00     0.001 A 
HETATM   23  C   UNL     1      44.452 -22.275   2.952  1.00  0.00     0.000 A 
HETATM   24  C   UNL     1      43.866 -21.694   1.829  1.00  0.00     0.001 A 
HETATM   25  C   UNL     1      43.636 -20.317   1.795  1.00  0.00     0.009 A 
ENDBRANCH  17  20
ENDBRANCH  12  13
ENDBRANCH  10  12
BRANCH   9  26
HETATM   26  C   UNL     1      39.170 -13.972   0.079  1.00  0.00     0.088 A 
HETATM   27  C   UNL     1      37.983 -14.120   1.009  1.00  0.00     0.027 A 
HETATM   28  C   UNL     1      37.904 -13.170  -0.134  1.00  0.00     0.027 A 
ENDBRANCH   9  26
ENDBRANCH   6   9
BRANCH   6  29
HETATM   29  C   UNL     1      40.393 -11.000   1.306  1.00  0.00     0.251 C 
HETATM   30  N   UNL     1      41.167 -11.065   2.447  1.00  0.00    -0.325 N 
HETATM   31  H   UNL     1      42.125 -11.370   2.314  1.00  0.00     0.169 HD
HETATM   32  O   UNL     1      39.301 -10.438   1.225  1.00  0.00    -0.270 OA
BRANCH  30  33
HETATM   33  C   UNL     1      40.781 -10.751   3.766  1.00  0.00     0.034 A 
HETATM   34  C   UNL     1      40.971  -9.506   4.355  1.00  0.00     0.032 A 
HETATM   35  C   UNL     1      40.466  -9.242   5.638  1.00  0.00     0.031 A 
HETATM   36  C   UNL     1      39.746 -10.193   6.376  1.00  0.00     0.030 A 
HETATM   37  C   UNL     1      39.605 -11.452   5.780  1.00  0.00     0.031 A 
HETATM   38  C   UNL     1      40.107 -11.730   4.497  1.00  0.00     0.032 A 
BRANCH  36  39
HETATM   39  N   UNL     1      39.268  -9.879   7.645  1.00  0.00    -0.377 N 
HETATM   40  C   UNL     1      39.425 -10.889   8.721  1.00  0.00     0.149 C 
HETATM   41  C   UNL     1      40.723 -10.629   9.507  1.00  0.00     0.187 C 
HETATM   42  O   UNL     1      40.757  -9.298  10.048  1.00  0.00    -0.388 OA
HETATM   43  C   UNL     1      40.645  -8.320   8.999  1.00  0.00     0.187 C 
HETATM   44  C   UNL     1      39.351  -8.507   8.190  1.00  0.00     0.149 C 
ENDBRANCH  36  39
ENDBRANCH  30  33
ENDBRANCH   6  29
TORSDOF 8
ENDMDL
MODEL 3
REMARK VINA RESULT:      -8.8      3.499      9.747
REMARK  8 active torsions:
REMARK  status: ('A' for Active; 'I' for Inactive)
REMARK    1  A    between atoms: C_6  and  N_7 
REMARK    2  A    between atoms: C_6  and  C_26 
REMARK       I    between atoms: N_7  and  C_8 
REMARK    3  A    between atoms: N_7  and  C_23 
REMARK    4  A    between atoms: C_8  and  C_9 
REMARK    5  A    between atoms: C_9  and  N_10 
REMARK    6  A    between atoms: C_14  and  C_15 
REMARK       I    between atoms: C_26  and  N_27 
REMARK    7  A    between atoms: N_27  and  C_28 
REMARK    8  A    between atoms: C_31  and  N_32 
ROOT
HETATM    1  C   UNL     1      39.345  -9.148   6.702  1.00  0.00     0.269 C 
HETATM    2  N   UNL     1      39.976 -10.517   6.782  1.00  0.00    -0.075 N 
HETATM    3  H   UNL     1      39.949 -10.789   7.774  1.00  0.00     0.279 HD
HETATM    4  C   UNL     1      39.170 -11.518   6.003  1.00  0.00     0.237 C 
HETATM    5  C   UNL     1      39.814 -12.898   6.070  1.00  0.00     0.069 C 
HETATM    6  C   UNL     1      41.320 -12.961   5.673  1.00  0.00     0.120 C 
HETATM    7  C   UNL     1      42.045 -11.846   6.482  1.00  0.00     0.069 C 
HETATM    8  C   UNL     1      41.409 -10.469   6.342  1.00  0.00     0.237 C 
ENDROOT
BRANCH   6   9
HETATM    9  N   UNL     1      41.884 -14.342   5.950  1.00  0.00    -0.328 N 
HETATM   10  C   UNL     1      41.124 -15.456   5.543  1.00  0.00     0.239 C 
HETATM   11  O   UNL     1      40.253 -15.337   4.678  1.00  0.00    -0.271 OA
BRANCH  10  12
HETATM   12  C   UNL     1      41.385 -16.820   6.213  1.00  0.00     0.228 C 
BRANCH  12  13
HETATM   13  N   UNL     1      42.597 -17.491   5.750  1.00  0.00    -0.347 N 
HETATM   14  C   UNL     1      43.560 -18.094   6.568  1.00  0.00     0.171 C 
HETATM   15  S   UNL     1      43.757 -17.998   8.206  1.00  0.00    -0.041 SA
HETATM   16  N   UNL     1      44.393 -18.851   5.765  1.00  0.00    -0.357 N 
HETATM   17  C   UNL     1      44.072 -18.698   4.368  1.00  0.00     0.135 C 
HETATM   18  H   UNL     1      45.223 -19.312   6.119  1.00  0.00     0.162 HD
HETATM   19  C   UNL     1      42.668 -18.081   4.414  1.00  0.00     0.155 C 
BRANCH  17  20
HETATM   20  C   UNL     1      44.176 -19.980   3.585  1.00  0.00    -0.034 A 
HETATM   21  C   UNL     1      44.725 -21.145   4.143  1.00  0.00     0.009 A 
HETATM   22  C   UNL     1      44.818 -22.319   3.392  1.00  0.00     0.001 A 
HETATM   23  C   UNL     1      44.354 -22.347   2.080  1.00  0.00     0.000 A 
HETATM   24  C   UNL     1      43.792 -21.203   1.517  1.00  0.00     0.001 A 
HETATM   25  C   UNL     1      43.700 -20.028   2.266  1.00  0.00     0.009 A 
ENDBRANCH  17  20
ENDBRANCH  12  13
ENDBRANCH  10  12
BRANCH   9  26
HETATM   26  C   UNL     1      43.092 -14.497   6.741  1.00  0.00     0.088 A 
HETATM   27  C   UNL     1      44.436 -14.649   6.059  1.00  0.00     0.027 A 
HETATM   28  C   UNL     1      44.164 -13.438   6.879  1.00  0.00     0.027 A 
ENDBRANCH   9  26
ENDBRANCH   6   9
BRANCH   6  29
HETATM   29  C   UNL     1      41.523 -12.588   4.169  1.00  0.00     0.251 C 
HETATM   30  N   UNL     1      40.341 -12.406   3.479  1.00  0.00    -0.325 N 
HETATM   31  H   UNL     1      39.550 -12.093   4.033  1.00  0.00     0.169 HD
HETATM   32  O   UNL     1      42.629 -12.729   3.649  1.00  0.00    -0.270 OA
BRANCH  30  33
HETATM   33  C   UNL     1      40.110 -12.599   2.102  1.00  0.00     0.034 A 
HETATM   34  C   UNL     1      40.556 -11.731   1.112  1.00  0.00     0.032 A 
HETATM   35  C   UNL     1      40.375 -12.047  -0.244  1.00  0.00     0.031 A 
HETATM   36  C   UNL     1      39.762 -13.235  -0.666  1.00  0.00     0.030 A 
HETATM   37  C   UNL     1      39.283 -14.072   0.349  1.00  0.00     0.031 A 
HETATM   38  C   UNL     1      39.456 -13.767   1.710  1.00  0.00     0.032 A 
BRANCH  36  39
HETATM   39  N   UNL     1      39.607 -13.499  -2.024  1.00  0.00    -0.377 N 
HETATM   40  C   UNL     1      40.460 -12.754  -2.983  1.00  0.00     0.149 C 
HETATM   41  C   UNL     1      41.729 -13.565  -3.307  1.00  0.00     0.187 C 
HETATM   42  O   UNL     1      41.406 -14.869  -3.817  1.00  0.00    -0.388 OA
HETATM   43  C   UNL     1      40.614 -15.605  -2.869  1.00  0.00     0.187 C 
HETATM   44  C   UNL     1      39.314 -14.859  -2.523  1.00  0.00     0.149 C 
ENDBRANCH  36  39
ENDBRANCH  30  33
ENDBRANCH   6  29
TORSDOF 8
ENDMDL
MODEL 4
REMARK VINA RESULT:      -8.8      4.620      9.628
REMARK  8 active torsions:
REMARK  status: ('A' for Active; 'I' for Inactive)
REMARK    1  A    between atoms: C_6  and  N_7 
REMARK    2  A    between atoms: C_6  and  C_26 
REMARK       I    between atoms: N_7  and  C_8 
REMARK    3  A    between atoms: N_7  and  C_23 
REMARK    4  A    between atoms: C_8  and  C_9 
REMARK    5  A    between atoms: C_9  and  N_10 
REMARK    6  A    between atoms: C_14  and  C_15 
REMARK       I    between atoms: C_26  and  N_27 
REMARK    7  A    between atoms: N_27  and  C_28 
REMARK    8  A    between atoms: C_31  and  N_32 
ROOT
HETATM    1  C   UNL     1      40.493 -12.066  -3.753  1.00  0.00     0.269 C 
HETATM    2  N   UNL     1      40.673 -12.689  -2.390  1.00  0.00    -0.075 N 
HETATM    3  H   UNL     1      41.646 -13.024  -2.352  1.00  0.00     0.279 HD
HETATM    4  C   UNL     1      40.494 -11.660  -1.309  1.00  0.00     0.237 C 
HETATM    5  C   UNL     1      40.659 -12.290   0.068  1.00  0.00     0.069 C 
HETATM    6  C   UNL     1      39.785 -13.550   0.345  1.00  0.00     0.120 C 
HETATM    7  C   UNL     1      39.992 -14.514  -0.859  1.00  0.00     0.069 C 
HETATM    8  C   UNL     1      39.759 -13.865  -2.217  1.00  0.00     0.237 C 
ENDROOT
BRANCH   6   9
HETATM    9  N   UNL     1      40.169 -14.182   1.670  1.00  0.00    -0.328 N 
HETATM   10  C   UNL     1      40.970 -15.340   1.638  1.00  0.00     0.239 C 
HETATM   11  O   UNL     1      41.642 -15.608   0.639  1.00  0.00    -0.271 OA
BRANCH  10  12
HETATM   12  C   UNL     1      40.974 -16.277   2.862  1.00  0.00     0.228 C 
BRANCH  12  13
HETATM   13  N   UNL     1      42.261 -16.919   3.118  1.00  0.00    -0.347 N 
HETATM   14  C   UNL     1      43.071 -16.705   4.240  1.00  0.00     0.171 C 
HETATM   15  S   UNL     1      42.969 -15.535   5.403  1.00  0.00    -0.041 SA
HETATM   16  N   UNL     1      44.047 -17.684   4.258  1.00  0.00    -0.357 N 
HETATM   17  C   UNL     1      43.980 -18.528   3.091  1.00  0.00     0.135 C 
HETATM   18  H   UNL     1      44.808 -17.685   4.928  1.00  0.00     0.162 HD
HETATM   19  C   UNL     1      42.580 -18.224   2.540  1.00  0.00     0.155 C 
BRANCH  17  20
HETATM   20  C   UNL     1      44.244 -19.980   3.385  1.00  0.00    -0.034 A 
HETATM   21  C   UNL     1      44.208 -20.958   2.380  1.00  0.00     0.009 A 
HETATM   22  C   UNL     1      44.448 -22.300   2.682  1.00  0.00     0.001 A 
HETATM   23  C   UNL     1      44.738 -22.680   3.990  1.00  0.00     0.000 A 
HETATM   24  C   UNL     1      44.793 -21.719   4.997  1.00  0.00     0.001 A 
HETATM   25  C   UNL     1      44.551 -20.377   4.696  1.00  0.00     0.009 A 
ENDBRANCH  17  20
ENDBRANCH  12  13
ENDBRANCH  10  12
BRANCH   9  26
HETATM   26  C   UNL     1      39.600 -13.690   2.912  1.00  0.00     0.088 A 
HETATM   27  C   UNL     1      40.501 -13.148   4.002  1.00  0.00     0.027 A 
HETATM   28  C   UNL     1      39.556 -12.230   3.311  1.00  0.00     0.027 A 
ENDBRANCH   9  26
ENDBRANCH   6   9
BRANCH   6  29
HETATM   29  C   UNL     1      38.264 -13.193   0.339  1.00  0.00     0.251 C 
HETATM   30  N   UNL     1      38.013 -11.840   0.225  1.00  0.00    -0.325 N 
HETATM   31  H   UNL     1      38.717 -11.300  -0.268  1.00  0.00     0.169 HD
HETATM   32  O   UNL     1      37.437 -14.037   0.683  1.00  0.00    -0.270 OA
BRANCH  30  33
HETATM   33  C   UNL     1      36.895 -11.129   0.705  1.00  0.00     0.034 A 
HETATM   34  C   UNL     1      35.587 -11.374   0.302  1.00  0.00     0.032 A 
HETATM   35  C   UNL     1      34.518 -10.693   0.904  1.00  0.00     0.031 A 
HETATM   36  C   UNL     1      34.702  -9.758   1.932  1.00  0.00     0.030 A 
HETATM   37  C   UNL     1      36.030  -9.496   2.291  1.00  0.00     0.031 A 
HETATM   38  C   UNL     1      37.110 -10.170   1.695  1.00  0.00     0.032 A 
BRANCH  36  39
HETATM   39  N   UNL     1      33.607  -9.109   2.494  1.00  0.00    -0.377 N 
HETATM   40  C   UNL     1      32.293  -9.800   2.463  1.00  0.00     0.149 C 
HETATM   41  C   UNL     1      32.077 -10.590   3.766  1.00  0.00     0.187 C 
HETATM   42  O   UNL     1      32.180  -9.743   4.922  1.00  0.00    -0.388 OA
HETATM   43  C   UNL     1      33.469  -9.106   4.973  1.00  0.00     0.187 C 
HETATM   44  C   UNL     1      33.736  -8.274   3.707  1.00  0.00     0.149 C 
ENDBRANCH  36  39
ENDBRANCH  30  33
ENDBRANCH   6  29
TORSDOF 8
ENDMDL
MODEL 5
REMARK VINA RESULT:      -8.6      3.848      7.589
REMARK  8 active torsions:
REMARK  status: ('A' for Active; 'I' for Inactive)
REMARK    1  A    between atoms: C_6  and  N_7 
REMARK    2  A    between atoms: C_6  and  C_26 
REMARK       I    between atoms: N_7  and  C_8 
REMARK    3  A    between atoms: N_7  and  C_23 
REMARK    4  A    between atoms: C_8  and  C_9 
REMARK    5  A    between atoms: C_9  and  N_10 
REMARK    6  A    between atoms: C_14  and  C_15 
REMARK       I    between atoms: C_26  and  N_27 
REMARK    7  A    between atoms: N_27  and  C_28 
REMARK    8  A    between atoms: C_31  and  N_32 
ROOT
HETATM    1  C   UNL     1      38.903  -7.894   2.156  1.00  0.00     0.269 C 
HETATM    2  N   UNL     1      39.144  -9.384   2.180  1.00  0.00    -0.075 N 
HETATM    3  H   UNL     1      38.594  -9.777   1.403  1.00  0.00     0.279 HD
HETATM    4  C   UNL     1      40.593  -9.691   1.926  1.00  0.00     0.237 C 
HETATM    5  C   UNL     1      40.841 -11.194   1.965  1.00  0.00     0.069 C 
HETATM    6  C   UNL     1      40.329 -11.930   3.239  1.00  0.00     0.120 C 
HETATM    7  C   UNL     1      38.850 -11.493   3.447  1.00  0.00     0.069 C 
HETATM    8  C   UNL     1      38.649  -9.983   3.463  1.00  0.00     0.237 C 
ENDROOT
BRANCH   6   9
HETATM    9  N   UNL     1      40.475 -13.432   3.078  1.00  0.00    -0.328 N 
HETATM   10  C   UNL     1      41.777 -13.967   3.056  1.00  0.00     0.239 C 
HETATM   11  O   UNL     1      42.724 -13.329   3.522  1.00  0.00    -0.271 OA
BRANCH  10  12
HETATM   12  C   UNL     1      42.002 -15.354   2.419  1.00  0.00     0.228 C 
BRANCH  12  13
HETATM   13  N   UNL     1      42.695 -16.303   3.285  1.00  0.00    -0.347 N 
HETATM   14  C   UNL     1      42.277 -16.700   4.561  1.00  0.00     0.171 C 
HETATM   15  S   UNL     1      41.105 -16.055   5.532  1.00  0.00    -0.041 SA
HETATM   16  N   UNL     1      43.027 -17.799   4.936  1.00  0.00    -0.357 N 
HETATM   17  C   UNL     1      44.042 -18.112   3.961  1.00  0.00     0.135 C 
HETATM   18  H   UNL     1      42.968 -18.213   5.859  1.00  0.00     0.162 HD
HETATM   19  C   UNL     1      43.569 -17.334   2.726  1.00  0.00     0.155 C 
BRANCH  17  20
HETATM   20  C   UNL     1      44.231 -19.590   3.746  1.00  0.00    -0.034 A 
HETATM   21  C   UNL     1      44.637 -20.444   4.783  1.00  0.00     0.009 A 
HETATM   22  C   UNL     1      44.814 -21.809   4.554  1.00  0.00     0.001 A 
HETATM   23  C   UNL     1      44.576 -22.342   3.289  1.00  0.00     0.000 A 
HETATM   24  C   UNL     1      44.157 -21.511   2.253  1.00  0.00     0.001 A 
HETATM   25  C   UNL     1      43.982 -20.144   2.480  1.00  0.00     0.009 A 
ENDBRANCH  17  20
ENDBRANCH  12  13
ENDBRANCH  10  12
BRANCH   9  26
HETATM   26  C   UNL     1      39.312 -14.259   2.807  1.00  0.00     0.088 A 
HETATM   27  C   UNL     1      38.678 -14.255   1.431  1.00  0.00     0.027 A 
HETATM   28  C   UNL     1      39.328 -15.495   1.934  1.00  0.00     0.027 A 
ENDBRANCH   9  26
ENDBRANCH   6   9
BRANCH   6  29
HETATM   29  C   UNL     1      41.092 -11.448   4.514  1.00  0.00     0.251 C 
HETATM   30  N   UNL     1      40.697 -12.090   5.671  1.00  0.00    -0.325 N 
HETATM   31  H   UNL     1      40.341 -13.033   5.553  1.00  0.00     0.169 HD
HETATM   32  O   UNL     1      41.759 -10.415   4.473  1.00  0.00    -0.270 OA
BRANCH  30  33
HETATM   33  C   UNL     1      40.738 -11.591   6.988  1.00  0.00     0.034 A 
HETATM   34  C   UNL     1      41.888 -11.106   7.599  1.00  0.00     0.032 A 
HETATM   35  C   UNL     1      41.826 -10.529   8.878  1.00  0.00     0.031 A 
HETATM   36  C   UNL     1      40.624 -10.401   9.589  1.00  0.00     0.030 A 
HETATM   37  C   UNL     1      39.487 -10.936   8.972  1.00  0.00     0.031 A 
HETATM   38  C   UNL     1      39.536 -11.516   7.693  1.00  0.00     0.032 A 
BRANCH  36  39
HETATM   39  N   UNL     1      40.618  -9.822  10.855  1.00  0.00    -0.377 N 
HETATM   40  C   UNL     1      39.777 -10.448  11.906  1.00  0.00     0.149 C 
HETATM   41  C   UNL     1      40.611 -11.447  12.729  1.00  0.00     0.187 C 
HETATM   42  O   UNL     1      41.768 -10.820  13.307  1.00  0.00    -0.388 OA
HETATM   43  C   UNL     1      42.602 -10.249  12.284  1.00  0.00     0.187 C 
HETATM   44  C   UNL     1      41.834  -9.218  11.440  1.00  0.00     0.149 C 
ENDBRANCH  36  39
ENDBRANCH  30  33
ENDBRANCH   6  29
TORSDOF 8
ENDMDL
MODEL 6
REMARK VINA RESULT:      -8.4      3.462      7.708
REMARK  8 active torsions:
REMARK  status: ('A' for Active; 'I' for Inactive)
REMARK    1  A    between atoms: C_6  and  N_7 
REMARK    2  A    between atoms: C_6  and  C_26 
REMARK       I    between atoms: N_7  and  C_8 
REMARK    3  A    between atoms: N_7  and  C_23 
REMARK    4  A    between atoms: C_8  and  C_9 
REMARK    5  A    between atoms: C_9  and  N_10 
REMARK    6  A    between atoms: C_14  and  C_15 
REMARK       I    between atoms: C_26  and  N_27 
REMARK    7  A    between atoms: N_27  and  C_28 
REMARK    8  A    between atoms: C_31  and  N_32 
ROOT
HETATM    1  C   UNL     1      38.719 -15.976  -4.638  1.00  0.00     0.269 C 
HETATM    2  N   UNL     1      38.960 -14.731  -3.819  1.00  0.00    -0.075 N 
HETATM    3  H   UNL     1      38.594 -13.945  -4.374  1.00  0.00     0.279 HD
HETATM    4  C   UNL     1      38.189 -14.787  -2.530  1.00  0.00     0.237 C 
HETATM    5  C   UNL     1      38.443 -13.539  -1.694  1.00  0.00     0.069 C 
HETATM    6  C   UNL     1      39.940 -13.191  -1.436  1.00  0.00     0.120 C 
HETATM    7  C   UNL     1      40.655 -13.226  -2.818  1.00  0.00     0.069 C 
HETATM    8  C   UNL     1      40.428 -14.514  -3.598  1.00  0.00     0.237 C 
ENDROOT
BRANCH   6   9
HETATM    9  N   UNL     1      40.062 -11.842  -0.752  1.00  0.00    -0.328 N 
HETATM   10  C   UNL     1      39.042 -11.466   0.144  1.00  0.00     0.239 C 
HETATM   11  O   UNL     1      38.303 -12.317   0.645  1.00  0.00    -0.271 OA
BRANCH  10  12
HETATM   12  C   UNL     1      38.852  -9.971   0.471  1.00  0.00     0.228 C 
BRANCH  12  13
HETATM   13  N   UNL     1      38.512  -9.703   1.865  1.00  0.00    -0.347 N 
HETATM   14  C   UNL     1      37.222  -9.725   2.409  1.00  0.00     0.171 C 
HETATM   15  S   UNL     1      35.758  -9.779   1.644  1.00  0.00    -0.041 SA
HETATM   16  N   UNL     1      37.336  -9.700   3.787  1.00  0.00    -0.357 N 
HETATM   17  C   UNL     1      38.709  -9.561   4.207  1.00  0.00     0.135 C 
HETATM   18  H   UNL     1      36.534  -9.620   4.401  1.00  0.00     0.162 HD
HETATM   19  C   UNL     1      39.485  -9.922   2.934  1.00  0.00     0.155 C 
BRANCH  17  20
HETATM   20  C   UNL     1      39.052 -10.388   5.417  1.00  0.00    -0.034 A 
HETATM   21  C   UNL     1      39.092 -11.790   5.368  1.00  0.00     0.009 A 
HETATM   22  C   UNL     1      39.404 -12.535   6.507  1.00  0.00     0.001 A 
HETATM   23  C   UNL     1      39.692 -11.888   7.706  1.00  0.00     0.000 A 
HETATM   24  C   UNL     1      39.673 -10.496   7.767  1.00  0.00     0.001 A 
HETATM   25  C   UNL     1      39.358  -9.751   6.629  1.00  0.00     0.009 A 
ENDBRANCH  17  20
ENDBRANCH  12  13
ENDBRANCH  10  12
BRANCH   9  26
HETATM   26  C   UNL     1      41.117 -10.919  -1.129  1.00  0.00     0.088 A 
HETATM   27  C   UNL     1      42.258 -10.633  -0.176  1.00  0.00     0.027 A 
HETATM   28  C   UNL     1      42.535 -11.332  -1.460  1.00  0.00     0.027 A 
ENDBRANCH   9  26
ENDBRANCH   6   9
BRANCH   6  29
HETATM   29  C   UNL     1      40.635 -14.296  -0.577  1.00  0.00     0.251 C 
HETATM   30  N   UNL     1      39.809 -14.857   0.377  1.00  0.00    -0.325 N 
HETATM   31  H   UNL     1      38.819 -14.857   0.159  1.00  0.00     0.169 HD
HETATM   32  O   UNL     1      41.860 -14.412  -0.606  1.00  0.00    -0.270 OA
BRANCH  30  33
HETATM   33  C   UNL     1      40.184 -15.430   1.609  1.00  0.00     0.034 A 
HETATM   34  C   UNL     1      40.602 -16.747   1.758  1.00  0.00     0.032 A 
HETATM   35  C   UNL     1      41.057 -17.213   3.001  1.00  0.00     0.031 A 
HETATM   36  C   UNL     1      41.128 -16.391   4.135  1.00  0.00     0.030 A 
HETATM   37  C   UNL     1      40.661 -15.081   3.972  1.00  0.00     0.031 A 
HETATM   38  C   UNL     1      40.202 -14.602   2.733  1.00  0.00     0.032 A 
BRANCH  36  39
HETATM   39  N   UNL     1      41.586 -16.904   5.344  1.00  0.00    -0.377 N 
HETATM   40  C   UNL     1      42.416 -18.134   5.313  1.00  0.00     0.149 C 
HETATM   41  C   UNL     1      43.911 -17.766   5.280  1.00  0.00     0.187 C 
HETATM   42  O   UNL     1      44.275 -16.933   6.394  1.00  0.00    -0.388 OA
HETATM   43  C   UNL     1      43.498 -15.723   6.399  1.00  0.00     0.187 C 
HETATM   44  C   UNL     1      41.991 -16.021   6.460  1.00  0.00     0.149 C 
ENDBRANCH  36  39
ENDBRANCH  30  33
ENDBRANCH   6  29
TORSDOF 8
ENDMDL
MODEL 7
REMARK VINA RESULT:      -8.3      3.897     10.417
REMARK  8 active torsions:
REMARK  status: ('A' for Active; 'I' for Inactive)
REMARK    1  A    between atoms: C_6  and  N_7 
REMARK    2  A    between atoms: C_6  and  C_26 
REMARK       I    between atoms: N_7  and  C_8 
REMARK    3  A    between atoms: N_7  and  C_23 
REMARK    4  A    between atoms: C_8  and  C_9 
REMARK    5  A    between atoms: C_9  and  N_10 
REMARK    6  A    between atoms: C_14  and  C_15 
REMARK       I    between atoms: C_26  and  N_27 
REMARK    7  A    between atoms: N_27  and  C_28 
REMARK    8  A    between atoms: C_31  and  N_32 
ROOT
HETATM    1  C   UNL     1      39.509 -16.165  -3.780  1.00  0.00     0.269 C 
HETATM    2  N   UNL     1      39.558 -15.481  -2.436  1.00  0.00    -0.075 N 
HETATM    3  H   UNL     1      38.944 -16.024  -1.813  1.00  0.00     0.279 HD
HETATM    4  C   UNL     1      40.949 -15.524  -1.870  1.00  0.00     0.237 C 
HETATM    5  C   UNL     1      41.005 -14.820  -0.519  1.00  0.00     0.069 C 
HETATM    6  C   UNL     1      40.433 -13.371  -0.489  1.00  0.00     0.120 C 
HETATM    7  C   UNL     1      39.027 -13.428  -1.154  1.00  0.00     0.069 C 
HETATM    8  C   UNL     1      39.022 -14.083  -2.529  1.00  0.00     0.237 C 
ENDROOT
BRANCH   6   9
HETATM    9  N   UNL     1      40.382 -12.850   0.936  1.00  0.00    -0.328 N 
HETATM   10  C   UNL     1      41.586 -12.402   1.515  1.00  0.00     0.239 C 
HETATM   11  O   UNL     1      42.542 -12.083   0.804  1.00  0.00    -0.271 OA
BRANCH  10  12
HETATM   12  C   UNL     1      41.694 -12.338   3.052  1.00  0.00     0.228 C 
BRANCH  12  13
HETATM   13  N   UNL     1      42.108 -13.593   3.674  1.00  0.00    -0.347 N 
HETATM   14  C   UNL     1      41.343 -14.354   4.564  1.00  0.00     0.171 C 
HETATM   15  S   UNL     1      39.944 -13.960   5.353  1.00  0.00    -0.041 SA
HETATM   16  N   UNL     1      41.951 -15.588   4.709  1.00  0.00    -0.357 N 
HETATM   17  C   UNL     1      43.201 -15.654   3.993  1.00  0.00     0.135 C 
HETATM   18  H   UNL     1      41.629 -16.282   5.373  1.00  0.00     0.162 HD
HETATM   19  C   UNL     1      43.102 -14.457   3.038  1.00  0.00     0.155 C 
BRANCH  17  20
HETATM   20  C   UNL     1      43.439 -16.981   3.324  1.00  0.00    -0.034 A 
HETATM   21  C   UNL     1      43.496 -17.107   1.927  1.00  0.00     0.009 A 
HETATM   22  C   UNL     1      43.708 -18.352   1.332  1.00  0.00     0.001 A 
HETATM   23  C   UNL     1      43.878 -19.485   2.124  1.00  0.00     0.000 A 
HETATM   24  C   UNL     1      43.839 -19.374   3.512  1.00  0.00     0.001 A 
HETATM   25  C   UNL     1      43.624 -18.130   4.109  1.00  0.00     0.009 A 
ENDBRANCH  17  20
ENDBRANCH  12  13
ENDBRANCH  10  12
BRANCH   9  26
HETATM   26  C   UNL     1      39.161 -12.956   1.714  1.00  0.00     0.088 A 
HETATM   27  C   UNL     1      38.379 -11.712   2.079  1.00  0.00     0.027 A 
HETATM   28  C   UNL     1      37.773 -12.714   1.161  1.00  0.00     0.027 A 
ENDBRANCH   9  26
ENDBRANCH   6   9
BRANCH   6  29
HETATM   29  C   UNL     1      41.282 -12.411  -1.383  1.00  0.00     0.251 C 
HETATM   30  N   UNL     1      40.695 -11.177  -1.583  1.00  0.00    -0.325 N 
HETATM   31  H   UNL     1      40.078 -10.857  -0.844  1.00  0.00     0.169 HD
HETATM   32  O   UNL     1      42.225 -12.858  -2.035  1.00  0.00    -0.270 OA
BRANCH  30  33
HETATM   33  C   UNL     1      40.858 -10.317  -2.687  1.00  0.00     0.034 A 
HETATM   34  C   UNL     1      41.811  -9.307  -2.750  1.00  0.00     0.032 A 
HETATM   35  C   UNL     1      41.979  -8.559  -3.926  1.00  0.00     0.031 A 
HETATM   36  C   UNL     1      41.221  -8.793  -5.083  1.00  0.00     0.030 A 
HETATM   37  C   UNL     1      40.239  -9.786  -4.982  1.00  0.00     0.031 A 
HETATM   38  C   UNL     1      40.060 -10.540  -3.809  1.00  0.00     0.032 A 
BRANCH  36  39
HETATM   39  N   UNL     1      41.427  -8.022  -6.223  1.00  0.00    -0.377 N 
HETATM   40  C   UNL     1      42.707  -7.280  -6.344  1.00  0.00     0.149 C 
HETATM   41  C   UNL     1      43.734  -8.118  -7.126  1.00  0.00     0.187 C 
HETATM   42  O   UNL     1      43.236  -8.491  -8.422  1.00  0.00    -0.388 OA
HETATM   43  C   UNL     1      42.018  -9.245  -8.301  1.00  0.00     0.187 C 
HETATM   44  C   UNL     1      40.936  -8.450  -7.550  1.00  0.00     0.149 C 
ENDBRANCH  36  39
ENDBRANCH  30  33
ENDBRANCH   6  29
TORSDOF 8
ENDMDL
MODEL 8
REMARK VINA RESULT:      -8.1      2.801      5.961
REMARK  8 active torsions:
REMARK  status: ('A' for Active; 'I' for Inactive)
REMARK    1  A    between atoms: C_6  and  N_7 
REMARK    2  A    between atoms: C_6  and  C_26 
REMARK       I    between atoms: N_7  and  C_8 
REMARK    3  A    between atoms: N_7  and  C_23 
REMARK    4  A    between atoms: C_8  and  C_9 
REMARK    5  A    between atoms: C_9  and  N_10 
REMARK    6  A    between atoms: C_14  and  C_15 
REMARK       I    between atoms: C_26  and  N_27 
REMARK    7  A    between atoms: N_27  and  C_28 
REMARK    8  A    between atoms: C_31  and  N_32 
ROOT
HETATM    1  C   UNL     1      42.669 -13.258   6.534  1.00  0.00     0.269 C 
HETATM    2  N   UNL     1      41.651 -13.062   5.437  1.00  0.00    -0.075 N 
HETATM    3  H   UNL     1      40.963 -12.386   5.800  1.00  0.00     0.279 HD
HETATM    4  C   UNL     1      42.293 -12.461   4.218  1.00  0.00     0.237 C 
HETATM    5  C   UNL     1      41.269 -12.277   3.105  1.00  0.00     0.069 C 
HETATM    6  C   UNL     1      40.439 -13.542   2.734  1.00  0.00     0.120 C 
HETATM    7  C   UNL     1      39.878 -14.119   4.067  1.00  0.00     0.069 C 
HETATM    8  C   UNL     1      40.939 -14.347   5.135  1.00  0.00     0.237 C 
ENDROOT
BRANCH   6   9
HETATM    9  N   UNL     1      39.342 -13.187   1.746  1.00  0.00    -0.328 N 
HETATM   10  C   UNL     1      38.848 -14.212   0.917  1.00  0.00     0.239 C 
HETATM   11  O   UNL     1      39.004 -15.396   1.225  1.00  0.00    -0.271 OA
BRANCH  10  12
HETATM   12  C   UNL     1      38.129 -13.829  -0.393  1.00  0.00     0.228 C 
BRANCH  12  13
HETATM   13  N   UNL     1      39.015 -13.702  -1.546  1.00  0.00    -0.347 N 
HETATM   14  C   UNL     1      38.674 -13.986  -2.873  1.00  0.00     0.171 C 
HETATM   15  S   UNL     1      37.347 -14.767  -3.474  1.00  0.00    -0.041 SA
HETATM   16  N   UNL     1      39.670 -13.482  -3.690  1.00  0.00    -0.357 N 
HETATM   17  C   UNL     1      40.760 -12.930  -2.926  1.00  0.00     0.135 C 
HETATM   18  H   UNL     1      39.690 -13.643  -4.690  1.00  0.00     0.162 HD
HETATM   19  C   UNL     1      40.141 -12.768  -1.531  1.00  0.00     0.155 C 
BRANCH  17  20
HETATM   20  C   UNL     1      41.328 -11.668  -3.518  1.00  0.00    -0.034 A 
HETATM   21  C   UNL     1      42.244 -10.868  -2.817  1.00  0.00     0.009 A 
HETATM   22  C   UNL     1      42.748  -9.697  -3.386  1.00  0.00     0.001 A 
HETATM   23  C   UNL     1      42.354  -9.317  -4.667  1.00  0.00     0.000 A 
HETATM   24  C   UNL     1      41.458 -10.109  -5.381  1.00  0.00     0.001 A 
HETATM   25  C   UNL     1      40.951 -11.278  -4.813  1.00  0.00     0.009 A 
ENDBRANCH  17  20
ENDBRANCH  12  13
ENDBRANCH  10  12
BRANCH   9  26
HETATM   26  C   UNL     1      38.933 -11.805   1.568  1.00  0.00     0.088 A 
HETATM   27  C   UNL     1      37.468 -11.427   1.650  1.00  0.00     0.027 A 
HETATM   28  C   UNL     1      38.414 -10.918   2.680  1.00  0.00     0.027 A 
ENDBRANCH   9  26
ENDBRANCH   6   9
BRANCH   6  29
HETATM   29  C   UNL     1      41.352 -14.663   2.143  1.00  0.00     0.251 C 
HETATM   30  N   UNL     1      41.265 -15.863   2.821  1.00  0.00    -0.325 N 
HETATM   31  H   UNL     1      40.381 -16.046   3.283  1.00  0.00     0.169 HD
HETATM   32  O   UNL     1      42.236 -14.371   1.338  1.00  0.00    -0.270 OA
BRANCH  30  33
HETATM   33  C   UNL     1      42.257 -16.858   2.939  1.00  0.00     0.034 A 
HETATM   34  C   UNL     1      43.008 -17.073   4.088  1.00  0.00     0.032 A 
HETATM   35  C   UNL     1      43.904 -18.151   4.161  1.00  0.00     0.031 A 
HETATM   36  C   UNL     1      44.078 -19.059   3.107  1.00  0.00     0.030 A 
HETATM   37  C   UNL     1      43.343 -18.797   1.944  1.00  0.00     0.031 A 
HETATM   38  C   UNL     1      42.443 -17.720   1.858  1.00  0.00     0.032 A 
BRANCH  36  39
HETATM   39  N   UNL     1      44.980 -20.111   3.231  1.00  0.00    -0.377 N 
HETATM   40  C   UNL     1      45.479 -20.450   4.587  1.00  0.00     0.149 C 
HETATM   41  C   UNL     1      44.610 -21.556   5.212  1.00  0.00     0.187 C 
HETATM   42  O   UNL     1      44.564 -22.727   4.379  1.00  0.00    -0.388 OA
HETATM   43  C   UNL     1      44.043 -22.405   3.078  1.00  0.00     0.187 C 
HETATM   44  C   UNL     1      44.886 -21.321   2.385  1.00  0.00     0.149 C 
ENDBRANCH  36  39
ENDBRANCH  30  33
ENDBRANCH   6  29
TORSDOF 8
ENDMDL
MODEL 9
REMARK VINA RESULT:      -7.9      3.237      7.317
REMARK  8 active torsions:
REMARK  status: ('A' for Active; 'I' for Inactive)
REMARK    1  A    between atoms: C_6  and  N_7 
REMARK    2  A    between atoms: C_6  and  C_26 
REMARK       I    between atoms: N_7  and  C_8 
REMARK    3  A    between atoms: N_7  and  C_23 
REMARK    4  A    between atoms: C_8  and  C_9 
REMARK    5  A    between atoms: C_9  and  N_10 
REMARK    6  A    between atoms: C_14  and  C_15 
REMARK       I    between atoms: C_26  and  N_27 
REMARK    7  A    between atoms: N_27  and  C_28 
REMARK    8  A    between atoms: C_31  and  N_32 
ROOT
HETATM    1  C   UNL     1      36.845  -8.127   3.898  1.00  0.00     0.269 C 
HETATM    2  N   UNL     1      37.763  -9.146   3.267  1.00  0.00    -0.075 N 
HETATM    3  H   UNL     1      37.275  -9.495   2.430  1.00  0.00     0.279 HD
HETATM    4  C   UNL     1      39.045  -8.500   2.821  1.00  0.00     0.237 C 
HETATM    5  C   UNL     1      39.979  -9.530   2.198  1.00  0.00     0.069 C 
HETATM    6  C   UNL     1      40.261 -10.796   3.061  1.00  0.00     0.120 C 
HETATM    7  C   UNL     1      38.879 -11.343   3.523  1.00  0.00     0.069 C 
HETATM    8  C   UNL     1      37.997 -10.300   4.196  1.00  0.00     0.237 C 
ENDROOT
BRANCH   6   9
HETATM    9  N   UNL     1      41.054 -11.816   2.264  1.00  0.00    -0.328 N 
HETATM   10  C   UNL     1      41.240 -13.092   2.831  1.00  0.00     0.239 C 
HETATM   11  O   UNL     1      40.494 -13.493   3.727  1.00  0.00    -0.271 OA
BRANCH  10  12
HETATM   12  C   UNL     1      42.406 -13.967   2.328  1.00  0.00     0.228 C 
BRANCH  12  13
HETATM   13  N   UNL     1      42.103 -15.394   2.279  1.00  0.00    -0.347 N 
HETATM   14  C   UNL     1      41.739 -16.112   1.134  1.00  0.00     0.171 C 
HETATM   15  S   UNL     1      41.296 -15.558  -0.360  1.00  0.00    -0.041 SA
HETATM   16  N   UNL     1      41.810 -17.461   1.431  1.00  0.00    -0.357 N 
HETATM   17  C   UNL     1      42.129 -17.686   2.819  1.00  0.00     0.135 C 
HETATM   18  H   UNL     1      41.506 -18.180   0.785  1.00  0.00     0.162 HD
HETATM   19  C   UNL     1      42.663 -16.318   3.264  1.00  0.00     0.155 C 
BRANCH  17  20
HETATM   20  C   UNL     1      43.073 -18.838   3.038  1.00  0.00    -0.034 A 
HETATM   21  C   UNL     1      43.796 -18.986   4.231  1.00  0.00     0.009 A 
HETATM   22  C   UNL     1      44.673 -20.059   4.405  1.00  0.00     0.001 A 
HETATM   23  C   UNL     1      44.828 -21.004   3.394  1.00  0.00     0.000 A 
HETATM   24  C   UNL     1      44.105 -20.880   2.210  1.00  0.00     0.001 A 
HETATM   25  C   UNL     1      43.230 -19.806   2.034  1.00  0.00     0.009 A 
ENDBRANCH  17  20
ENDBRANCH  12  13
ENDBRANCH  10  12
BRANCH   9  26
HETATM   26  C   UNL     1      41.718 -11.430   1.031  1.00  0.00     0.088 A 
HETATM   27  C   UNL     1      41.183 -11.904  -0.304  1.00  0.00     0.027 A 
HETATM   28  C   UNL     1      41.150 -10.453   0.025  1.00  0.00     0.027 A 
ENDBRANCH   9  26
ENDBRANCH   6   9
BRANCH   6  29
HETATM   29  C   UNL     1      41.026 -10.426   4.372  1.00  0.00     0.251 C 
HETATM   30  N   UNL     1      40.731 -11.254   5.437  1.00  0.00    -0.325 N 
HETATM   31  H   UNL     1      40.454 -12.200   5.197  1.00  0.00     0.169 HD
HETATM   32  O   UNL     1      41.598  -9.340   4.460  1.00  0.00    -0.270 OA
BRANCH  30  33
HETATM   33  C   UNL     1      40.776 -10.938   6.810  1.00  0.00     0.034 A 
HETATM   34  C   UNL     1      41.952 -10.722   7.519  1.00  0.00     0.032 A 
HETATM   35  C   UNL     1      41.908 -10.310   8.860  1.00  0.00     0.031 A 
HETATM   36  C   UNL     1      40.703 -10.085   9.541  1.00  0.00     0.030 A 
HETATM   37  C   UNL     1      39.533 -10.350   8.820  1.00  0.00     0.031 A 
HETATM   38  C   UNL     1      39.563 -10.764   7.477  1.00  0.00     0.032 A 
BRANCH  36  39
HETATM   39  N   UNL     1      40.717  -9.677  10.872  1.00  0.00    -0.377 N 
HETATM   40  C   UNL     1      39.718 -10.271  11.795  1.00  0.00     0.149 C 
HETATM   41  C   UNL     1      40.317 -11.497  12.509  1.00  0.00     0.187 C 
HETATM   42  O   UNL     1      41.525 -11.162  13.211  1.00  0.00    -0.388 OA
HETATM   43  C   UNL     1      42.506 -10.624  12.308  1.00  0.00     0.187 C 
HETATM   44  C   UNL     1      41.979  -9.376  11.581  1.00  0.00     0.149 C 
ENDBRANCH  36  39
ENDBRANCH  30  33
ENDBRANCH   6  29
TORSDOF 8
ENDMDL
MODEL 10
REMARK VINA RESULT:      -7.9      3.681      7.541
REMARK  8 active torsions:
REMARK  status: ('A' for Active; 'I' for Inactive)
REMARK    1  A    between atoms: C_6  and  N_7 
REMARK    2  A    between atoms: C_6  and  C_26 
REMARK       I    between atoms: N_7  and  C_8 
REMARK    3  A    between atoms: N_7  and  C_23 
REMARK    4  A    between atoms: C_8  and  C_9 
REMARK    5  A    between atoms: C_9  and  N_10 
REMARK    6  A    between atoms: C_14  and  C_15 
REMARK       I    between atoms: C_26  and  N_27 
REMARK    7  A    between atoms: N_27  and  C_28 
REMARK    8  A    between atoms: C_31  and  N_32 
ROOT
HETATM    1  C   UNL     1      40.656 -10.379  11.281  1.00  0.00     0.269 C 
HETATM    2  N   UNL     1      40.559  -9.977   9.829  1.00  0.00    -0.075 N 
HETATM    3  H   UNL     1      40.553  -8.947   9.816  1.00  0.00     0.279 HD
HETATM    4  C   UNL     1      41.768 -10.443   9.068  1.00  0.00     0.237 C 
HETATM    5  C   UNL     1      41.665 -10.052   7.599  1.00  0.00     0.069 C 
HETATM    6  C   UNL     1      40.351 -10.475   6.877  1.00  0.00     0.120 C 
HETATM    7  C   UNL     1      39.172 -10.005   7.777  1.00  0.00     0.069 C 
HETATM    8  C   UNL     1      39.278 -10.467   9.224  1.00  0.00     0.237 C 
ENDROOT
BRANCH   6   9
HETATM    9  N   UNL     1      40.294  -9.877   5.484  1.00  0.00    -0.328 N 
HETATM   10  C   UNL     1      39.235 -10.270   4.643  1.00  0.00     0.239 C 
HETATM   11  O   UNL     1      38.207 -10.758   5.118  1.00  0.00    -0.271 OA
BRANCH  10  12
HETATM   12  C   UNL     1      39.392 -10.100   3.118  1.00  0.00     0.228 C 
BRANCH  12  13
HETATM   13  N   UNL     1      38.769 -11.161   2.332  1.00  0.00    -0.347 N 
HETATM   14  C   UNL     1      37.568 -11.053   1.622  1.00  0.00     0.171 C 
HETATM   15  S   UNL     1      36.417  -9.867   1.675  1.00  0.00    -0.041 SA
HETATM   16  N   UNL     1      37.457 -12.154   0.793  1.00  0.00    -0.357 N 
HETATM   17  C   UNL     1      38.538 -13.087   0.996  1.00  0.00     0.135 C 
HETATM   18  H   UNL     1      36.627 -12.344   0.243  1.00  0.00     0.162 HD
HETATM   19  C   UNL     1      39.569 -12.241   1.755  1.00  0.00     0.155 C 
BRANCH  17  20
HETATM   20  C   UNL     1      39.042 -13.707  -0.280  1.00  0.00    -0.034 A 
HETATM   21  C   UNL     1      40.261 -14.400  -0.336  1.00  0.00     0.009 A 
HETATM   22  C   UNL     1      40.709 -14.958  -1.534  1.00  0.00     0.001 A 
HETATM   23  C   UNL     1      39.940 -14.841  -2.689  1.00  0.00     0.000 A 
HETATM   24  C   UNL     1      38.720 -14.170  -2.647  1.00  0.00     0.001 A 
HETATM   25  C   UNL     1      38.272 -13.609  -1.450  1.00  0.00     0.009 A 
ENDBRANCH  17  20
ENDBRANCH  12  13
ENDBRANCH  10  12
BRANCH   9  26
HETATM   26  C   UNL     1      41.382  -9.048   4.995  1.00  0.00     0.088 A 
HETATM   27  C   UNL     1      41.089  -7.705   4.356  1.00  0.00     0.027 A 
HETATM   28  C   UNL     1      41.830  -7.757   5.646  1.00  0.00     0.027 A 
ENDBRANCH   9  26
ENDBRANCH   6   9
BRANCH   6  29
HETATM   29  C   UNL     1      40.226 -12.031   6.801  1.00  0.00     0.251 C 
HETATM   30  N   UNL     1      41.298 -12.643   6.181  1.00  0.00    -0.325 N 
HETATM   31  H   UNL     1      42.184 -12.154   6.247  1.00  0.00     0.169 HD
HETATM   32  O   UNL     1      39.144 -12.569   7.032  1.00  0.00    -0.270 OA
BRANCH  30  33
HETATM   33  C   UNL     1      41.301 -13.863   5.476  1.00  0.00     0.034 A 
HETATM   34  C   UNL     1      40.434 -14.158   4.431  1.00  0.00     0.032 A 
HETATM   35  C   UNL     1      40.569 -15.356   3.711  1.00  0.00     0.031 A 
HETATM   36  C   UNL     1      41.572 -16.295   3.991  1.00  0.00     0.030 A 
HETATM   37  C   UNL     1      42.405 -15.996   5.075  1.00  0.00     0.031 A 
HETATM   38  C   UNL     1      42.280 -14.801   5.804  1.00  0.00     0.032 A 
BRANCH  36  39
HETATM   39  N   UNL     1      41.661 -17.468   3.247  1.00  0.00    -0.377 N 
HETATM   40  C   UNL     1      41.312 -17.410   1.805  1.00  0.00     0.149 C 
HETATM   41  C   UNL     1      42.578 -17.169   0.962  1.00  0.00     0.187 C 
HETATM   42  O   UNL     1      43.575 -18.174   1.206  1.00  0.00    -0.388 OA
HETATM   43  C   UNL     1      43.941 -18.201   2.596  1.00  0.00     0.187 C 
HETATM   44  C   UNL     1      42.722 -18.467   3.495  1.00  0.00     0.149 C 
ENDBRANCH  36  39
ENDBRANCH  30  33
ENDBRANCH   6  29
TORSDOF 8
ENDMDL
