MODEL 1
REMARK VINA RESULT:      -8.9      0.000      0.000
REMARK  6 active torsions:
REMARK  status: ('A' for Active; 'I' for Inactive)
REMARK    1  A    between atoms: C_2  and  C_3 
REMARK    2  A    between atoms: C_7  and  C_8 
REMARK       I    between atoms: C_8  and  N_9 
REMARK    3  A    between atoms: N_9  and  C_10 
REMARK    4  A    between atoms: C_10  and  C_11 
REMARK    5  A    between atoms: C_11  and  N_12 
REMARK       I    between atoms: N_12  and  C_13 
REMARK    6  A    between atoms: C_13  and  C_14 
ROOT
HETATM    1  C   UNL     1      44.383 -14.078   6.521  1.00  0.00     0.142 C 
ENDROOT
BRANCH   1   2
HETATM    2  N   UNL     1      44.170 -13.583   7.862  1.00  0.00    -0.354 N 
HETATM    3  C   UNL     1      45.081 -12.782   8.515  1.00  0.00     0.272 C 
HETATM    4  O   UNL     1      46.170 -12.472   8.040  1.00  0.00    -0.266 OA
HETATM    5  H   UNL     1      43.278 -13.712   8.334  1.00  0.00     0.162 HD
BRANCH   3   6
HETATM    6  C   UNL     1      44.611 -12.312   9.826  1.00  0.00     0.146 A 
HETATM    7  N   UNL     1      44.321 -13.164  10.832  1.00  0.00    -0.169 NA
HETATM    8  N   UNL     1      43.924 -12.364  11.835  1.00  0.00    -0.281 N 
HETATM    9  C   UNL     1      43.937 -11.032  11.523  1.00  0.00     0.033 A 
HETATM   10  H   UNL     1      43.654 -12.795  12.713  1.00  0.00     0.189 HD
HETATM   11  C   UNL     1      44.384 -10.969  10.220  1.00  0.00     0.066 A 
BRANCH   9  12
HETATM   12  C   UNL     1      43.526  -9.976  12.502  1.00  0.00     0.029 C 
HETATM   13  C   UNL     1      42.641 -10.562  13.604  1.00  0.00     0.016 C 
HETATM   14  C   UNL     1      42.814  -8.824  11.792  1.00  0.00     0.016 C 
ENDBRANCH   9  12
ENDBRANCH   3   6
ENDBRANCH   1   2
BRANCH   1  15
HETATM   15  C   UNL     1      43.121 -14.714   5.928  1.00  0.00     0.142 C 
BRANCH  15  16
HETATM   16  N   UNL     1      43.408 -15.880   5.110  1.00  0.00    -0.355 N 
HETATM   17  C   UNL     1      43.440 -17.146   5.652  1.00  0.00     0.251 C 
HETATM   18  O   UNL     1      43.242 -17.373   6.840  1.00  0.00    -0.268 OA
HETATM   19  H   UNL     1      43.772 -15.711   4.182  1.00  0.00     0.162 HD
BRANCH  17  20
HETATM   20  C   UNL     1      43.763 -18.265   4.722  1.00  0.00     0.033 A 
HETATM   21  C   UNL     1      44.230 -19.467   5.271  1.00  0.00     0.042 A 
HETATM   22  C   UNL     1      44.534 -20.551   4.442  1.00  0.00     0.056 A 
HETATM   23 CL   UNL     1      45.110 -21.999   5.187  1.00  0.00    -0.083 Cl
HETATM   24  C   UNL     1      44.366 -20.440   3.056  1.00  0.00     0.055 A 
HETATM   25 CL   UNL     1      44.720 -21.735   1.970  1.00  0.00    -0.083 Cl
HETATM   26  C   UNL     1      43.887 -19.245   2.509  1.00  0.00     0.026 A 
HETATM   27  C   UNL     1      43.582 -18.162   3.337  1.00  0.00     0.019 A 
ENDBRANCH  17  20
ENDBRANCH  15  16
ENDBRANCH   1  15
TORSDOF 6
ENDMDL
MODEL 2
REMARK VINA RESULT:      -8.7      1.428      1.938
REMARK  6 active torsions:
REMARK  status: ('A' for Active; 'I' for Inactive)
REMARK    1  A    between atoms: C_2  and  C_3 
REMARK    2  A    between atoms: C_7  and  C_8 
REMARK       I    between atoms: C_8  and  N_9 
REMARK    3  A    between atoms: N_9  and  C_10 
REMARK    4  A    between atoms: C_10  and  C_11 
REMARK    5  A    between atoms: C_11  and  N_12 
REMARK       I    between atoms: N_12  and  C_13 
REMARK    6  A    between atoms: C_13  and  C_14 
ROOT
HETATM    1  C   UNL     1      44.403 -14.419   6.821  1.00  0.00     0.142 C 
ENDROOT
BRANCH   1   2
HETATM    2  N   UNL     1      43.985 -13.439   7.796  1.00  0.00    -0.354 N 
HETATM    3  C   UNL     1      44.877 -12.723   8.564  1.00  0.00     0.272 C 
HETATM    4  O   UNL     1      46.091 -12.901   8.529  1.00  0.00    -0.266 OA
HETATM    5  H   UNL     1      43.011 -13.151   7.869  1.00  0.00     0.162 HD
BRANCH   3   6
HETATM    6  C   UNL     1      44.235 -11.708   9.412  1.00  0.00     0.146 A 
HETATM    7  N   UNL     1      43.317 -10.844   8.927  1.00  0.00    -0.169 NA
HETATM    8  N   UNL     1      42.986 -10.089   9.986  1.00  0.00    -0.281 N 
HETATM    9  C   UNL     1      43.651 -10.419  11.135  1.00  0.00     0.033 A 
HETATM   10  H   UNL     1      42.294  -9.358   9.855  1.00  0.00     0.189 HD
HETATM   11  C   UNL     1      44.469 -11.475  10.790  1.00  0.00     0.066 A 
BRANCH   9  12
HETATM   12  C   UNL     1      43.427  -9.696  12.426  1.00  0.00     0.029 C 
HETATM   13  C   UNL     1      42.731 -10.596  13.449  1.00  0.00     0.016 C 
HETATM   14  C   UNL     1      42.623  -8.415  12.199  1.00  0.00     0.016 C 
ENDBRANCH   9  12
ENDBRANCH   3   6
ENDBRANCH   1   2
BRANCH   1  15
HETATM   15  C   UNL     1      44.174 -15.856   7.306  1.00  0.00     0.142 C 
BRANCH  15  16
HETATM   16  N   UNL     1      44.195 -16.826   6.224  1.00  0.00    -0.355 N 
HETATM   17  C   UNL     1      44.281 -18.177   6.475  1.00  0.00     0.251 C 
HETATM   18  O   UNL     1      44.357 -18.648   7.604  1.00  0.00    -0.268 OA
HETATM   19  H   UNL     1      44.339 -16.468   5.290  1.00  0.00     0.162 HD
BRANCH  17  20
HETATM   20  C   UNL     1      44.313 -19.079   5.288  1.00  0.00     0.033 A 
HETATM   21  C   UNL     1      43.960 -18.544   4.041  1.00  0.00     0.042 A 
HETATM   22  C   UNL     1      43.988 -19.345   2.896  1.00  0.00     0.056 A 
HETATM   23 CL   UNL     1      43.533 -18.619   1.395  1.00  0.00    -0.083 Cl
HETATM   24  C   UNL     1      44.377 -20.686   2.990  1.00  0.00     0.055 A 
HETATM   25 CL   UNL     1      44.436 -21.735   1.619  1.00  0.00    -0.083 Cl
HETATM   26  C   UNL     1      44.743 -21.217   4.231  1.00  0.00     0.026 A 
HETATM   27  C   UNL     1      44.717 -20.417   5.377  1.00  0.00     0.019 A 
ENDBRANCH  17  20
ENDBRANCH  15  16
ENDBRANCH   1  15
TORSDOF 6
ENDMDL
MODEL 3
REMARK VINA RESULT:      -8.2      3.858      5.669
REMARK  6 active torsions:
REMARK  status: ('A' for Active; 'I' for Inactive)
REMARK    1  A    between atoms: C_2  and  C_3 
REMARK    2  A    between atoms: C_7  and  C_8 
REMARK       I    between atoms: C_8  and  N_9 
REMARK    3  A    between atoms: N_9  and  C_10 
REMARK    4  A    between atoms: C_10  and  C_11 
REMARK    5  A    between atoms: C_11  and  N_12 
REMARK       I    between atoms: N_12  and  C_13 
REMARK    6  A    between atoms: C_13  and  C_14 
ROOT
HETATM    1  C   UNL     1      41.257 -14.444   0.211  1.00  0.00     0.142 C 
ENDROOT
BRANCH   1   2
HETATM    2  N   UNL     1      41.766 -14.386   1.562  1.00  0.00    -0.354 N 
HETATM    3  C   UNL     1      42.341 -13.252   2.094  1.00  0.00     0.272 C 
HETATM    4  O   UNL     1      42.523 -12.223   1.451  1.00  0.00    -0.266 OA
HETATM    5  H   UNL     1      41.611 -15.150   2.215  1.00  0.00     0.162 HD
BRANCH   3   6
HETATM    6  C   UNL     1      42.692 -13.388   3.515  1.00  0.00     0.146 A 
HETATM    7  N   UNL     1      42.003 -12.754   4.488  1.00  0.00    -0.169 NA
HETATM    8  N   UNL     1      42.626 -13.118   5.621  1.00  0.00    -0.281 N 
HETATM    9  C   UNL     1      43.691 -13.955   5.426  1.00  0.00     0.033 A 
HETATM   10  H   UNL     1      42.272 -12.756   6.500  1.00  0.00     0.189 HD
HETATM   11  C   UNL     1      43.754 -14.151   4.063  1.00  0.00     0.066 A 
BRANCH   9  12
HETATM   12  C   UNL     1      44.520 -14.473   6.560  1.00  0.00     0.029 C 
HETATM   13  C   UNL     1      43.934 -15.769   7.124  1.00  0.00     0.016 C 
HETATM   14  C   UNL     1      44.656 -13.419   7.659  1.00  0.00     0.016 C 
ENDBRANCH   9  12
ENDBRANCH   3   6
ENDBRANCH   1   2
BRANCH   1  15
HETATM   15  C   UNL     1      41.462 -15.822  -0.430  1.00  0.00     0.142 C 
BRANCH  15  16
HETATM   16  N   UNL     1      42.240 -16.722   0.404  1.00  0.00    -0.355 N 
HETATM   17  C   UNL     1      41.658 -17.422   1.438  1.00  0.00     0.251 C 
HETATM   18  O   UNL     1      40.472 -17.329   1.729  1.00  0.00    -0.268 OA
HETATM   19  H   UNL     1      43.245 -16.668   0.324  1.00  0.00     0.162 HD
BRANCH  17  20
HETATM   20  C   UNL     1      42.556 -18.302   2.239  1.00  0.00     0.033 A 
HETATM   21  C   UNL     1      42.944 -19.530   1.687  1.00  0.00     0.042 A 
HETATM   22  C   UNL     1      43.796 -20.385   2.393  1.00  0.00     0.056 A 
HETATM   23 CL   UNL     1      44.226 -21.886   1.652  1.00  0.00    -0.083 Cl
HETATM   24  C   UNL     1      44.271 -20.011   3.655  1.00  0.00     0.055 A 
HETATM   25 CL   UNL     1      45.326 -21.013   4.586  1.00  0.00    -0.083 Cl
HETATM   26  C   UNL     1      43.896 -18.780   4.202  1.00  0.00     0.026 A 
HETATM   27  C   UNL     1      43.046 -17.924   3.496  1.00  0.00     0.019 A 
ENDBRANCH  17  20
ENDBRANCH  15  16
ENDBRANCH   1  15
TORSDOF 6
ENDMDL
MODEL 4
REMARK VINA RESULT:      -8.1      4.539     10.568
REMARK  6 active torsions:
REMARK  status: ('A' for Active; 'I' for Inactive)
REMARK    1  A    between atoms: C_2  and  C_3 
REMARK    2  A    between atoms: C_7  and  C_8 
REMARK       I    between atoms: C_8  and  N_9 
REMARK    3  A    between atoms: N_9  and  C_10 
REMARK    4  A    between atoms: C_10  and  C_11 
REMARK    5  A    between atoms: C_11  and  N_12 
REMARK       I    between atoms: N_12  and  C_13 
REMARK    6  A    between atoms: C_13  and  C_14 
ROOT
HETATM    1  C   UNL     1      44.186 -15.450   7.328  1.00  0.00     0.142 C 
ENDROOT
BRANCH   1   2
HETATM    2  N   UNL     1      44.333 -16.415   6.263  1.00  0.00    -0.354 N 
HETATM    3  C   UNL     1      43.888 -17.714   6.367  1.00  0.00     0.272 C 
HETATM    4  O   UNL     1      43.387 -18.176   7.388  1.00  0.00    -0.266 OA
HETATM    5  H   UNL     1      44.668 -16.136   5.343  1.00  0.00     0.162 HD
BRANCH   3   6
HETATM    6  C   UNL     1      44.049 -18.487   5.126  1.00  0.00     0.146 A 
HETATM    7  N   UNL     1      43.915 -17.923   3.907  1.00  0.00    -0.169 NA
HETATM    8  N   UNL     1      44.121 -18.938   3.053  1.00  0.00    -0.281 N 
HETATM    9  C   UNL     1      44.376 -20.136   3.662  1.00  0.00     0.033 A 
HETATM   10  H   UNL     1      44.071 -18.744   2.058  1.00  0.00     0.189 HD
HETATM   11  C   UNL     1      44.339 -19.870   5.014  1.00  0.00     0.066 A 
BRANCH   9  12
HETATM   12  C   UNL     1      44.629 -21.391   2.886  1.00  0.00     0.029 C 
HETATM   13  C   UNL     1      43.604 -21.561   1.764  1.00  0.00     0.016 C 
HETATM   14  C   UNL     1      44.627 -22.610   3.809  1.00  0.00     0.016 C 
ENDBRANCH   9  12
ENDBRANCH   3   6
ENDBRANCH   1   2
BRANCH   1  15
HETATM   15  C   UNL     1      44.464 -14.017   6.858  1.00  0.00     0.142 C 
BRANCH  15  16
HETATM   16  N   UNL     1      43.949 -13.013   7.773  1.00  0.00    -0.355 N 
HETATM   17  C   UNL     1      44.735 -12.484   8.773  1.00  0.00     0.251 C 
HETATM   18  O   UNL     1      45.896 -12.822   8.964  1.00  0.00    -0.268 OA
HETATM   19  H   UNL     1      42.949 -12.863   7.774  1.00  0.00     0.162 HD
BRANCH  17  20
HETATM   20  C   UNL     1      44.095 -11.474   9.664  1.00  0.00     0.033 A 
HETATM   21  C   UNL     1      42.921 -10.850   9.222  1.00  0.00     0.042 A 
HETATM   22  C   UNL     1      42.276  -9.908  10.028  1.00  0.00     0.056 A 
HETATM   23 CL   UNL     1      40.836  -9.175   9.415  1.00  0.00    -0.083 Cl
HETATM   24  C   UNL     1      42.800  -9.588  11.286  1.00  0.00     0.055 A 
HETATM   25 CL   UNL     1      42.059  -8.434  12.336  1.00  0.00    -0.083 Cl
HETATM   26  C   UNL     1      43.964 -10.219  11.734  1.00  0.00     0.026 A 
HETATM   27  C   UNL     1      44.609 -11.164  10.930  1.00  0.00     0.019 A 
ENDBRANCH  17  20
ENDBRANCH  15  16
ENDBRANCH   1  15
TORSDOF 6
ENDMDL
MODEL 5
REMARK VINA RESULT:      -8.0      5.921      9.409
REMARK  6 active torsions:
REMARK  status: ('A' for Active; 'I' for Inactive)
REMARK    1  A    between atoms: C_2  and  C_3 
REMARK    2  A    between atoms: C_7  and  C_8 
REMARK       I    between atoms: C_8  and  N_9 
REMARK    3  A    between atoms: N_9  and  C_10 
REMARK    4  A    between atoms: C_10  and  C_11 
REMARK    5  A    between atoms: C_11  and  N_12 
REMARK       I    between atoms: N_12  and  C_13 
REMARK    6  A    between atoms: C_13  and  C_14 
ROOT
HETATM    1  C   UNL     1      41.816 -14.284   3.212  1.00  0.00     0.142 C 
ENDROOT
BRANCH   1   2
HETATM    2  N   UNL     1      41.283 -14.626   1.913  1.00  0.00    -0.354 N 
HETATM    3  C   UNL     1      41.575 -13.908   0.774  1.00  0.00     0.272 C 
HETATM    4  O   UNL     1      42.258 -12.888   0.776  1.00  0.00    -0.266 OA
HETATM    5  H   UNL     1      40.762 -15.489   1.769  1.00  0.00     0.162 HD
BRANCH   3   6
HETATM    6  C   UNL     1      41.009 -14.498  -0.448  1.00  0.00     0.146 A 
HETATM    7  N   UNL     1      41.253 -15.776  -0.808  1.00  0.00    -0.169 NA
HETATM    8  N   UNL     1      40.582 -15.925  -1.961  1.00  0.00    -0.281 N 
HETATM    9  C   UNL     1      39.918 -14.801  -2.369  1.00  0.00     0.033 A 
HETATM   10  H   UNL     1      40.619 -16.828  -2.423  1.00  0.00     0.189 HD
HETATM   11  C   UNL     1      40.176 -13.855  -1.399  1.00  0.00     0.066 A 
BRANCH   9  12
HETATM   12  C   UNL     1      39.113 -14.759  -3.630  1.00  0.00     0.029 C 
HETATM   13  C   UNL     1      37.721 -14.178  -3.376  1.00  0.00     0.016 C 
HETATM   14  C   UNL     1      39.012 -16.150  -4.256  1.00  0.00     0.016 C 
ENDBRANCH   9  12
ENDBRANCH   3   6
ENDBRANCH   1   2
BRANCH   1  15
HETATM   15  C   UNL     1      43.316 -14.580   3.323  1.00  0.00     0.142 C 
BRANCH  15  16
HETATM   16  N   UNL     1      43.593 -15.957   3.693  1.00  0.00    -0.355 N 
HETATM   17  C   UNL     1      43.748 -16.938   2.739  1.00  0.00     0.251 C 
HETATM   18  O   UNL     1      43.654 -16.727   1.536  1.00  0.00    -0.268 OA
HETATM   19  H   UNL     1      43.475 -16.203   4.666  1.00  0.00     0.162 HD
BRANCH  17  20
HETATM   20  C   UNL     1      44.011 -18.320   3.236  1.00  0.00     0.033 A 
HETATM   21  C   UNL     1      43.969 -19.374   2.313  1.00  0.00     0.042 A 
HETATM   22  C   UNL     1      44.223 -20.685   2.726  1.00  0.00     0.056 A 
HETATM   23 CL   UNL     1      44.148 -21.934   1.534  1.00  0.00    -0.083 Cl
HETATM   24  C   UNL     1      44.526 -20.948   4.067  1.00  0.00     0.055 A 
HETATM   25 CL   UNL     1      44.851 -22.541   4.651  1.00  0.00    -0.083 Cl
HETATM   26  C   UNL     1      44.582 -19.896   4.986  1.00  0.00     0.026 A 
HETATM   27  C   UNL     1      44.330 -18.584   4.574  1.00  0.00     0.019 A 
ENDBRANCH  17  20
ENDBRANCH  15  16
ENDBRANCH   1  15
TORSDOF 6
ENDMDL
MODEL 6
REMARK VINA RESULT:      -8.0      5.001      8.265
REMARK  6 active torsions:
REMARK  status: ('A' for Active; 'I' for Inactive)
REMARK    1  A    between atoms: C_2  and  C_3 
REMARK    2  A    between atoms: C_7  and  C_8 
REMARK       I    between atoms: C_8  and  N_9 
REMARK    3  A    between atoms: N_9  and  C_10 
REMARK    4  A    between atoms: C_10  and  C_11 
REMARK    5  A    between atoms: C_11  and  N_12 
REMARK       I    between atoms: N_12  and  C_13 
REMARK    6  A    between atoms: C_13  and  C_14 
ROOT
HETATM    1  C   UNL     1      41.780 -14.201   4.791  1.00  0.00     0.142 C 
ENDROOT
BRANCH   1   2
HETATM    2  N   UNL     1      41.411 -14.486   3.424  1.00  0.00    -0.354 N 
HETATM    3  C   UNL     1      42.137 -14.030   2.345  1.00  0.00     0.272 C 
HETATM    4  O   UNL     1      43.116 -13.297   2.452  1.00  0.00    -0.266 OA
HETATM    5  H   UNL     1      40.662 -15.139   3.206  1.00  0.00     0.162 HD
BRANCH   3   6
HETATM    6  C   UNL     1      41.639 -14.528   1.054  1.00  0.00     0.146 A 
HETATM    7  N   UNL     1      41.283 -15.817   0.871  1.00  0.00    -0.169 NA
HETATM    8  N   UNL     1      40.901 -15.872  -0.415  1.00  0.00    -0.281 N 
HETATM    9  C   UNL     1      40.999 -14.678  -1.076  1.00  0.00     0.033 A 
HETATM   10  H   UNL     1      40.584 -16.763  -0.782  1.00  0.00     0.189 HD
HETATM   11  C   UNL     1      41.474 -13.783  -0.141  1.00  0.00     0.066 A 
BRANCH   9  12
HETATM   12  C   UNL     1      40.625 -14.529  -2.518  1.00  0.00     0.029 C 
HETATM   13  C   UNL     1      40.369 -15.892  -3.165  1.00  0.00     0.016 C 
HETATM   14  C   UNL     1      41.705 -13.763  -3.283  1.00  0.00     0.016 C 
ENDBRANCH   9  12
ENDBRANCH   3   6
ENDBRANCH   1   2
BRANCH   1  15
HETATM   15  C   UNL     1      41.830 -15.466   5.657  1.00  0.00     0.142 C 
BRANCH  15  16
HETATM   16  N   UNL     1      42.229 -16.646   4.909  1.00  0.00    -0.355 N 
HETATM   17  C   UNL     1      43.403 -17.309   5.191  1.00  0.00     0.251 C 
HETATM   18  O   UNL     1      44.183 -16.952   6.066  1.00  0.00    -0.268 OA
HETATM   19  H   UNL     1      41.720 -16.844   4.059  1.00  0.00     0.162 HD
BRANCH  17  20
HETATM   20  C   UNL     1      43.721 -18.496   4.347  1.00  0.00     0.033 A 
HETATM   21  C   UNL     1      44.256 -19.629   4.974  1.00  0.00     0.042 A 
HETATM   22  C   UNL     1      44.558 -20.773   4.228  1.00  0.00     0.056 A 
HETATM   23 CL   UNL     1      45.221 -22.130   5.068  1.00  0.00    -0.083 Cl
HETATM   24  C   UNL     1      44.319 -20.791   2.849  1.00  0.00     0.055 A 
HETATM   25 CL   UNL     1      44.665 -22.166   1.864  1.00  0.00    -0.083 Cl
HETATM   26  C   UNL     1      43.772 -19.666   2.225  1.00  0.00     0.026 A 
HETATM   27  C   UNL     1      43.468 -18.522   2.969  1.00  0.00     0.019 A 
ENDBRANCH  17  20
ENDBRANCH  15  16
ENDBRANCH   1  15
TORSDOF 6
ENDMDL
MODEL 7
REMARK VINA RESULT:      -7.9      7.299      9.979
REMARK  6 active torsions:
REMARK  status: ('A' for Active; 'I' for Inactive)
REMARK    1  A    between atoms: C_2  and  C_3 
REMARK    2  A    between atoms: C_7  and  C_8 
REMARK       I    between atoms: C_8  and  N_9 
REMARK    3  A    between atoms: N_9  and  C_10 
REMARK    4  A    between atoms: C_10  and  C_11 
REMARK    5  A    between atoms: C_11  and  N_12 
REMARK       I    between atoms: N_12  and  C_13 
REMARK    6  A    between atoms: C_13  and  C_14 
ROOT
HETATM    1  C   UNL     1      40.628 -15.786   3.128  1.00  0.00     0.142 C 
ENDROOT
BRANCH   1   2
HETATM    2  N   UNL     1      41.514 -16.925   3.188  1.00  0.00    -0.354 N 
HETATM    3  C   UNL     1      42.861 -16.809   3.457  1.00  0.00     0.272 C 
HETATM    4  O   UNL     1      43.428 -15.731   3.608  1.00  0.00    -0.266 OA
HETATM    5  H   UNL     1      41.152 -17.875   3.151  1.00  0.00     0.162 HD
BRANCH   3   6
HETATM    6  C   UNL     1      43.546 -18.105   3.574  1.00  0.00     0.146 A 
HETATM    7  N   UNL     1      44.310 -18.419   4.641  1.00  0.00    -0.169 NA
HETATM    8  N   UNL     1      44.758 -19.655   4.371  1.00  0.00    -0.281 N 
HETATM    9  C   UNL     1      44.325 -20.155   3.173  1.00  0.00     0.033 A 
HETATM   10  H   UNL     1      45.363 -20.105   5.050  1.00  0.00     0.189 HD
HETATM   11  C   UNL     1      43.529 -19.166   2.634  1.00  0.00     0.066 A 
BRANCH   9  12
HETATM   12  C   UNL     1      44.714 -21.515   2.685  1.00  0.00     0.029 C 
HETATM   13  C   UNL     1      43.865 -21.933   1.483  1.00  0.00     0.016 C 
HETATM   14  C   UNL     1      44.607 -22.547   3.807  1.00  0.00     0.016 C 
ENDBRANCH   9  12
ENDBRANCH   3   6
ENDBRANCH   1   2
BRANCH   1  15
HETATM   15  C   UNL     1      39.658 -15.865   1.942  1.00  0.00     0.142 C 
BRANCH  15  16
HETATM   16  N   UNL     1      40.056 -15.017   0.831  1.00  0.00    -0.355 N 
HETATM   17  C   UNL     1      41.008 -15.425  -0.076  1.00  0.00     0.251 C 
HETATM   18  O   UNL     1      41.583 -16.504  -0.007  1.00  0.00    -0.268 OA
HETATM   19  H   UNL     1      39.755 -14.053   0.860  1.00  0.00     0.162 HD
BRANCH  17  20
HETATM   20  C   UNL     1      41.350 -14.466  -1.165  1.00  0.00     0.033 A 
HETATM   21  C   UNL     1      42.028 -13.288  -0.820  1.00  0.00     0.042 A 
HETATM   22  C   UNL     1      42.383 -12.364  -1.807  1.00  0.00     0.056 A 
HETATM   23 CL   UNL     1      43.211 -10.932  -1.308  1.00  0.00    -0.083 Cl
HETATM   24  C   UNL     1      42.068 -12.616  -3.147  1.00  0.00     0.055 A 
HETATM   25 CL   UNL     1      42.475 -11.522  -4.420  1.00  0.00    -0.083 Cl
HETATM   26  C   UNL     1      41.404 -13.797  -3.494  1.00  0.00     0.026 A 
HETATM   27  C   UNL     1      41.049 -14.723  -2.509  1.00  0.00     0.019 A 
ENDBRANCH  17  20
ENDBRANCH  15  16
ENDBRANCH   1  15
TORSDOF 6
ENDMDL
MODEL 8
REMARK VINA RESULT:      -7.8      4.505      7.346
REMARK  6 active torsions:
REMARK  status: ('A' for Active; 'I' for Inactive)
REMARK    1  A    between atoms: C_2  and  C_3 
REMARK    2  A    between atoms: C_7  and  C_8 
REMARK       I    between atoms: C_8  and  N_9 
REMARK    3  A    between atoms: N_9  and  C_10 
REMARK    4  A    between atoms: C_10  and  C_11 
REMARK    5  A    between atoms: C_11  and  N_12 
REMARK       I    between atoms: N_12  and  C_13 
REMARK    6  A    between atoms: C_13  and  C_14 
ROOT
HETATM    1  C   UNL     1      42.698 -14.449   5.794  1.00  0.00     0.142 C 
ENDROOT
BRANCH   1   2
HETATM    2  N   UNL     1      42.225 -14.163   4.459  1.00  0.00    -0.354 N 
HETATM    3  C   UNL     1      43.065 -13.778   3.438  1.00  0.00     0.272 C 
HETATM    4  O   UNL     1      44.268 -13.588   3.589  1.00  0.00    -0.266 OA
HETATM    5  H   UNL     1      41.262 -14.352   4.191  1.00  0.00     0.162 HD
BRANCH   3   6
HETATM    6  C   UNL     1      42.384 -13.642   2.142  1.00  0.00     0.146 A 
HETATM    7  N   UNL     1      42.477 -12.520   1.396  1.00  0.00    -0.169 NA
HETATM    8  N   UNL     1      41.722 -12.781   0.317  1.00  0.00    -0.281 N 
HETATM    9  C   UNL     1      41.138 -14.019   0.331  1.00  0.00     0.033 A 
HETATM   10  H   UNL     1      41.645 -12.065  -0.398  1.00  0.00     0.189 HD
HETATM   11  C   UNL     1      41.557 -14.603   1.508  1.00  0.00     0.066 A 
BRANCH   9  12
HETATM   12  C   UNL     1      40.256 -14.501  -0.778  1.00  0.00     0.029 C 
HETATM   13  C   UNL     1      41.022 -15.422  -1.730  1.00  0.00     0.016 C 
HETATM   14  C   UNL     1      39.648 -13.323  -1.540  1.00  0.00     0.016 C 
ENDBRANCH   9  12
ENDBRANCH   3   6
ENDBRANCH   1   2
BRANCH   1  15
HETATM   15  C   UNL     1      42.173 -15.790   6.323  1.00  0.00     0.142 C 
BRANCH  15  16
HETATM   16  N   UNL     1      42.515 -16.909   5.461  1.00  0.00    -0.355 N 
HETATM   17  C   UNL     1      43.741 -17.531   5.547  1.00  0.00     0.251 C 
HETATM   18  O   UNL     1      44.616 -17.186   6.332  1.00  0.00    -0.268 OA
HETATM   19  H   UNL     1      41.905 -17.085   4.675  1.00  0.00     0.162 HD
BRANCH  17  20
HETATM   20  C   UNL     1      43.989 -18.655   4.601  1.00  0.00     0.033 A 
HETATM   21  C   UNL     1      44.451 -19.871   5.124  1.00  0.00     0.042 A 
HETATM   22  C   UNL     1      44.686 -20.960   4.279  1.00  0.00     0.056 A 
HETATM   23 CL   UNL     1      45.261 -22.424   4.993  1.00  0.00    -0.083 Cl
HETATM   24  C   UNL     1      44.452 -20.840   2.904  1.00  0.00     0.055 A 
HETATM   25 CL   UNL     1      44.718 -22.141   1.799  1.00  0.00    -0.083 Cl
HETATM   26  C   UNL     1      43.978 -19.633   2.382  1.00  0.00     0.026 A 
HETATM   27  C   UNL     1      43.742 -18.543   3.226  1.00  0.00     0.019 A 
ENDBRANCH  17  20
ENDBRANCH  15  16
ENDBRANCH   1  15
TORSDOF 6
ENDMDL
MODEL 9
REMARK VINA RESULT:      -7.7      4.564     10.280
REMARK  6 active torsions:
REMARK  status: ('A' for Active; 'I' for Inactive)
REMARK    1  A    between atoms: C_2  and  C_3 
REMARK    2  A    between atoms: C_7  and  C_8 
REMARK       I    between atoms: C_8  and  N_9 
REMARK    3  A    between atoms: N_9  and  C_10 
REMARK    4  A    between atoms: C_10  and  C_11 
REMARK    5  A    between atoms: C_11  and  N_12 
REMARK       I    between atoms: N_12  and  C_13 
REMARK    6  A    between atoms: C_13  and  C_14 
ROOT
HETATM    1  C   UNL     1      44.619 -13.995   7.685  1.00  0.00     0.142 C 
ENDROOT
BRANCH   1   2
HETATM    2  N   UNL     1      43.981 -14.679   6.584  1.00  0.00    -0.354 N 
HETATM    3  C   UNL     1      43.389 -15.916   6.717  1.00  0.00     0.272 C 
HETATM    4  O   UNL     1      43.406 -16.563   7.760  1.00  0.00    -0.266 OA
HETATM    5  H   UNL     1      43.840 -14.217   5.689  1.00  0.00     0.162 HD
BRANCH   3   6
HETATM    6  C   UNL     1      42.711 -16.373   5.495  1.00  0.00     0.146 A 
HETATM    7  N   UNL     1      41.380 -16.234   5.318  1.00  0.00    -0.169 NA
HETATM    8  N   UNL     1      41.153 -16.771   4.108  1.00  0.00    -0.281 N 
HETATM    9  C   UNL     1      42.275 -17.258   3.495  1.00  0.00     0.033 A 
HETATM   10  H   UNL     1      40.200 -16.776   3.758  1.00  0.00     0.189 HD
HETATM   11  C   UNL     1      43.306 -17.007   4.376  1.00  0.00     0.066 A 
BRANCH   9  12
HETATM   12  C   UNL     1      42.235 -17.899   2.143  1.00  0.00     0.029 C 
HETATM   13  C   UNL     1      43.516 -17.610   1.358  1.00  0.00     0.016 C 
HETATM   14  C   UNL     1      41.006 -17.439   1.359  1.00  0.00     0.016 C 
ENDBRANCH   9  12
ENDBRANCH   3   6
ENDBRANCH   1   2
BRANCH   1  15
HETATM   15  C   UNL     1      44.253 -12.506   7.736  1.00  0.00     0.142 C 
BRANCH  15  16
HETATM   16  N   UNL     1      43.668 -12.113   9.007  1.00  0.00    -0.355 N 
HETATM   17  C   UNL     1      44.217 -11.103   9.766  1.00  0.00     0.251 C 
HETATM   18  O   UNL     1      45.222 -10.486   9.437  1.00  0.00    -0.268 OA
HETATM   19  H   UNL     1      42.970 -12.729   9.400  1.00  0.00     0.162 HD
BRANCH  17  20
HETATM   20  C   UNL     1      43.543 -10.797  11.060  1.00  0.00     0.033 A 
HETATM   21  C   UNL     1      42.316 -11.419  11.331  1.00  0.00     0.042 A 
HETATM   22  C   UNL     1      41.652 -11.175  12.537  1.00  0.00     0.056 A 
HETATM   23 CL   UNL     1      40.141 -11.971  12.799  1.00  0.00    -0.083 Cl
HETATM   24  C   UNL     1      42.216 -10.311  13.483  1.00  0.00     0.055 A 
HETATM   25 CL   UNL     1      41.455  -9.963  14.994  1.00  0.00    -0.083 Cl
HETATM   26  C   UNL     1      43.447  -9.701  13.220  1.00  0.00     0.026 A 
HETATM   27  C   UNL     1      44.113  -9.946  12.015  1.00  0.00     0.019 A 
ENDBRANCH  17  20
ENDBRANCH  15  16
ENDBRANCH   1  15
TORSDOF 6
ENDMDL
MODEL 10
REMARK VINA RESULT:      -7.5      5.736      9.070
REMARK  6 active torsions:
REMARK  status: ('A' for Active; 'I' for Inactive)
REMARK    1  A    between atoms: C_2  and  C_3 
REMARK    2  A    between atoms: C_7  and  C_8 
REMARK       I    between atoms: C_8  and  N_9 
REMARK    3  A    between atoms: N_9  and  C_10 
REMARK    4  A    between atoms: C_10  and  C_11 
REMARK    5  A    between atoms: C_11  and  N_12 
REMARK       I    between atoms: N_12  and  C_13 
REMARK    6  A    between atoms: C_13  and  C_14 
ROOT
HETATM    1  C   UNL     1      41.888 -15.069   5.514  1.00  0.00     0.142 C 
ENDROOT
BRANCH   1   2
HETATM    2  N   UNL     1      42.646 -16.250   5.167  1.00  0.00    -0.354 N 
HETATM    3  C   UNL     1      42.912 -17.257   6.069  1.00  0.00     0.272 C 
HETATM    4  O   UNL     1      42.584 -17.208   7.251  1.00  0.00    -0.266 OA
HETATM    5  H   UNL     1      42.911 -16.439   4.203  1.00  0.00     0.162 HD
BRANCH   3   6
HETATM    6  C   UNL     1      43.607 -18.407   5.471  1.00  0.00     0.146 A 
HETATM    7  N   UNL     1      44.549 -19.104   6.141  1.00  0.00    -0.169 NA
HETATM    8  N   UNL     1      44.940 -20.047   5.269  1.00  0.00    -0.281 N 
HETATM    9  C   UNL     1      44.298 -19.990   4.062  1.00  0.00     0.033 A 
HETATM   10  H   UNL     1      45.656 -20.703   5.563  1.00  0.00     0.189 HD
HETATM   11  C   UNL     1      43.420 -18.932   4.168  1.00  0.00     0.066 A 
BRANCH   9  12
HETATM   12  C   UNL     1      44.593 -20.951   2.952  1.00  0.00     0.029 C 
HETATM   13  C   UNL     1      43.604 -20.778   1.797  1.00  0.00     0.016 C 
HETATM   14  C   UNL     1      44.580 -22.392   3.463  1.00  0.00     0.016 C 
ENDBRANCH   9  12
ENDBRANCH   3   6
ENDBRANCH   1   2
BRANCH   1  15
HETATM   15  C   UNL     1      40.381 -15.263   5.308  1.00  0.00     0.142 C 
BRANCH  15  16
HETATM   16  N   UNL     1      39.922 -14.783   4.016  1.00  0.00    -0.355 N 
HETATM   17  C   UNL     1      40.115 -15.521   2.869  1.00  0.00     0.251 C 
HETATM   18  O   UNL     1      40.684 -16.605   2.854  1.00  0.00    -0.268 OA
HETATM   19  H   UNL     1      39.636 -13.816   3.961  1.00  0.00     0.162 HD
BRANCH  17  20
HETATM   20  C   UNL     1      39.619 -14.922   1.596  1.00  0.00     0.033 A 
HETATM   21  C   UNL     1      40.489 -14.885   0.499  1.00  0.00     0.042 A 
HETATM   22  C   UNL     1      40.067 -14.347  -0.720  1.00  0.00     0.056 A 
HETATM   23 CL   UNL     1      41.196 -14.330  -2.028  1.00  0.00    -0.083 Cl
HETATM   24  C   UNL     1      38.766 -13.847  -0.849  1.00  0.00     0.055 A 
HETATM   25 CL   UNL     1      38.174 -13.167  -2.323  1.00  0.00    -0.083 Cl
HETATM   26  C   UNL     1      37.892 -13.895   0.241  1.00  0.00     0.026 A 
HETATM   27  C   UNL     1      38.313 -14.434   1.460  1.00  0.00     0.019 A 
ENDBRANCH  17  20
ENDBRANCH  15  16
ENDBRANCH   1  15
TORSDOF 6
ENDMDL
