MODEL 1
REMARK VINA RESULT:      -9.0      0.000      0.000
REMARK  7 active torsions:
REMARK  status: ('A' for Active; 'I' for Inactive)
REMARK    1  A    between atoms: C_11  and  N_12 
REMARK       I    between atoms: N_12  and  C_13 
REMARK    2  A    between atoms: C_13  and  C_14 
REMARK    3  A    between atoms: C_14  and  S_15 
REMARK    4  A    between atoms: S_15  and  C_16 
REMARK    5  A    between atoms: N_17  and  C_18 
REMARK    6  A    between atoms: C_18  and  C_19 
REMARK    7  A    between atoms: C_25  and  C_26 
ROOT
HETATM    1  N   UNL     1      44.285 -14.043   7.730  1.00  0.00    -0.326 N 
HETATM    2  C   UNL     1      45.391 -13.215   7.609  1.00  0.00     0.231 C 
HETATM    3  O   UNL     1      46.190 -13.218   6.675  1.00  0.00    -0.272 OA
HETATM    4  H   UNL     1      43.818 -14.025   8.630  1.00  0.00     0.169 HD
ENDROOT
BRANCH   2   5
HETATM    5  C   UNL     1      45.517 -12.190   8.724  1.00  0.00     0.185 C 
BRANCH   5   6
HETATM    6  S   UNL     1      44.300 -12.474  10.049  1.00  0.00    -0.081 SA
BRANCH   6   7
HETATM    7  C   UNL     1      43.155 -11.235   9.651  1.00  0.00     0.192 A 
HETATM    8  N   UNL     1      42.048 -10.903  10.398  1.00  0.00    -0.307 N 
HETATM    9  C   UNL     1      41.452  -9.865   9.710  1.00  0.00     0.135 A 
HETATM   10  N   UNL     1      42.169  -9.611   8.630  1.00  0.00    -0.134 NA
HETATM   11  N   UNL     1      43.223 -10.476   8.586  1.00  0.00    -0.123 NA
BRANCH   8  12
HETATM   12  C   UNL     1      41.705 -11.451  11.697  1.00  0.00     0.171 C 
BRANCH  12  13
HETATM   13  C   UNL     1      42.111 -10.592  12.872  1.00  0.00    -0.040 A 
HETATM   14  C   UNL     1      43.257  -9.781  12.866  1.00  0.00     0.009 A 
HETATM   15  C   UNL     1      43.577  -8.994  13.974  1.00  0.00     0.001 A 
HETATM   16  C   UNL     1      42.751  -8.989  15.094  1.00  0.00     0.000 A 
HETATM   17  C   UNL     1      41.596  -9.765  15.106  1.00  0.00     0.001 A 
HETATM   18  C   UNL     1      41.275 -10.557  14.001  1.00  0.00     0.009 A 
ENDBRANCH  12  13
ENDBRANCH   8  12
BRANCH   9  19
HETATM   19  C   UNL     1      40.204  -9.022   9.946  1.00  0.00     0.057 A 
HETATM   20  C   UNL     1      39.988  -8.317  11.264  1.00  0.00     0.013 A 
HETATM   21  C   UNL     1      40.202  -7.516  10.023  1.00  0.00     0.013 A 
ENDBRANCH   9  19
ENDBRANCH   6   7
ENDBRANCH   5   6
ENDBRANCH   2   5
BRANCH   1  22
HETATM   22  C   UNL     1      43.810 -14.976   6.785  1.00  0.00     0.037 A 
HETATM   23  C   UNL     1      42.729 -14.732   5.933  1.00  0.00     0.032 A 
HETATM   24  C   UNL     1      42.292 -15.712   5.035  1.00  0.00     0.041 A 
HETATM   25  C   UNL     1      42.944 -16.939   4.967  1.00  0.00     0.096 A 
HETATM   26  O   UNL     1      42.440 -17.847   4.082  1.00  0.00    -0.335 OA
HETATM   27  C   UNL     1      44.021 -17.193   5.815  1.00  0.00     0.070 A 
HETATM   28  C   UNL     1      43.290 -18.956   3.802  1.00  0.00     0.217 C 
HETATM   29  C   UNL     1      44.010 -18.678   2.484  1.00  0.00     0.050 C 
HETATM   30  C   UNL     1      44.319 -19.387   4.856  1.00  0.00     0.251 C 
HETATM   31  N   UNL     1      44.664 -18.430   5.771  1.00  0.00    -0.323 N 
HETATM   32  O   UNL     1      44.868 -20.487   4.855  1.00  0.00    -0.270 OA
HETATM   33  H   UNL     1      45.392 -18.671   6.429  1.00  0.00     0.169 HD
HETATM   34  C   UNL     1      44.448 -16.223   6.729  1.00  0.00     0.062 A 
ENDBRANCH   1  22
TORSDOF 7
ENDMDL
MODEL 2
REMARK VINA RESULT:      -8.8      4.044     10.452
REMARK  7 active torsions:
REMARK  status: ('A' for Active; 'I' for Inactive)
REMARK    1  A    between atoms: C_11  and  N_12 
REMARK       I    between atoms: N_12  and  C_13 
REMARK    2  A    between atoms: C_13  and  C_14 
REMARK    3  A    between atoms: C_14  and  S_15 
REMARK    4  A    between atoms: S_15  and  C_16 
REMARK    5  A    between atoms: N_17  and  C_18 
REMARK    6  A    between atoms: C_18  and  C_19 
REMARK    7  A    between atoms: C_25  and  C_26 
ROOT
HETATM    1  N   UNL     1      39.567 -14.091   3.816  1.00  0.00    -0.326 N 
HETATM    2  C   UNL     1      40.024 -14.344   2.531  1.00  0.00     0.231 C 
HETATM    3  O   UNL     1      40.595 -13.538   1.802  1.00  0.00    -0.272 OA
HETATM    4  H   UNL     1      38.979 -14.810   4.223  1.00  0.00     0.169 HD
ENDROOT
BRANCH   2   5
HETATM    5  C   UNL     1      39.836 -15.785   2.084  1.00  0.00     0.185 C 
BRANCH   5   6
HETATM    6  S   UNL     1      41.422 -16.672   1.968  1.00  0.00    -0.081 SA
BRANCH   6   7
HETATM    7  C   UNL     1      41.655 -17.057   3.642  1.00  0.00     0.192 A 
HETATM    8  N   UNL     1      42.746 -17.712   4.166  1.00  0.00    -0.307 N 
HETATM    9  C   UNL     1      42.504 -17.779   5.523  1.00  0.00     0.135 A 
HETATM   10  N   UNL     1      41.343 -17.199   5.771  1.00  0.00    -0.134 NA
HETATM   11  N   UNL     1      40.807 -16.762   4.596  1.00  0.00    -0.123 NA
BRANCH   8  12
HETATM   12  C   UNL     1      43.938 -18.095   3.432  1.00  0.00     0.171 C 
BRANCH  12  13
HETATM   13  C   UNL     1      44.058 -19.575   3.152  1.00  0.00    -0.040 A 
HETATM   14  C   UNL     1      43.607 -20.167   1.962  1.00  0.00     0.009 A 
HETATM   15  C   UNL     1      43.758 -21.539   1.748  1.00  0.00     0.001 A 
HETATM   16  C   UNL     1      44.379 -22.335   2.706  1.00  0.00     0.000 A 
HETATM   17  C   UNL     1      44.857 -21.760   3.880  1.00  0.00     0.001 A 
HETATM   18  C   UNL     1      44.705 -20.389   4.099  1.00  0.00     0.009 A 
ENDBRANCH  12  13
ENDBRANCH   8  12
BRANCH   9  19
HETATM   19  C   UNL     1      43.271 -18.362   6.704  1.00  0.00     0.057 A 
HETATM   20  C   UNL     1      44.657 -17.865   7.044  1.00  0.00     0.013 A 
HETATM   21  C   UNL     1      43.531 -17.624   7.993  1.00  0.00     0.013 A 
ENDBRANCH   9  19
ENDBRANCH   6   7
ENDBRANCH   5   6
ENDBRANCH   2   5
BRANCH   1  22
HETATM   22  C   UNL     1      39.740 -12.909   4.566  1.00  0.00     0.037 A 
HETATM   23  C   UNL     1      38.963 -11.761   4.391  1.00  0.00     0.032 A 
HETATM   24  C   UNL     1      39.205 -10.612   5.152  1.00  0.00     0.041 A 
HETATM   25  C   UNL     1      40.215 -10.606   6.108  1.00  0.00     0.096 A 
HETATM   26  O   UNL     1      40.400  -9.438   6.789  1.00  0.00    -0.335 OA
HETATM   27  C   UNL     1      40.998 -11.745   6.288  1.00  0.00     0.070 A 
HETATM   28  C   UNL     1      41.208  -9.541   7.959  1.00  0.00     0.217 C 
HETATM   29  C   UNL     1      40.278  -9.627   9.168  1.00  0.00     0.050 C 
HETATM   30  C   UNL     1      42.250 -10.665   8.045  1.00  0.00     0.251 C 
HETATM   31  N   UNL     1      42.029 -11.739   7.227  1.00  0.00    -0.323 N 
HETATM   32  O   UNL     1      43.187 -10.659   8.840  1.00  0.00    -0.270 OA
HETATM   33  H   UNL     1      42.663 -12.521   7.320  1.00  0.00     0.169 HD
HETATM   34  C   UNL     1      40.772 -12.890   5.515  1.00  0.00     0.062 A 
ENDBRANCH   1  22
TORSDOF 7
ENDMDL
MODEL 3
REMARK VINA RESULT:      -8.8      5.888      9.696
REMARK  7 active torsions:
REMARK  status: ('A' for Active; 'I' for Inactive)
REMARK    1  A    between atoms: C_11  and  N_12 
REMARK       I    between atoms: N_12  and  C_13 
REMARK    2  A    between atoms: C_13  and  C_14 
REMARK    3  A    between atoms: C_14  and  S_15 
REMARK    4  A    between atoms: S_15  and  C_16 
REMARK    5  A    between atoms: N_17  and  C_18 
REMARK    6  A    between atoms: C_18  and  C_19 
REMARK    7  A    between atoms: C_25  and  C_26 
ROOT
HETATM    1  N   UNL     1      40.944 -13.183   2.113  1.00  0.00    -0.326 N 
HETATM    2  C   UNL     1      42.095 -13.188   2.887  1.00  0.00     0.231 C 
HETATM    3  O   UNL     1      43.213 -13.526   2.507  1.00  0.00    -0.272 OA
HETATM    4  H   UNL     1      40.077 -13.029   2.615  1.00  0.00     0.169 HD
ENDROOT
BRANCH   2   5
HETATM    5  C   UNL     1      41.893 -12.644   4.292  1.00  0.00     0.185 C 
BRANCH   5   6
HETATM    6  S   UNL     1      41.121 -13.872   5.393  1.00  0.00    -0.081 SA
BRANCH   6   7
HETATM    7  C   UNL     1      42.543 -14.708   5.926  1.00  0.00     0.192 A 
HETATM    8  N   UNL     1      42.785 -16.052   5.762  1.00  0.00    -0.307 N 
HETATM    9  C   UNL     1      44.030 -16.261   6.320  1.00  0.00     0.135 A 
HETATM   10  N   UNL     1      44.482 -15.108   6.780  1.00  0.00    -0.134 NA
HETATM   11  N   UNL     1      43.547 -14.142   6.548  1.00  0.00    -0.123 NA
BRANCH   8  12
HETATM   12  C   UNL     1      41.951 -16.982   5.022  1.00  0.00     0.171 C 
BRANCH  12  13
HETATM   13  C   UNL     1      42.172 -16.976   3.527  1.00  0.00    -0.040 A 
HETATM   14  C   UNL     1      43.447 -17.031   2.942  1.00  0.00     0.009 A 
HETATM   15  C   UNL     1      43.593 -17.039   1.553  1.00  0.00     0.001 A 
HETATM   16  C   UNL     1      42.472 -17.014   0.730  1.00  0.00     0.000 A 
HETATM   17  C   UNL     1      41.199 -16.987   1.292  1.00  0.00     0.001 A 
HETATM   18  C   UNL     1      41.049 -16.975   2.681  1.00  0.00     0.009 A 
ENDBRANCH  12  13
ENDBRANCH   8  12
BRANCH   9  19
HETATM   19  C   UNL     1      44.916 -17.489   6.497  1.00  0.00     0.057 A 
HETATM   20  C   UNL     1      44.482 -18.630   7.386  1.00  0.00     0.013 A 
HETATM   21  C   UNL     1      44.609 -18.845   5.915  1.00  0.00     0.013 A 
ENDBRANCH   9  19
ENDBRANCH   6   7
ENDBRANCH   5   6
ENDBRANCH   2   5
BRANCH   1  22
HETATM   22  C   UNL     1      40.842 -13.471   0.736  1.00  0.00     0.037 A 
HETATM   23  C   UNL     1      41.928 -13.446  -0.143  1.00  0.00     0.032 A 
HETATM   24  C   UNL     1      41.752 -13.718  -1.504  1.00  0.00     0.041 A 
HETATM   25  C   UNL     1      40.491 -14.036  -1.996  1.00  0.00     0.096 A 
HETATM   26  O   UNL     1      40.402 -14.265  -3.339  1.00  0.00    -0.335 OA
HETATM   27  C   UNL     1      39.400 -14.061  -1.129  1.00  0.00     0.070 A 
HETATM   28  C   UNL     1      39.193 -14.886  -3.769  1.00  0.00     0.217 C 
HETATM   29  C   UNL     1      39.467 -16.378  -3.944  1.00  0.00     0.050 C 
HETATM   30  C   UNL     1      37.924 -14.702  -2.926  1.00  0.00     0.251 C 
HETATM   31  N   UNL     1      38.128 -14.355  -1.619  1.00  0.00    -0.323 N 
HETATM   32  O   UNL     1      36.791 -14.919  -3.352  1.00  0.00    -0.270 OA
HETATM   33  H   UNL     1      37.309 -14.299  -1.029  1.00  0.00     0.169 HD
HETATM   34  C   UNL     1      39.569 -13.770   0.230  1.00  0.00     0.062 A 
ENDBRANCH   1  22
TORSDOF 7
ENDMDL
MODEL 4
REMARK VINA RESULT:      -8.7      7.203     10.478
REMARK  7 active torsions:
REMARK  status: ('A' for Active; 'I' for Inactive)
REMARK    1  A    between atoms: C_11  and  N_12 
REMARK       I    between atoms: N_12  and  C_13 
REMARK    2  A    between atoms: C_13  and  C_14 
REMARK    3  A    between atoms: C_14  and  S_15 
REMARK    4  A    between atoms: S_15  and  C_16 
REMARK    5  A    between atoms: N_17  and  C_18 
REMARK    6  A    between atoms: C_18  and  C_19 
REMARK    7  A    between atoms: C_25  and  C_26 
ROOT
HETATM    1  N   UNL     1      41.651 -16.125   3.547  1.00  0.00    -0.326 N 
HETATM    2  C   UNL     1      40.790 -15.495   4.433  1.00  0.00     0.231 C 
HETATM    3  O   UNL     1      40.631 -15.794   5.614  1.00  0.00    -0.272 OA
HETATM    4  H   UNL     1      41.549 -15.863   2.572  1.00  0.00     0.169 HD
ENDROOT
BRANCH   2   5
HETATM    5  C   UNL     1      40.071 -14.293   3.842  1.00  0.00     0.185 C 
BRANCH   5   6
HETATM    6  S   UNL     1      39.511 -14.606   2.137  1.00  0.00    -0.081 SA
BRANCH   6   7
HETATM    7  C   UNL     1      40.644 -13.611   1.280  1.00  0.00     0.192 A 
HETATM    8  N   UNL     1      40.450 -13.082   0.026  1.00  0.00    -0.307 N 
HETATM    9  C   UNL     1      41.596 -12.357  -0.237  1.00  0.00     0.135 A 
HETATM   10  N   UNL     1      42.405 -12.462   0.803  1.00  0.00    -0.134 NA
HETATM   11  N   UNL     1      41.817 -13.256   1.742  1.00  0.00    -0.123 NA
BRANCH   8  12
HETATM   12  C   UNL     1      39.228 -13.168  -0.753  1.00  0.00     0.171 C 
BRANCH  12  13
HETATM   13  C   UNL     1      39.265 -14.177  -1.876  1.00  0.00    -0.040 A 
HETATM   14  C   UNL     1      40.365 -15.014  -2.117  1.00  0.00     0.009 A 
HETATM   15  C   UNL     1      40.340 -15.942  -3.161  1.00  0.00     0.001 A 
HETATM   16  C   UNL     1      39.211 -16.061  -3.966  1.00  0.00     0.000 A 
HETATM   17  C   UNL     1      38.100 -15.257  -3.725  1.00  0.00     0.001 A 
HETATM   18  C   UNL     1      38.124 -14.327  -2.684  1.00  0.00     0.009 A 
ENDBRANCH  12  13
ENDBRANCH   8  12
BRANCH   9  19
HETATM   19  C   UNL     1      42.069 -11.523  -1.422  1.00  0.00     0.057 A 
HETATM   20  C   UNL     1      42.788 -12.171  -2.582  1.00  0.00     0.013 A 
HETATM   21  C   UNL     1      41.441 -11.565  -2.791  1.00  0.00     0.013 A 
ENDBRANCH   9  19
ENDBRANCH   6   7
ENDBRANCH   5   6
ENDBRANCH   2   5
BRANCH   1  22
HETATM   22  C   UNL     1      42.569 -17.156   3.837  1.00  0.00     0.037 A 
HETATM   23  C   UNL     1      43.430 -17.138   4.938  1.00  0.00     0.032 A 
HETATM   24  C   UNL     1      44.334 -18.184   5.153  1.00  0.00     0.041 A 
HETATM   25  C   UNL     1      44.374 -19.266   4.281  1.00  0.00     0.096 A 
HETATM   26  O   UNL     1      45.301 -20.231   4.550  1.00  0.00    -0.335 OA
HETATM   27  C   UNL     1      43.521 -19.292   3.178  1.00  0.00     0.070 A 
HETATM   28  C   UNL     1      45.120 -21.457   3.846  1.00  0.00     0.217 C 
HETATM   29  C   UNL     1      44.421 -22.440   4.784  1.00  0.00     0.050 C 
HETATM   30  C   UNL     1      44.386 -21.439   2.498  1.00  0.00     0.251 C 
HETATM   31  N   UNL     1      43.572 -20.360   2.284  1.00  0.00    -0.323 N 
HETATM   32  O   UNL     1      44.449 -22.355   1.681  1.00  0.00    -0.270 OA
HETATM   33  H   UNL     1      43.025 -20.365   1.434  1.00  0.00     0.169 HD
HETATM   34  C   UNL     1      42.629 -18.238   2.947  1.00  0.00     0.062 A 
ENDBRANCH   1  22
TORSDOF 7
ENDMDL
MODEL 5
REMARK VINA RESULT:      -8.7      2.565      3.574
REMARK  7 active torsions:
REMARK  status: ('A' for Active; 'I' for Inactive)
REMARK    1  A    between atoms: C_11  and  N_12 
REMARK       I    between atoms: N_12  and  C_13 
REMARK    2  A    between atoms: C_13  and  C_14 
REMARK    3  A    between atoms: C_14  and  S_15 
REMARK    4  A    between atoms: S_15  and  C_16 
REMARK    5  A    between atoms: N_17  and  C_18 
REMARK    6  A    between atoms: C_18  and  C_19 
REMARK    7  A    between atoms: C_25  and  C_26 
ROOT
HETATM    1  N   UNL     1      40.168 -13.652   6.642  1.00  0.00    -0.326 N 
HETATM    2  C   UNL     1      39.320 -12.559   6.742  1.00  0.00     0.231 C 
HETATM    3  O   UNL     1      38.709 -12.038   5.813  1.00  0.00    -0.272 OA
HETATM    4  H   UNL     1      40.715 -13.862   7.469  1.00  0.00     0.169 HD
ENDROOT
BRANCH   2   5
HETATM    5  C   UNL     1      39.117 -12.067   8.166  1.00  0.00     0.185 C 
BRANCH   5   6
HETATM    6  S   UNL     1      39.575 -10.315   8.352  1.00  0.00    -0.081 SA
BRANCH   6   7
HETATM    7  C   UNL     1      41.249 -10.503   8.764  1.00  0.00     0.192 A 
HETATM    8  N   UNL     1      41.741 -10.690  10.035  1.00  0.00    -0.307 N 
HETATM    9  C   UNL     1      43.107 -10.804   9.875  1.00  0.00     0.135 A 
HETATM   10  N   UNL     1      43.390 -10.689   8.590  1.00  0.00    -0.134 NA
HETATM   11  N   UNL     1      42.232 -10.486   7.898  1.00  0.00    -0.123 NA
BRANCH   8  12
HETATM   12  C   UNL     1      40.945 -10.873  11.234  1.00  0.00     0.171 C 
BRANCH  12  13
HETATM   13  C   UNL     1      41.424 -10.092  12.435  1.00  0.00    -0.040 A 
HETATM   14  C   UNL     1      41.446  -8.689  12.476  1.00  0.00     0.009 A 
HETATM   15  C   UNL     1      41.884  -8.016  13.619  1.00  0.00     0.001 A 
HETATM   16  C   UNL     1      42.286  -8.732  14.743  1.00  0.00     0.000 A 
HETATM   17  C   UNL     1      42.245 -10.123  14.731  1.00  0.00     0.001 A 
HETATM   18  C   UNL     1      41.811 -10.799  13.588  1.00  0.00     0.009 A 
ENDBRANCH  12  13
ENDBRANCH   8  12
BRANCH   9  19
HETATM   19  C   UNL     1      44.268 -11.017  10.840  1.00  0.00     0.057 A 
HETATM   20  C   UNL     1      44.526 -12.375  11.448  1.00  0.00     0.013 A 
HETATM   21  C   UNL     1      45.519 -11.788  10.503  1.00  0.00     0.013 A 
ENDBRANCH   9  19
ENDBRANCH   6   7
ENDBRANCH   5   6
ENDBRANCH   2   5
BRANCH   1  22
HETATM   22  C   UNL     1      40.427 -14.428   5.492  1.00  0.00     0.037 A 
HETATM   23  C   UNL     1      39.881 -14.154   4.235  1.00  0.00     0.032 A 
HETATM   24  C   UNL     1      40.160 -14.980   3.141  1.00  0.00     0.041 A 
HETATM   25  C   UNL     1      41.002 -16.076   3.288  1.00  0.00     0.096 A 
HETATM   26  O   UNL     1      41.203 -16.843   2.177  1.00  0.00    -0.335 OA
HETATM   27  C   UNL     1      41.550 -16.360   4.539  1.00  0.00     0.070 A 
HETATM   28  C   UNL     1      42.293 -17.758   2.261  1.00  0.00     0.217 C 
HETATM   29  C   UNL     1      43.490 -17.132   1.549  1.00  0.00     0.050 C 
HETATM   30  C   UNL     1      42.736 -18.260   3.643  1.00  0.00     0.251 C 
HETATM   31  N   UNL     1      42.375 -17.471   4.701  1.00  0.00    -0.323 N 
HETATM   32  O   UNL     1      43.432 -19.260   3.808  1.00  0.00    -0.270 OA
HETATM   33  H   UNL     1      42.719 -17.747   5.611  1.00  0.00     0.169 HD
HETATM   34  C   UNL     1      41.257 -15.548   5.641  1.00  0.00     0.062 A 
ENDBRANCH   1  22
TORSDOF 7
ENDMDL
MODEL 6
REMARK VINA RESULT:      -8.7      3.117     10.193
REMARK  7 active torsions:
REMARK  status: ('A' for Active; 'I' for Inactive)
REMARK    1  A    between atoms: C_11  and  N_12 
REMARK       I    between atoms: N_12  and  C_13 
REMARK    2  A    between atoms: C_13  and  C_14 
REMARK    3  A    between atoms: C_14  and  S_15 
REMARK    4  A    between atoms: S_15  and  C_16 
REMARK    5  A    between atoms: N_17  and  C_18 
REMARK    6  A    between atoms: C_18  and  C_19 
REMARK    7  A    between atoms: C_25  and  C_26 
ROOT
HETATM    1  N   UNL     1      43.661 -12.449   7.739  1.00  0.00    -0.326 N 
HETATM    2  C   UNL     1      44.861 -13.119   7.931  1.00  0.00     0.231 C 
HETATM    3  O   UNL     1      45.667 -12.903   8.832  1.00  0.00    -0.272 OA
HETATM    4  H   UNL     1      43.187 -12.637   6.863  1.00  0.00     0.169 HD
ENDROOT
BRANCH   2   5
HETATM    5  C   UNL     1      45.093 -14.256   6.949  1.00  0.00     0.185 C 
BRANCH   5   6
HETATM    6  S   UNL     1      43.563 -15.182   6.607  1.00  0.00    -0.081 SA
BRANCH   6   7
HETATM    7  C   UNL     1      43.338 -14.750   4.942  1.00  0.00     0.192 A 
HETATM    8  N   UNL     1      42.753 -15.546   3.985  1.00  0.00    -0.307 N 
HETATM    9  C   UNL     1      42.776 -14.790   2.830  1.00  0.00     0.135 A 
HETATM   10  N   UNL     1      43.341 -13.627   3.102  1.00  0.00    -0.134 NA
HETATM   11  N   UNL     1      43.705 -13.608   4.416  1.00  0.00    -0.123 NA
BRANCH   8  12
HETATM   12  C   UNL     1      42.125 -16.833   4.218  1.00  0.00     0.171 C 
BRANCH  12  13
HETATM   13  C   UNL     1      42.934 -18.023   3.759  1.00  0.00    -0.040 A 
HETATM   14  C   UNL     1      43.839 -18.700   4.592  1.00  0.00     0.009 A 
HETATM   15  C   UNL     1      44.550 -19.806   4.120  1.00  0.00     0.001 A 
HETATM   16  C   UNL     1      44.355 -20.264   2.821  1.00  0.00     0.000 A 
HETATM   17  C   UNL     1      43.442 -19.622   1.990  1.00  0.00     0.001 A 
HETATM   18  C   UNL     1      42.731 -18.513   2.457  1.00  0.00     0.009 A 
ENDBRANCH  12  13
ENDBRANCH   8  12
BRANCH   9  19
HETATM   19  C   UNL     1      42.310 -15.033   1.399  1.00  0.00     0.057 A 
HETATM   20  C   UNL     1      40.846 -15.249   1.092  1.00  0.00     0.013 A 
HETATM   21  C   UNL     1      41.539 -14.031   0.578  1.00  0.00     0.013 A 
ENDBRANCH   9  19
ENDBRANCH   6   7
ENDBRANCH   5   6
ENDBRANCH   2   5
BRANCH   1  22
HETATM   22  C   UNL     1      43.091 -11.465   8.574  1.00  0.00     0.037 A 
HETATM   23  C   UNL     1      42.078 -10.594   8.162  1.00  0.00     0.032 A 
HETATM   24  C   UNL     1      41.574  -9.623   9.034  1.00  0.00     0.041 A 
HETATM   25  C   UNL     1      42.065  -9.525  10.331  1.00  0.00     0.096 A 
HETATM   26  O   UNL     1      41.536  -8.535  11.109  1.00  0.00    -0.335 OA
HETATM   27  C   UNL     1      43.078 -10.386  10.751  1.00  0.00     0.070 A 
HETATM   28  C   UNL     1      41.814  -8.646  12.502  1.00  0.00     0.217 C 
HETATM   29  C   UNL     1      40.595  -9.270  13.178  1.00  0.00     0.050 C 
HETATM   30  C   UNL     1      43.077  -9.395  12.950  1.00  0.00     0.251 C 
HETATM   31  N   UNL     1      43.594 -10.278  12.041  1.00  0.00    -0.323 N 
HETATM   32  O   UNL     1      43.568  -9.283  14.072  1.00  0.00    -0.270 OA
HETATM   33  H   UNL     1      44.382 -10.833  12.344  1.00  0.00     0.169 HD
HETATM   34  C   UNL     1      43.599 -11.346   9.875  1.00  0.00     0.062 A 
ENDBRANCH   1  22
TORSDOF 7
ENDMDL
MODEL 7
REMARK VINA RESULT:      -8.6      5.533      8.227
REMARK  7 active torsions:
REMARK  status: ('A' for Active; 'I' for Inactive)
REMARK    1  A    between atoms: C_11  and  N_12 
REMARK       I    between atoms: N_12  and  C_13 
REMARK    2  A    between atoms: C_13  and  C_14 
REMARK    3  A    between atoms: C_14  and  S_15 
REMARK    4  A    between atoms: S_15  and  C_16 
REMARK    5  A    between atoms: N_17  and  C_18 
REMARK    6  A    between atoms: C_18  and  C_19 
REMARK    7  A    between atoms: C_25  and  C_26 
ROOT
HETATM    1  N   UNL     1      42.382 -15.639   5.970  1.00  0.00    -0.326 N 
HETATM    2  C   UNL     1      42.582 -14.341   5.522  1.00  0.00     0.231 C 
HETATM    3  O   UNL     1      43.565 -13.939   4.906  1.00  0.00    -0.272 OA
HETATM    4  H   UNL     1      41.596 -15.771   6.598  1.00  0.00     0.169 HD
ENDROOT
BRANCH   2   5
HETATM    5  C   UNL     1      41.407 -13.412   5.784  1.00  0.00     0.185 C 
BRANCH   5   6
HETATM    6  S   UNL     1      41.611 -11.807   4.949  1.00  0.00    -0.081 SA
BRANCH   6   7
HETATM    7  C   UNL     1      40.307 -11.912   3.811  1.00  0.00     0.192 A 
HETATM    8  N   UNL     1      40.386 -12.476   2.559  1.00  0.00    -0.307 N 
HETATM    9  C   UNL     1      39.118 -12.349   2.030  1.00  0.00     0.135 A 
HETATM   10  N   UNL     1      38.350 -11.747   2.921  1.00  0.00    -0.134 NA
HETATM   11  N   UNL     1      39.097 -11.461   4.026  1.00  0.00    -0.123 NA
BRANCH   8  12
HETATM   12  C   UNL     1      41.535 -13.176   2.014  1.00  0.00     0.171 C 
BRANCH  12  13
HETATM   13  C   UNL     1      41.296 -14.635   1.702  1.00  0.00    -0.040 A 
HETATM   14  C   UNL     1      41.834 -15.274   0.575  1.00  0.00     0.009 A 
HETATM   15  C   UNL     1      41.595 -16.631   0.343  1.00  0.00     0.001 A 
HETATM   16  C   UNL     1      40.834 -17.372   1.242  1.00  0.00     0.000 A 
HETATM   17  C   UNL     1      40.315 -16.761   2.380  1.00  0.00     0.001 A 
HETATM   18  C   UNL     1      40.549 -15.404   2.612  1.00  0.00     0.009 A 
ENDBRANCH  12  13
ENDBRANCH   8  12
BRANCH   9  19
HETATM   19  C   UNL     1      38.484 -12.740   0.700  1.00  0.00     0.057 A 
HETATM   20  C   UNL     1      37.730 -14.041   0.559  1.00  0.00     0.013 A 
HETATM   21  C   UNL     1      37.000 -12.746   0.437  1.00  0.00     0.013 A 
ENDBRANCH   9  19
ENDBRANCH   6   7
ENDBRANCH   5   6
ENDBRANCH   2   5
BRANCH   1  22
HETATM   22  C   UNL     1      43.208 -16.758   5.737  1.00  0.00     0.037 A 
HETATM   23  C   UNL     1      44.267 -17.125   6.572  1.00  0.00     0.032 A 
HETATM   24  C   UNL     1      45.064 -18.234   6.268  1.00  0.00     0.041 A 
HETATM   25  C   UNL     1      44.798 -18.998   5.138  1.00  0.00     0.096 A 
HETATM   26  O   UNL     1      45.637 -20.049   4.902  1.00  0.00    -0.335 OA
HETATM   27  C   UNL     1      43.745 -18.639   4.297  1.00  0.00     0.070 A 
HETATM   28  C   UNL     1      45.172 -20.990   3.937  1.00  0.00     0.217 C 
HETATM   29  C   UNL     1      44.562 -22.172   4.688  1.00  0.00     0.050 C 
HETATM   30  C   UNL     1      44.191 -20.521   2.854  1.00  0.00     0.251 C 
HETATM   31  N   UNL     1      43.487 -19.385   3.148  1.00  0.00    -0.323 N 
HETATM   32  O   UNL     1      43.979 -21.146   1.817  1.00  0.00    -0.270 OA
HETATM   33  H   UNL     1      42.785 -19.100   2.479  1.00  0.00     0.169 HD
HETATM   34  C   UNL     1      42.958 -17.518   4.586  1.00  0.00     0.062 A 
ENDBRANCH   1  22
TORSDOF 7
ENDMDL
MODEL 8
REMARK VINA RESULT:      -8.5      7.443     11.067
REMARK  7 active torsions:
REMARK  status: ('A' for Active; 'I' for Inactive)
REMARK    1  A    between atoms: C_11  and  N_12 
REMARK       I    between atoms: N_12  and  C_13 
REMARK    2  A    between atoms: C_13  and  C_14 
REMARK    3  A    between atoms: C_14  and  S_15 
REMARK    4  A    between atoms: S_15  and  C_16 
REMARK    5  A    between atoms: N_17  and  C_18 
REMARK    6  A    between atoms: C_18  and  C_19 
REMARK    7  A    between atoms: C_25  and  C_26 
ROOT
HETATM    1  N   UNL     1      41.213 -14.521   0.872  1.00  0.00    -0.326 N 
HETATM    2  C   UNL     1      39.922 -14.699   1.346  1.00  0.00     0.231 C 
HETATM    3  O   UNL     1      38.976 -13.939   1.153  1.00  0.00    -0.272 OA
HETATM    4  H   UNL     1      41.911 -15.152   1.249  1.00  0.00     0.169 HD
ENDROOT
BRANCH   2   5
HETATM    5  C   UNL     1      39.716 -16.006   2.094  1.00  0.00     0.185 C 
BRANCH   5   6
HETATM    6  S   UNL     1      41.189 -17.075   2.014  1.00  0.00    -0.081 SA
BRANCH   6   7
HETATM    7  C   UNL     1      41.653 -17.042   3.684  1.00  0.00     0.192 A 
HETATM    8  N   UNL     1      42.866 -17.458   4.182  1.00  0.00    -0.307 N 
HETATM    9  C   UNL     1      42.790 -17.232   5.542  1.00  0.00     0.135 A 
HETATM   10  N   UNL     1      41.604 -16.717   5.815  1.00  0.00    -0.134 NA
HETATM   11  N   UNL     1      40.890 -16.612   4.658  1.00  0.00    -0.123 NA
BRANCH   8  12
HETATM   12  C   UNL     1      44.004 -17.891   3.393  1.00  0.00     0.171 C 
BRANCH  12  13
HETATM   13  C   UNL     1      44.052 -19.375   3.115  1.00  0.00    -0.040 A 
HETATM   14  C   UNL     1      43.512 -19.953   1.955  1.00  0.00     0.009 A 
HETATM   15  C   UNL     1      43.597 -21.331   1.740  1.00  0.00     0.001 A 
HETATM   16  C   UNL     1      44.239 -22.147   2.667  1.00  0.00     0.000 A 
HETATM   17  C   UNL     1      44.805 -21.587   3.809  1.00  0.00     0.001 A 
HETATM   18  C   UNL     1      44.718 -20.211   4.029  1.00  0.00     0.009 A 
ENDBRANCH  12  13
ENDBRANCH   8  12
BRANCH   9  19
HETATM   19  C   UNL     1      43.749 -17.456   6.705  1.00  0.00     0.057 A 
HETATM   20  C   UNL     1      44.136 -18.855   7.126  1.00  0.00     0.013 A 
HETATM   21  C   UNL     1      45.168 -17.943   6.551  1.00  0.00     0.013 A 
ENDBRANCH   9  19
ENDBRANCH   6   7
ENDBRANCH   5   6
ENDBRANCH   2   5
BRANCH   1  22
HETATM   22  C   UNL     1      41.674 -13.500   0.014  1.00  0.00     0.037 A 
HETATM   23  C   UNL     1      41.850 -13.668  -1.362  1.00  0.00     0.032 A 
HETATM   24  C   UNL     1      42.335 -12.620  -2.152  1.00  0.00     0.041 A 
HETATM   25  C   UNL     1      42.633 -11.390  -1.576  1.00  0.00     0.096 A 
HETATM   26  O   UNL     1      43.124 -10.429  -2.413  1.00  0.00    -0.335 OA
HETATM   27  C   UNL     1      42.464 -11.214  -0.204  1.00  0.00     0.070 A 
HETATM   28  C   UNL     1      43.125  -9.106  -1.882  1.00  0.00     0.217 C 
HETATM   29  C   UNL     1      41.898  -8.379  -2.427  1.00  0.00     0.050 C 
HETATM   30  C   UNL     1      43.188  -8.918  -0.360  1.00  0.00     0.251 C 
HETATM   31  N   UNL     1      42.784  -9.991   0.386  1.00  0.00    -0.323 N 
HETATM   32  O   UNL     1      43.505  -7.858   0.178  1.00  0.00    -0.270 OA
HETATM   33  H   UNL     1      42.750  -9.862   1.388  1.00  0.00     0.169 HD
HETATM   34  C   UNL     1      41.998 -12.265   0.593  1.00  0.00     0.062 A 
ENDBRANCH   1  22
TORSDOF 7
ENDMDL
MODEL 9
REMARK VINA RESULT:      -8.5      7.582     10.808
REMARK  7 active torsions:
REMARK  status: ('A' for Active; 'I' for Inactive)
REMARK    1  A    between atoms: C_11  and  N_12 
REMARK       I    between atoms: N_12  and  C_13 
REMARK    2  A    between atoms: C_13  and  C_14 
REMARK    3  A    between atoms: C_14  and  S_15 
REMARK    4  A    between atoms: S_15  and  C_16 
REMARK    5  A    between atoms: N_17  and  C_18 
REMARK    6  A    between atoms: C_18  and  C_19 
REMARK    7  A    between atoms: C_25  and  C_26 
ROOT
HETATM    1  N   UNL     1      41.397 -16.287   3.726  1.00  0.00    -0.326 N 
HETATM    2  C   UNL     1      41.324 -15.428   2.640  1.00  0.00     0.231 C 
HETATM    3  O   UNL     1      42.160 -15.331   1.745  1.00  0.00    -0.272 OA
HETATM    4  H   UNL     1      40.709 -16.133   4.455  1.00  0.00     0.169 HD
ENDROOT
BRANCH   2   5
HETATM    5  C   UNL     1      40.035 -14.624   2.577  1.00  0.00     0.185 C 
BRANCH   5   6
HETATM    6  S   UNL     1      40.245 -13.075   1.641  1.00  0.00    -0.081 SA
BRANCH   6   7
HETATM    7  C   UNL     1      39.399 -13.505   0.190  1.00  0.00     0.192 A 
HETATM    8  N   UNL     1      39.980 -13.723  -1.037  1.00  0.00    -0.307 N 
HETATM    9  C   UNL     1      38.933 -14.051  -1.875  1.00  0.00     0.135 A 
HETATM   10  N   UNL     1      37.813 -14.024  -1.176  1.00  0.00    -0.134 NA
HETATM   11  N   UNL     1      38.102 -13.668   0.109  1.00  0.00    -0.123 NA
BRANCH   8  12
HETATM   12  C   UNL     1      41.406 -13.741  -1.310  1.00  0.00     0.171 C 
BRANCH  12  13
HETATM   13  C   UNL     1      41.916 -12.547  -2.082  1.00  0.00    -0.040 A 
HETATM   14  C   UNL     1      41.864 -12.462  -3.482  1.00  0.00     0.009 A 
HETATM   15  C   UNL     1      42.336 -11.327  -4.146  1.00  0.00     0.001 A 
HETATM   16  C   UNL     1      42.846 -10.253  -3.422  1.00  0.00     0.000 A 
HETATM   17  C   UNL     1      42.880 -10.308  -2.032  1.00  0.00     0.001 A 
HETATM   18  C   UNL     1      42.413 -11.444  -1.366  1.00  0.00     0.009 A 
ENDBRANCH  12  13
ENDBRANCH   8  12
BRANCH   9  19
HETATM   19  C   UNL     1      38.836 -14.407  -3.354  1.00  0.00     0.057 A 
HETATM   20  C   UNL     1      39.473 -15.669  -3.886  1.00  0.00     0.013 A 
HETATM   21  C   UNL     1      37.988 -15.526  -3.902  1.00  0.00     0.013 A 
ENDBRANCH   9  19
ENDBRANCH   6   7
ENDBRANCH   5   6
ENDBRANCH   2   5
BRANCH   1  22
HETATM   22  C   UNL     1      42.380 -17.268   3.974  1.00  0.00     0.037 A 
HETATM   23  C   UNL     1      43.270 -17.216   5.050  1.00  0.00     0.032 A 
HETATM   24  C   UNL     1      44.239 -18.211   5.223  1.00  0.00     0.041 A 
HETATM   25  C   UNL     1      44.315 -19.276   4.332  1.00  0.00     0.096 A 
HETATM   26  O   UNL     1      45.303 -20.190   4.559  1.00  0.00    -0.335 OA
HETATM   27  C   UNL     1      43.433 -19.335   3.254  1.00  0.00     0.070 A 
HETATM   28  C   UNL     1      45.172 -21.415   3.842  1.00  0.00     0.217 C 
HETATM   29  C   UNL     1      44.558 -22.449   4.783  1.00  0.00     0.050 C 
HETATM   30  C   UNL     1      44.399 -21.419   2.516  1.00  0.00     0.251 C 
HETATM   31  N   UNL     1      43.519 -20.386   2.342  1.00  0.00    -0.323 N 
HETATM   32  O   UNL     1      44.491 -22.318   1.682  1.00  0.00    -0.270 OA
HETATM   33  H   UNL     1      42.949 -20.410   1.507  1.00  0.00     0.169 HD
HETATM   34  C   UNL     1      42.476 -18.332   3.066  1.00  0.00     0.062 A 
ENDBRANCH   1  22
TORSDOF 7
ENDMDL
MODEL 10
REMARK VINA RESULT:      -8.4      6.414      9.135
REMARK  7 active torsions:
REMARK  status: ('A' for Active; 'I' for Inactive)
REMARK    1  A    between atoms: C_11  and  N_12 
REMARK       I    between atoms: N_12  and  C_13 
REMARK    2  A    between atoms: C_13  and  C_14 
REMARK    3  A    between atoms: C_14  and  S_15 
REMARK    4  A    between atoms: S_15  and  C_16 
REMARK    5  A    between atoms: N_17  and  C_18 
REMARK    6  A    between atoms: C_18  and  C_19 
REMARK    7  A    between atoms: C_25  and  C_26 
ROOT
HETATM    1  N   UNL     1      39.697 -14.181   3.027  1.00  0.00    -0.326 N 
HETATM    2  C   UNL     1      39.860 -13.124   3.911  1.00  0.00     0.231 C 
HETATM    3  O   UNL     1      39.807 -11.932   3.620  1.00  0.00    -0.272 OA
HETATM    4  H   UNL     1      39.926 -15.099   3.392  1.00  0.00     0.169 HD
ENDROOT
BRANCH   2   5
HETATM    5  C   UNL     1      40.037 -13.555   5.358  1.00  0.00     0.185 C 
BRANCH   5   6
HETATM    6  S   UNL     1      41.784 -13.513   5.870  1.00  0.00    -0.081 SA
BRANCH   6   7
HETATM    7  C   UNL     1      42.484 -14.413   4.563  1.00  0.00     0.192 A 
HETATM    8  N   UNL     1      42.428 -15.780   4.417  1.00  0.00    -0.307 N 
HETATM    9  C   UNL     1      43.097 -16.040   3.238  1.00  0.00     0.135 A 
HETATM   10  N   UNL     1      43.515 -14.893   2.731  1.00  0.00    -0.134 NA
HETATM   11  N   UNL     1      43.145 -13.880   3.566  1.00  0.00    -0.123 NA
BRANCH   8  12
HETATM   12  C   UNL     1      41.686 -16.695   5.265  1.00  0.00     0.171 C 
BRANCH  12  13
HETATM   13  C   UNL     1      42.535 -17.497   6.223  1.00  0.00    -0.040 A 
HETATM   14  C   UNL     1      43.109 -18.733   5.885  1.00  0.00     0.009 A 
HETATM   15  C   UNL     1      43.899 -19.426   6.805  1.00  0.00     0.001 A 
HETATM   16  C   UNL     1      44.145 -18.888   8.064  1.00  0.00     0.000 A 
HETATM   17  C   UNL     1      43.607 -17.651   8.407  1.00  0.00     0.001 A 
HETATM   18  C   UNL     1      42.813 -16.957   7.491  1.00  0.00     0.009 A 
ENDBRANCH  12  13
ENDBRANCH   8  12
BRANCH   9  19
HETATM   19  C   UNL     1      43.424 -17.315   2.469  1.00  0.00     0.057 A 
HETATM   20  C   UNL     1      42.363 -18.020   1.658  1.00  0.00     0.013 A 
HETATM   21  C   UNL     1      43.528 -17.395   0.967  1.00  0.00     0.013 A 
ENDBRANCH   9  19
ENDBRANCH   6   7
ENDBRANCH   5   6
ENDBRANCH   2   5
BRANCH   1  22
HETATM   22  C   UNL     1      39.356 -14.105   1.660  1.00  0.00     0.037 A 
HETATM   23  C   UNL     1      38.101 -13.698   1.198  1.00  0.00     0.032 A 
HETATM   24  C   UNL     1      37.820 -13.670  -0.172  1.00  0.00     0.041 A 
HETATM   25  C   UNL     1      38.797 -14.031  -1.094  1.00  0.00     0.096 A 
HETATM   26  O   UNL     1      38.434 -13.998  -2.410  1.00  0.00    -0.335 OA
HETATM   27  C   UNL     1      40.051 -14.441  -0.643  1.00  0.00     0.070 A 
HETATM   28  C   UNL     1      39.513 -14.063  -3.338  1.00  0.00     0.217 C 
HETATM   29  C   UNL     1      39.818 -12.641  -3.806  1.00  0.00     0.050 C 
HETATM   30  C   UNL     1      40.821 -14.742  -2.909  1.00  0.00     0.251 C 
HETATM   31  N   UNL     1      41.027 -14.828  -1.560  1.00  0.00    -0.323 N 
HETATM   32  O   UNL     1      41.677 -15.125  -3.705  1.00  0.00    -0.270 OA
HETATM   33  H   UNL     1      41.914 -15.208  -1.258  1.00  0.00     0.169 HD
HETATM   34  C   UNL     1      40.329 -14.490   0.728  1.00  0.00     0.062 A 
ENDBRANCH   1  22
TORSDOF 7
ENDMDL
