MODEL 1
REMARK VINA RESULT:      -9.2      0.000      0.000
REMARK  8 active torsions:
REMARK  status: ('A' for Active; 'I' for Inactive)
REMARK    1  A    between atoms: O_2  and  C_3 
REMARK    2  A    between atoms: C_6  and  C_7 
REMARK    3  A    between atoms: C_7  and  C_8 
REMARK    4  A    between atoms: C_8  and  C_9 
REMARK    5  A    between atoms: C_11  and  N_12 
REMARK       I    between atoms: N_12  and  C_13 
REMARK    6  A    between atoms: C_13  and  C_14 
REMARK    7  A    between atoms: C_18  and  C_19 
REMARK    8  A    between atoms: C_22  and  O_23 
ROOT
HETATM    1  N   UNL     1      43.528 -13.309   6.981  1.00  0.00    -0.149 N 
HETATM    2  C   UNL     1      44.743 -13.150   7.597  1.00  0.00     0.290 C 
HETATM    3  O   UNL     1      45.841 -13.507   7.181  1.00  0.00    -0.265 OA
HETATM    4  H   UNL     1      42.705 -12.974   7.459  1.00  0.00     0.188 HD
ENDROOT
BRANCH   1   5
HETATM    5  C   UNL     1      43.337 -13.917   5.777  1.00  0.00     0.747 A 
HETATM    6  N   UNL     1      42.538 -15.031   5.717  1.00  0.00    -0.046 NA
HETATM    7  C   UNL     1      42.564 -15.365   4.443  1.00  0.00     0.140 A 
HETATM    8  N   UNL     1      43.345 -14.466   3.775  1.00  0.00    -0.248 N 
HETATM    9  N   UNL     1      43.852 -13.554   4.604  1.00  0.00     0.020 NA
HETATM   10  H   UNL     1      43.576 -14.421   2.788  1.00  0.00     0.191 HD
BRANCH   7  11
HETATM   11  C   UNL     1      41.877 -16.489   3.754  1.00  0.00     0.085 C 
BRANCH  11  12
HETATM   12  C   UNL     1      42.702 -17.018   2.575  1.00  0.00     0.046 C 
BRANCH  12  13
HETATM   13  C   UNL     1      43.299 -18.375   2.861  1.00  0.00    -0.058 A 
HETATM   14  C   UNL     1      43.235 -19.390   1.897  1.00  0.00     0.010 A 
HETATM   15  C   UNL     1      43.788 -20.651   2.146  1.00  0.00     0.037 A 
HETATM   16  C   UNL     1      44.416 -20.911   3.362  1.00  0.00     0.068 A 
HETATM   17  C   UNL     1      44.467 -19.906   4.331  1.00  0.00     0.037 A 
HETATM   18  C   UNL     1      43.913 -18.646   4.086  1.00  0.00     0.010 A 
BRANCH  16  19
HETATM   19  O   UNL     1      45.005 -22.091   3.725  1.00  0.00    -0.356 OA
HETATM   20  C   UNL     1      45.092 -22.362   5.118  1.00  0.00     0.210 C 
ENDBRANCH  16  19
ENDBRANCH  12  13
ENDBRANCH  11  12
ENDBRANCH   7  11
ENDBRANCH   1   5
BRANCH   2  21
HETATM   21  C   UNL     1      44.622 -12.490   8.909  1.00  0.00     0.147 A 
HETATM   22  N   UNL     1      45.445 -12.747   9.944  1.00  0.00    -0.169 NA
HETATM   23  N   UNL     1      45.002 -11.928  10.919  1.00  0.00    -0.277 N 
HETATM   24  H   UNL     1      45.492 -11.932  11.808  1.00  0.00     0.189 HD
HETATM   25  C   UNL     1      43.940 -11.139  10.560  1.00  0.00     0.063 A 
HETATM   26  C   UNL     1      43.667 -11.501   9.257  1.00  0.00     0.071 A 
BRANCH  25  27
HETATM   27  C   UNL     1      43.330 -10.126  11.418  1.00  0.00    -0.008 A 
HETATM   28  C   UNL     1      43.673 -10.068  12.774  1.00  0.00     0.016 A 
HETATM   29  C   UNL     1      43.103  -9.107  13.614  1.00  0.00     0.037 A 
HETATM   30  C   UNL     1      42.185  -8.182  13.116  1.00  0.00     0.068 A 
HETATM   31  C   UNL     1      41.840  -8.228  11.766  1.00  0.00     0.037 A 
HETATM   32  C   UNL     1      42.409  -9.195  10.922  1.00  0.00     0.016 A 
BRANCH  30  33
HETATM   33  O   UNL     1      41.709  -7.299  14.044  1.00  0.00    -0.356 OA
HETATM   34  C   UNL     1      41.536  -7.784  15.370  1.00  0.00     0.210 C 
ENDBRANCH  30  33
ENDBRANCH  25  27
ENDBRANCH   2  21
TORSDOF 8
ENDMDL
MODEL 2
REMARK VINA RESULT:      -9.1      1.578     11.866
REMARK  8 active torsions:
REMARK  status: ('A' for Active; 'I' for Inactive)
REMARK    1  A    between atoms: O_2  and  C_3 
REMARK    2  A    between atoms: C_6  and  C_7 
REMARK    3  A    between atoms: C_7  and  C_8 
REMARK    4  A    between atoms: C_8  and  C_9 
REMARK    5  A    between atoms: C_11  and  N_12 
REMARK       I    between atoms: N_12  and  C_13 
REMARK    6  A    between atoms: C_13  and  C_14 
REMARK    7  A    between atoms: C_18  and  C_19 
REMARK    8  A    between atoms: C_22  and  O_23 
ROOT
HETATM    1  N   UNL     1      44.751 -14.085   6.634  1.00  0.00    -0.149 N 
HETATM    2  C   UNL     1      43.527 -13.923   6.037  1.00  0.00     0.290 C 
HETATM    3  O   UNL     1      42.731 -13.005   6.206  1.00  0.00    -0.265 OA
HETATM    4  H   UNL     1      45.289 -14.908   6.402  1.00  0.00     0.188 HD
ENDROOT
BRANCH   1   5
HETATM    5  C   UNL     1      45.293 -13.233   7.547  1.00  0.00     0.747 A 
HETATM    6  N   UNL     1      44.660 -13.062   8.752  1.00  0.00    -0.046 NA
HETATM    7  C   UNL     1      45.422 -12.195   9.385  1.00  0.00     0.140 A 
HETATM    8  N   UNL     1      46.476 -11.875   8.580  1.00  0.00    -0.248 N 
HETATM    9  N   UNL     1      46.403 -12.509   7.410  1.00  0.00     0.020 NA
HETATM   10  H   UNL     1      47.252 -11.244   8.753  1.00  0.00     0.191 HD
BRANCH   7  11
HETATM   11  C   UNL     1      45.260 -11.623  10.749  1.00  0.00     0.085 C 
BRANCH  11  12
HETATM   12  C   UNL     1      44.330 -10.405  10.743  1.00  0.00     0.046 C 
BRANCH  12  13
HETATM   13  C   UNL     1      43.520 -10.301  12.013  1.00  0.00    -0.058 A 
HETATM   14  C   UNL     1      43.825  -9.319  12.965  1.00  0.00     0.010 A 
HETATM   15  C   UNL     1      43.080  -9.207  14.144  1.00  0.00     0.037 A 
HETATM   16  C   UNL     1      42.018 -10.075  14.385  1.00  0.00     0.068 A 
HETATM   17  C   UNL     1      41.722 -11.066  13.446  1.00  0.00     0.037 A 
HETATM   18  C   UNL     1      42.466 -11.182  12.268  1.00  0.00     0.010 A 
BRANCH  16  19
HETATM   19  O   UNL     1      41.207 -10.065  15.486  1.00  0.00    -0.356 OA
HETATM   20  C   UNL     1      41.315  -8.942  16.351  1.00  0.00     0.210 C 
ENDBRANCH  16  19
ENDBRANCH  12  13
ENDBRANCH  11  12
ENDBRANCH   7  11
ENDBRANCH   1   5
BRANCH   2  21
HETATM   21  C   UNL     1      43.200 -15.033   5.124  1.00  0.00     0.147 A 
HETATM   22  N   UNL     1      42.279 -14.936   4.144  1.00  0.00    -0.169 NA
HETATM   23  N   UNL     1      42.313 -16.146   3.550  1.00  0.00    -0.277 N 
HETATM   24  H   UNL     1      41.705 -16.306   2.754  1.00  0.00     0.189 HD
HETATM   25  C   UNL     1      43.224 -17.019   4.088  1.00  0.00     0.063 A 
HETATM   26  C   UNL     1      43.803 -16.317   5.125  1.00  0.00     0.071 A 
BRANCH  25  27
HETATM   27  C   UNL     1      43.494 -18.360   3.575  1.00  0.00    -0.008 A 
HETATM   28  C   UNL     1      44.252 -19.255   4.340  1.00  0.00     0.016 A 
HETATM   29  C   UNL     1      44.522 -20.543   3.872  1.00  0.00     0.037 A 
HETATM   30  C   UNL     1      44.038 -20.966   2.635  1.00  0.00     0.068 A 
HETATM   31  C   UNL     1      43.279 -20.084   1.866  1.00  0.00     0.037 A 
HETATM   32  C   UNL     1      43.009 -18.789   2.334  1.00  0.00     0.016 A 
BRANCH  30  33
HETATM   33  O   UNL     1      44.374 -22.248   2.301  1.00  0.00    -0.356 OA
HETATM   34  C   UNL     1      44.895 -23.071   3.337  1.00  0.00     0.210 C 
ENDBRANCH  30  33
ENDBRANCH  25  27
ENDBRANCH   2  21
TORSDOF 8
ENDMDL
MODEL 3
REMARK VINA RESULT:      -8.4      2.922      3.439
REMARK  8 active torsions:
REMARK  status: ('A' for Active; 'I' for Inactive)
REMARK    1  A    between atoms: O_2  and  C_3 
REMARK    2  A    between atoms: C_6  and  C_7 
REMARK    3  A    between atoms: C_7  and  C_8 
REMARK    4  A    between atoms: C_8  and  C_9 
REMARK    5  A    between atoms: C_11  and  N_12 
REMARK       I    between atoms: N_12  and  C_13 
REMARK    6  A    between atoms: C_13  and  C_14 
REMARK    7  A    between atoms: C_18  and  C_19 
REMARK    8  A    between atoms: C_22  and  O_23 
ROOT
HETATM    1  N   UNL     1      40.073 -12.951   6.966  1.00  0.00    -0.149 N 
HETATM    2  C   UNL     1      39.588 -11.668   6.972  1.00  0.00     0.290 C 
HETATM    3  O   UNL     1      39.189 -11.018   6.010  1.00  0.00    -0.265 OA
HETATM    4  H   UNL     1      40.381 -13.347   7.842  1.00  0.00     0.188 HD
ENDROOT
BRANCH   1   5
HETATM    5  C   UNL     1      40.204 -13.731   5.858  1.00  0.00     0.747 A 
HETATM    6  N   UNL     1      41.430 -14.278   5.573  1.00  0.00    -0.046 NA
HETATM    7  C   UNL     1      41.218 -14.956   4.464  1.00  0.00     0.140 A 
HETATM    8  N   UNL     1      39.905 -14.821   4.116  1.00  0.00    -0.248 N 
HETATM    9  N   UNL     1      39.254 -14.039   4.977  1.00  0.00     0.020 NA
HETATM   10  H   UNL     1      39.404 -15.212   3.325  1.00  0.00     0.191 HD
BRANCH   7  11
HETATM   11  C   UNL     1      42.171 -15.777   3.670  1.00  0.00     0.085 C 
BRANCH  11  12
HETATM   12  C   UNL     1      43.274 -16.372   4.552  1.00  0.00     0.046 C 
BRANCH  12  13
HETATM   13  C   UNL     1      43.673 -17.758   4.108  1.00  0.00    -0.058 A 
HETATM   14  C   UNL     1      44.360 -18.609   4.984  1.00  0.00     0.010 A 
HETATM   15  C   UNL     1      44.731 -19.899   4.589  1.00  0.00     0.037 A 
HETATM   16  C   UNL     1      44.417 -20.356   3.311  1.00  0.00     0.068 A 
HETATM   17  C   UNL     1      43.746 -19.504   2.429  1.00  0.00     0.037 A 
HETATM   18  C   UNL     1      43.376 -18.214   2.821  1.00  0.00     0.010 A 
BRANCH  16  19
HETATM   19  O   UNL     1      44.710 -21.592   2.806  1.00  0.00    -0.356 OA
HETATM   20  C   UNL     1      44.109 -21.935   1.563  1.00  0.00     0.210 C 
ENDBRANCH  16  19
ENDBRANCH  12  13
ENDBRANCH  11  12
ENDBRANCH   7  11
ENDBRANCH   1   5
BRANCH   2  21
HETATM   21  C   UNL     1      39.607 -11.070   8.319  1.00  0.00     0.147 A 
HETATM   22  N   UNL     1      38.502 -10.609   8.937  1.00  0.00    -0.169 NA
HETATM   23  N   UNL     1      38.957 -10.177  10.130  1.00  0.00    -0.277 N 
HETATM   24  H   UNL     1      38.286  -9.797  10.790  1.00  0.00     0.189 HD
HETATM   25  C   UNL     1      40.304 -10.350  10.322  1.00  0.00     0.063 A 
HETATM   26  C   UNL     1      40.749 -10.917   9.146  1.00  0.00     0.071 A 
BRANCH  25  27
HETATM   27  C   UNL     1      41.017 -10.025  11.555  1.00  0.00    -0.008 A 
HETATM   28  C   UNL     1      40.602 -10.593  12.766  1.00  0.00     0.016 A 
HETATM   29  C   UNL     1      41.269 -10.298  13.958  1.00  0.00     0.037 A 
HETATM   30  C   UNL     1      42.365  -9.436  13.965  1.00  0.00     0.068 A 
HETATM   31  C   UNL     1      42.789  -8.868  12.764  1.00  0.00     0.037 A 
HETATM   32  C   UNL     1      42.118  -9.160  11.566  1.00  0.00     0.016 A 
BRANCH  30  33
HETATM   33  O   UNL     1      42.923  -9.237  15.196  1.00  0.00    -0.356 OA
HETATM   34  C   UNL     1      42.032  -9.027  16.284  1.00  0.00     0.210 C 
ENDBRANCH  30  33
ENDBRANCH  25  27
ENDBRANCH   2  21
TORSDOF 8
ENDMDL
MODEL 4
REMARK VINA RESULT:      -8.4      2.846      3.677
REMARK  8 active torsions:
REMARK  status: ('A' for Active; 'I' for Inactive)
REMARK    1  A    between atoms: O_2  and  C_3 
REMARK    2  A    between atoms: C_6  and  C_7 
REMARK    3  A    between atoms: C_7  and  C_8 
REMARK    4  A    between atoms: C_8  and  C_9 
REMARK    5  A    between atoms: C_11  and  N_12 
REMARK       I    between atoms: N_12  and  C_13 
REMARK    6  A    between atoms: C_13  and  C_14 
REMARK    7  A    between atoms: C_18  and  C_19 
REMARK    8  A    between atoms: C_22  and  O_23 
ROOT
HETATM    1  N   UNL     1      39.870 -14.022   4.457  1.00  0.00    -0.149 N 
HETATM    2  C   UNL     1      40.427 -12.775   4.578  1.00  0.00     0.290 C 
HETATM    3  O   UNL     1      41.024 -12.139   3.715  1.00  0.00    -0.265 OA
HETATM    4  H   UNL     1      39.422 -14.424   5.268  1.00  0.00     0.188 HD
ENDROOT
BRANCH   1   5
HETATM    5  C   UNL     1      39.900 -14.785   3.330  1.00  0.00     0.747 A 
HETATM    6  N   UNL     1      40.855 -15.764   3.217  1.00  0.00    -0.046 NA
HETATM    7  C   UNL     1      40.614 -16.300   2.038  1.00  0.00     0.140 A 
HETATM    8  N   UNL     1      39.543 -15.662   1.482  1.00  0.00    -0.248 N 
HETATM    9  N   UNL     1      39.089 -14.694   2.277  1.00  0.00     0.020 NA
HETATM   10  H   UNL     1      39.089 -15.823   0.589  1.00  0.00     0.191 HD
BRANCH   7  11
HETATM   11  C   UNL     1      41.314 -17.422   1.357  1.00  0.00     0.085 C 
BRANCH  11  12
HETATM   12  C   UNL     1      42.836 -17.275   1.447  1.00  0.00     0.046 C 
BRANCH  12  13
HETATM   13  C   UNL     1      43.458 -18.324   2.336  1.00  0.00    -0.058 A 
HETATM   14  C   UNL     1      43.781 -18.020   3.666  1.00  0.00     0.010 A 
HETATM   15  C   UNL     1      44.353 -18.984   4.503  1.00  0.00     0.037 A 
HETATM   16  C   UNL     1      44.607 -20.266   4.023  1.00  0.00     0.068 A 
HETATM   17  C   UNL     1      44.301 -20.568   2.693  1.00  0.00     0.037 A 
HETATM   18  C   UNL     1      43.732 -19.607   1.853  1.00  0.00     0.010 A 
BRANCH  16  19
HETATM   19  O   UNL     1      45.149 -21.299   4.737  1.00  0.00    -0.356 OA
HETATM   20  C   UNL     1      44.674 -22.605   4.436  1.00  0.00     0.210 C 
ENDBRANCH  16  19
ENDBRANCH  12  13
ENDBRANCH  11  12
ENDBRANCH   7  11
ENDBRANCH   1   5
BRANCH   2  21
HETATM   21  C   UNL     1      40.266 -12.220   5.934  1.00  0.00     0.147 A 
HETATM   22  N   UNL     1      39.163 -12.413   6.684  1.00  0.00    -0.169 NA
HETATM   23  N   UNL     1      39.438 -11.765   7.833  1.00  0.00    -0.277 N 
HETATM   24  H   UNL     1      38.746 -11.788   8.575  1.00  0.00     0.189 HD
HETATM   25  C   UNL     1      40.675 -11.174   7.871  1.00  0.00     0.063 A 
HETATM   26  C   UNL     1      41.225 -11.446   6.636  1.00  0.00     0.071 A 
BRANCH  25  27
HETATM   27  C   UNL     1      41.228 -10.474   9.029  1.00  0.00    -0.008 A 
HETATM   28  C   UNL     1      42.492 -10.829   9.514  1.00  0.00     0.016 A 
HETATM   29  C   UNL     1      43.042 -10.174  10.619  1.00  0.00     0.037 A 
HETATM   30  C   UNL     1      42.345  -9.150  11.258  1.00  0.00     0.068 A 
HETATM   31  C   UNL     1      41.086  -8.786  10.781  1.00  0.00     0.037 A 
HETATM   32  C   UNL     1      40.531  -9.445   9.673  1.00  0.00     0.016 A 
BRANCH  30  33
HETATM   33  O   UNL     1      42.999  -8.595  12.322  1.00  0.00    -0.356 OA
HETATM   34  C   UNL     1      43.314  -9.457  13.408  1.00  0.00     0.210 C 
ENDBRANCH  30  33
ENDBRANCH  25  27
ENDBRANCH   2  21
TORSDOF 8
ENDMDL
MODEL 5
REMARK VINA RESULT:      -8.4      2.528      3.770
REMARK  8 active torsions:
REMARK  status: ('A' for Active; 'I' for Inactive)
REMARK    1  A    between atoms: O_2  and  C_3 
REMARK    2  A    between atoms: C_6  and  C_7 
REMARK    3  A    between atoms: C_7  and  C_8 
REMARK    4  A    between atoms: C_8  and  C_9 
REMARK    5  A    between atoms: C_11  and  N_12 
REMARK       I    between atoms: N_12  and  C_13 
REMARK    6  A    between atoms: C_13  and  C_14 
REMARK    7  A    between atoms: C_18  and  C_19 
REMARK    8  A    between atoms: C_22  and  O_23 
ROOT
HETATM    1  N   UNL     1      44.016 -14.607   7.781  1.00  0.00    -0.149 N 
HETATM    2  C   UNL     1      44.958 -13.646   7.517  1.00  0.00     0.290 C 
HETATM    3  O   UNL     1      45.766 -13.629   6.594  1.00  0.00    -0.265 OA
HETATM    4  H   UNL     1      43.429 -14.487   8.594  1.00  0.00     0.188 HD
ENDROOT
BRANCH   1   5
HETATM    5  C   UNL     1      43.827 -15.738   7.047  1.00  0.00     0.747 A 
HETATM    6  N   UNL     1      42.621 -15.928   6.420  1.00  0.00    -0.046 NA
HETATM    7  C   UNL     1      42.764 -17.088   5.813  1.00  0.00     0.140 A 
HETATM    8  N   UNL     1      44.020 -17.559   6.067  1.00  0.00    -0.248 N 
HETATM    9  N   UNL     1      44.699 -16.726   6.856  1.00  0.00     0.020 NA
HETATM   10  H   UNL     1      44.462 -18.416   5.754  1.00  0.00     0.191 HD
BRANCH   7  11
HETATM   11  C   UNL     1      41.795 -17.826   4.960  1.00  0.00     0.085 C 
BRANCH  11  12
HETATM   12  C   UNL     1      42.368 -18.102   3.565  1.00  0.00     0.046 C 
BRANCH  12  13
HETATM   13  C   UNL     1      41.781 -17.188   2.517  1.00  0.00    -0.058 A 
HETATM   14  C   UNL     1      40.742 -16.309   2.849  1.00  0.00     0.010 A 
HETATM   15  C   UNL     1      40.192 -15.453   1.889  1.00  0.00     0.037 A 
HETATM   16  C   UNL     1      40.678 -15.462   0.584  1.00  0.00     0.068 A 
HETATM   17  C   UNL     1      41.704 -16.349   0.245  1.00  0.00     0.037 A 
HETATM   18  C   UNL     1      42.253 -17.207   1.201  1.00  0.00     0.010 A 
BRANCH  16  19
HETATM   19  O   UNL     1      40.239 -14.671  -0.442  1.00  0.00    -0.356 OA
HETATM   20  C   UNL     1      40.796 -14.921  -1.727  1.00  0.00     0.210 C 
ENDBRANCH  16  19
ENDBRANCH  12  13
ENDBRANCH  11  12
ENDBRANCH   7  11
ENDBRANCH   1   5
BRANCH   2  21
HETATM   21  C   UNL     1      44.945 -12.561   8.515  1.00  0.00     0.147 A 
HETATM   22  N   UNL     1      46.008 -11.770   8.760  1.00  0.00    -0.169 NA
HETATM   23  N   UNL     1      45.565 -10.920   9.707  1.00  0.00    -0.277 N 
HETATM   24  H   UNL     1      46.200 -10.203  10.042  1.00  0.00     0.189 HD
HETATM   25  C   UNL     1      44.258 -11.110  10.076  1.00  0.00     0.063 A 
HETATM   26  C   UNL     1      43.840 -12.186   9.321  1.00  0.00     0.071 A 
BRANCH  25  27
HETATM   27  C   UNL     1      43.533 -10.274  11.030  1.00  0.00    -0.008 A 
HETATM   28  C   UNL     1      43.931 -10.249  12.373  1.00  0.00     0.016 A 
HETATM   29  C   UNL     1      43.254  -9.457  13.303  1.00  0.00     0.037 A 
HETATM   30  C   UNL     1      42.171  -8.670  12.913  1.00  0.00     0.068 A 
HETATM   31  C   UNL     1      41.769  -8.684  11.578  1.00  0.00     0.037 A 
HETATM   32  C   UNL     1      42.446  -9.482  10.642  1.00  0.00     0.016 A 
BRANCH  30  33
HETATM   33  O   UNL     1      41.604  -7.944  13.922  1.00  0.00    -0.356 OA
HETATM   34  C   UNL     1      40.228  -8.179  14.193  1.00  0.00     0.210 C 
ENDBRANCH  30  33
ENDBRANCH  25  27
ENDBRANCH   2  21
TORSDOF 8
ENDMDL
MODEL 6
REMARK VINA RESULT:      -8.3      2.120      2.496
REMARK  8 active torsions:
REMARK  status: ('A' for Active; 'I' for Inactive)
REMARK    1  A    between atoms: O_2  and  C_3 
REMARK    2  A    between atoms: C_6  and  C_7 
REMARK    3  A    between atoms: C_7  and  C_8 
REMARK    4  A    between atoms: C_8  and  C_9 
REMARK    5  A    between atoms: C_11  and  N_12 
REMARK       I    between atoms: N_12  and  C_13 
REMARK    6  A    between atoms: C_13  and  C_14 
REMARK    7  A    between atoms: C_18  and  C_19 
REMARK    8  A    between atoms: C_22  and  O_23 
ROOT
HETATM    1  N   UNL     1      42.612 -12.826   5.569  1.00  0.00    -0.149 N 
HETATM    2  C   UNL     1      41.625 -11.874   5.567  1.00  0.00     0.290 C 
HETATM    3  O   UNL     1      40.765 -11.696   4.711  1.00  0.00    -0.265 OA
HETATM    4  H   UNL     1      43.261 -12.837   6.343  1.00  0.00     0.188 HD
ENDROOT
BRANCH   1   5
HETATM    5  C   UNL     1      42.810 -13.748   4.587  1.00  0.00     0.747 A 
HETATM    6  N   UNL     1      42.032 -14.879   4.573  1.00  0.00    -0.046 NA
HETATM    7  C   UNL     1      42.469 -15.545   3.524  1.00  0.00     0.140 A 
HETATM    8  N   UNL     1      43.465 -14.821   2.934  1.00  0.00    -0.248 N 
HETATM    9  N   UNL     1      43.703 -13.691   3.601  1.00  0.00     0.020 NA
HETATM   10  H   UNL     1      44.015 -15.033   2.109  1.00  0.00     0.191 HD
BRANCH   7  11
HETATM   11  C   UNL     1      42.007 -16.850   2.982  1.00  0.00     0.085 C 
BRANCH  11  12
HETATM   12  C   UNL     1      43.032 -17.457   2.018  1.00  0.00     0.046 C 
BRANCH  12  13
HETATM   13  C   UNL     1      43.523 -18.806   2.483  1.00  0.00    -0.058 A 
HETATM   14  C   UNL     1      43.409 -19.925   1.647  1.00  0.00     0.010 A 
HETATM   15  C   UNL     1      43.864 -21.181   2.062  1.00  0.00     0.037 A 
HETATM   16  C   UNL     1      44.443 -21.333   3.320  1.00  0.00     0.068 A 
HETATM   17  C   UNL     1      44.544 -20.223   4.163  1.00  0.00     0.037 A 
HETATM   18  C   UNL     1      44.087 -18.968   3.751  1.00  0.00     0.010 A 
BRANCH  16  19
HETATM   19  O   UNL     1      44.937 -22.498   3.841  1.00  0.00    -0.356 OA
HETATM   20  C   UNL     1      45.194 -22.516   5.239  1.00  0.00     0.210 C 
ENDBRANCH  16  19
ENDBRANCH  12  13
ENDBRANCH  11  12
ENDBRANCH   7  11
ENDBRANCH   1   5
BRANCH   2  21
HETATM   21  C   UNL     1      41.694 -10.996   6.748  1.00  0.00     0.147 A 
HETATM   22  N   UNL     1      41.130  -9.772   6.793  1.00  0.00    -0.169 NA
HETATM   23  N   UNL     1      41.409  -9.334   8.037  1.00  0.00    -0.277 N 
HETATM   24  H   UNL     1      41.060  -8.422   8.313  1.00  0.00     0.189 HD
HETATM   25  C   UNL     1      42.113 -10.223   8.808  1.00  0.00     0.063 A 
HETATM   26  C   UNL     1      42.322 -11.307   7.981  1.00  0.00     0.071 A 
BRANCH  25  27
HETATM   27  C   UNL     1      42.473 -10.006  10.208  1.00  0.00    -0.008 A 
HETATM   28  C   UNL     1      41.590  -9.323  11.053  1.00  0.00     0.016 A 
HETATM   29  C   UNL     1      41.911  -9.105  12.395  1.00  0.00     0.037 A 
HETATM   30  C   UNL     1      43.117  -9.567  12.921  1.00  0.00     0.068 A 
HETATM   31  C   UNL     1      44.002 -10.252  12.089  1.00  0.00     0.037 A 
HETATM   32  C   UNL     1      43.682 -10.469  10.740  1.00  0.00     0.016 A 
BRANCH  30  33
HETATM   33  O   UNL     1      43.303  -9.287  14.246  1.00  0.00    -0.356 OA
HETATM   34  C   UNL     1      42.270  -9.677  15.141  1.00  0.00     0.210 C 
ENDBRANCH  30  33
ENDBRANCH  25  27
ENDBRANCH   2  21
TORSDOF 8
ENDMDL
MODEL 7
REMARK VINA RESULT:      -8.3      2.546     11.756
REMARK  8 active torsions:
REMARK  status: ('A' for Active; 'I' for Inactive)
REMARK    1  A    between atoms: O_2  and  C_3 
REMARK    2  A    between atoms: C_6  and  C_7 
REMARK    3  A    between atoms: C_7  and  C_8 
REMARK    4  A    between atoms: C_8  and  C_9 
REMARK    5  A    between atoms: C_11  and  N_12 
REMARK       I    between atoms: N_12  and  C_13 
REMARK    6  A    between atoms: C_13  and  C_14 
REMARK    7  A    between atoms: C_18  and  C_19 
REMARK    8  A    between atoms: C_22  and  O_23 
ROOT
HETATM    1  N   UNL     1      41.358 -12.502   5.555  1.00  0.00    -0.149 N 
HETATM    2  C   UNL     1      40.241 -13.281   5.393  1.00  0.00     0.290 C 
HETATM    3  O   UNL     1      39.123 -13.087   5.859  1.00  0.00    -0.265 OA
HETATM    4  H   UNL     1      42.216 -12.804   5.118  1.00  0.00     0.188 HD
ENDROOT
BRANCH   1   5
HETATM    5  C   UNL     1      41.412 -11.359   6.293  1.00  0.00     0.747 A 
HETATM    6  N   UNL     1      41.885 -11.422   7.579  1.00  0.00    -0.046 NA
HETATM    7  C   UNL     1      41.804 -10.177   8.002  1.00  0.00     0.140 A 
HETATM    8  N   UNL     1      41.310  -9.406   6.990  1.00  0.00    -0.248 N 
HETATM    9  N   UNL     1      41.042 -10.139   5.909  1.00  0.00     0.020 NA
HETATM   10  H   UNL     1      41.125  -8.409   6.971  1.00  0.00     0.191 HD
BRANCH   7  11
HETATM   11  C   UNL     1      42.184  -9.608   9.323  1.00  0.00     0.085 C 
BRANCH  11  12
HETATM   12  C   UNL     1      42.914 -10.638  10.192  1.00  0.00     0.046 C 
BRANCH  12  13
HETATM   13  C   UNL     1      42.661 -10.424  11.664  1.00  0.00    -0.058 A 
HETATM   14  C   UNL     1      43.573  -9.695  12.438  1.00  0.00     0.010 A 
HETATM   15  C   UNL     1      43.348  -9.483  13.803  1.00  0.00     0.037 A 
HETATM   16  C   UNL     1      42.205  -9.997  14.411  1.00  0.00     0.068 A 
HETATM   17  C   UNL     1      41.302 -10.739  13.645  1.00  0.00     0.037 A 
HETATM   18  C   UNL     1      41.524 -10.954  12.282  1.00  0.00     0.010 A 
BRANCH  16  19
HETATM   19  O   UNL     1      41.862  -9.853  15.727  1.00  0.00    -0.356 OA
HETATM   20  C   UNL     1      41.876  -8.532  16.252  1.00  0.00     0.210 C 
ENDBRANCH  16  19
ENDBRANCH  12  13
ENDBRANCH  11  12
ENDBRANCH   7  11
ENDBRANCH   1   5
BRANCH   2  21
HETATM   21  C   UNL     1      40.508 -14.476   4.571  1.00  0.00     0.147 A 
HETATM   22  N   UNL     1      39.768 -14.814   3.497  1.00  0.00    -0.169 NA
HETATM   23  N   UNL     1      40.359 -15.936   3.039  1.00  0.00    -0.277 N 
HETATM   24  H   UNL     1      39.979 -16.372   2.205  1.00  0.00     0.189 HD
HETATM   25  C   UNL     1      41.457 -16.334   3.757  1.00  0.00     0.063 A 
HETATM   26  C   UNL     1      41.563 -15.404   4.770  1.00  0.00     0.071 A 
BRANCH  25  27
HETATM   27  C   UNL     1      42.303 -17.477   3.419  1.00  0.00    -0.008 A 
HETATM   28  C   UNL     1      43.036 -18.118   4.424  1.00  0.00     0.016 A 
HETATM   29  C   UNL     1      43.851 -19.213   4.126  1.00  0.00     0.037 A 
HETATM   30  C   UNL     1      43.946 -19.693   2.820  1.00  0.00     0.068 A 
HETATM   31  C   UNL     1      43.216 -19.065   1.811  1.00  0.00     0.037 A 
HETATM   32  C   UNL     1      42.400 -17.962   2.109  1.00  0.00     0.016 A 
BRANCH  30  33
HETATM   33  O   UNL     1      44.775 -20.769   2.669  1.00  0.00    -0.356 OA
HETATM   34  C   UNL     1      44.231 -21.922   2.039  1.00  0.00     0.210 C 
ENDBRANCH  30  33
ENDBRANCH  25  27
ENDBRANCH   2  21
TORSDOF 8
ENDMDL
MODEL 8
REMARK VINA RESULT:      -7.8      3.091      3.452
REMARK  8 active torsions:
REMARK  status: ('A' for Active; 'I' for Inactive)
REMARK    1  A    between atoms: O_2  and  C_3 
REMARK    2  A    between atoms: C_6  and  C_7 
REMARK    3  A    between atoms: C_7  and  C_8 
REMARK    4  A    between atoms: C_8  and  C_9 
REMARK    5  A    between atoms: C_11  and  N_12 
REMARK       I    between atoms: N_12  and  C_13 
REMARK    6  A    between atoms: C_13  and  C_14 
REMARK    7  A    between atoms: C_18  and  C_19 
REMARK    8  A    between atoms: C_22  and  O_23 
ROOT
HETATM    1  N   UNL     1      41.028 -13.861   4.623  1.00  0.00    -0.149 N 
HETATM    2  C   UNL     1      41.183 -12.580   5.087  1.00  0.00     0.290 C 
HETATM    3  O   UNL     1      41.878 -11.692   4.604  1.00  0.00    -0.265 OA
HETATM    4  H   UNL     1      40.429 -14.487   5.142  1.00  0.00     0.188 HD
ENDROOT
BRANCH   1   5
HETATM    5  C   UNL     1      41.649 -14.374   3.525  1.00  0.00     0.747 A 
HETATM    6  N   UNL     1      42.533 -15.411   3.687  1.00  0.00    -0.046 NA
HETATM    7  C   UNL     1      42.947 -15.662   2.462  1.00  0.00     0.140 A 
HETATM    8  N   UNL     1      42.316 -14.806   1.607  1.00  0.00    -0.248 N 
HETATM    9  N   UNL     1      41.504 -13.977   2.262  1.00  0.00     0.020 NA
HETATM   10  H   UNL     1      42.395 -14.727   0.599  1.00  0.00     0.191 HD
BRANCH   7  11
HETATM   11  C   UNL     1      43.911 -16.692   1.990  1.00  0.00     0.085 C 
BRANCH  11  12
HETATM   12  C   UNL     1      43.192 -17.910   1.401  1.00  0.00     0.046 C 
BRANCH  12  13
HETATM   13  C   UNL     1      43.608 -19.197   2.072  1.00  0.00    -0.058 A 
HETATM   14  C   UNL     1      43.514 -20.414   1.383  1.00  0.00     0.010 A 
HETATM   15  C   UNL     1      43.902 -21.613   1.991  1.00  0.00     0.037 A 
HETATM   16  C   UNL     1      44.391 -21.611   3.295  1.00  0.00     0.068 A 
HETATM   17  C   UNL     1      44.470 -20.401   3.990  1.00  0.00     0.037 A 
HETATM   18  C   UNL     1      44.082 -19.201   3.387  1.00  0.00     0.010 A 
BRANCH  16  19
HETATM   19  O   UNL     1      44.812 -22.706   3.996  1.00  0.00    -0.356 OA
HETATM   20  C   UNL     1      45.336 -22.471   5.297  1.00  0.00     0.210 C 
ENDBRANCH  16  19
ENDBRANCH  12  13
ENDBRANCH  11  12
ENDBRANCH   7  11
ENDBRANCH   1   5
BRANCH   2  21
HETATM   21  C   UNL     1      40.411 -12.335   6.319  1.00  0.00     0.147 A 
HETATM   22  N   UNL     1      39.441 -13.161   6.759  1.00  0.00    -0.169 NA
HETATM   23  N   UNL     1      39.022 -12.584   7.903  1.00  0.00    -0.277 N 
HETATM   24  H   UNL     1      38.292 -13.048   8.434  1.00  0.00     0.189 HD
HETATM   25  C   UNL     1      39.686 -11.432   8.235  1.00  0.00     0.063 A 
HETATM   26  C   UNL     1      40.586 -11.243   7.207  1.00  0.00     0.071 A 
BRANCH  25  27
HETATM   27  C   UNL     1      39.460 -10.665   9.458  1.00  0.00    -0.008 A 
HETATM   28  C   UNL     1      40.195 -10.966  10.611  1.00  0.00     0.016 A 
HETATM   29  C   UNL     1      39.997 -10.246  11.792  1.00  0.00     0.037 A 
HETATM   30  C   UNL     1      39.067  -9.209  11.845  1.00  0.00     0.068 A 
HETATM   31  C   UNL     1      38.333  -8.897  10.702  1.00  0.00     0.037 A 
HETATM   32  C   UNL     1      38.528  -9.622   9.515  1.00  0.00     0.016 A 
BRANCH  30  33
HETATM   33  O   UNL     1      38.977  -8.588  13.060  1.00  0.00    -0.356 OA
HETATM   34  C   UNL     1      40.186  -8.109  13.633  1.00  0.00     0.210 C 
ENDBRANCH  30  33
ENDBRANCH  25  27
ENDBRANCH   2  21
TORSDOF 8
ENDMDL
MODEL 9
REMARK VINA RESULT:      -7.8      2.611     11.798
REMARK  8 active torsions:
REMARK  status: ('A' for Active; 'I' for Inactive)
REMARK    1  A    between atoms: O_2  and  C_3 
REMARK    2  A    between atoms: C_6  and  C_7 
REMARK    3  A    between atoms: C_7  and  C_8 
REMARK    4  A    between atoms: C_8  and  C_9 
REMARK    5  A    between atoms: C_11  and  N_12 
REMARK       I    between atoms: N_12  and  C_13 
REMARK    6  A    between atoms: C_13  and  C_14 
REMARK    7  A    between atoms: C_18  and  C_19 
REMARK    8  A    between atoms: C_22  and  O_23 
ROOT
HETATM    1  N   UNL     1      40.593 -12.917   6.554  1.00  0.00    -0.149 N 
HETATM    2  C   UNL     1      41.359 -13.259   5.470  1.00  0.00     0.290 C 
HETATM    3  O   UNL     1      41.908 -12.501   4.676  1.00  0.00    -0.265 OA
HETATM    4  H   UNL     1      40.193 -13.660   7.108  1.00  0.00     0.188 HD
ENDROOT
BRANCH   1   5
HETATM    5  C   UNL     1      40.299 -11.642   6.931  1.00  0.00     0.747 A 
HETATM    6  N   UNL     1      41.239 -10.921   7.623  1.00  0.00    -0.046 NA
HETATM    7  C   UNL     1      40.651  -9.760   7.830  1.00  0.00     0.140 A 
HETATM    8  N   UNL     1      39.409  -9.796   7.265  1.00  0.00    -0.248 N 
HETATM    9  N   UNL     1      39.164 -10.981   6.706  1.00  0.00     0.020 NA
HETATM   10  H   UNL     1      38.695  -9.076   7.233  1.00  0.00     0.191 HD
BRANCH   7  11
HETATM   11  C   UNL     1      41.176  -8.554   8.523  1.00  0.00     0.085 C 
BRANCH  11  12
HETATM   12  C   UNL     1      40.302  -8.164   9.719  1.00  0.00     0.046 C 
BRANCH  12  13
HETATM   13  C   UNL     1      40.911  -8.589  11.033  1.00  0.00    -0.058 A 
HETATM   14  C   UNL     1      40.167  -8.501  12.217  1.00  0.00     0.010 A 
HETATM   15  C   UNL     1      40.717  -8.896  13.441  1.00  0.00     0.037 A 
HETATM   16  C   UNL     1      42.019  -9.387  13.497  1.00  0.00     0.068 A 
HETATM   17  C   UNL     1      42.770  -9.460  12.320  1.00  0.00     0.037 A 
HETATM   18  C   UNL     1      42.224  -9.064  11.096  1.00  0.00     0.010 A 
BRANCH  16  19
HETATM   19  O   UNL     1      42.669  -9.815  14.621  1.00  0.00    -0.356 OA
HETATM   20  C   UNL     1      42.156  -9.363  15.869  1.00  0.00     0.210 C 
ENDBRANCH  16  19
ENDBRANCH  12  13
ENDBRANCH  11  12
ENDBRANCH   7  11
ENDBRANCH   1   5
BRANCH   2  21
HETATM   21  C   UNL     1      41.464 -14.720   5.299  1.00  0.00     0.147 A 
HETATM   22  N   UNL     1      40.495 -15.578   5.673  1.00  0.00    -0.169 NA
HETATM   23  N   UNL     1      40.983 -16.786   5.324  1.00  0.00    -0.277 N 
HETATM   24  H   UNL     1      40.405 -17.603   5.494  1.00  0.00     0.189 HD
HETATM   25  C   UNL     1      42.216 -16.750   4.726  1.00  0.00     0.063 A 
HETATM   26  C   UNL     1      42.555 -15.413   4.714  1.00  0.00     0.071 A 
BRANCH  25  27
HETATM   27  C   UNL     1      42.919 -17.918   4.198  1.00  0.00    -0.008 A 
HETATM   28  C   UNL     1      42.741 -18.287   2.860  1.00  0.00     0.016 A 
HETATM   29  C   UNL     1      43.403 -19.399   2.332  1.00  0.00     0.037 A 
HETATM   30  C   UNL     1      44.259 -20.160   3.128  1.00  0.00     0.068 A 
HETATM   31  C   UNL     1      44.446 -19.798   4.462  1.00  0.00     0.037 A 
HETATM   32  C   UNL     1      43.779 -18.684   4.994  1.00  0.00     0.016 A 
BRANCH  30  33
HETATM   33  O   UNL     1      44.842 -21.217   2.486  1.00  0.00    -0.356 OA
HETATM   34  C   UNL     1      44.058 -21.894   1.512  1.00  0.00     0.210 C 
ENDBRANCH  30  33
ENDBRANCH  25  27
ENDBRANCH   2  21
TORSDOF 8
ENDMDL
MODEL 10
REMARK VINA RESULT:      -7.7      2.975     11.684
REMARK  8 active torsions:
REMARK  status: ('A' for Active; 'I' for Inactive)
REMARK    1  A    between atoms: O_2  and  C_3 
REMARK    2  A    between atoms: C_6  and  C_7 
REMARK    3  A    between atoms: C_7  and  C_8 
REMARK    4  A    between atoms: C_8  and  C_9 
REMARK    5  A    between atoms: C_11  and  N_12 
REMARK       I    between atoms: N_12  and  C_13 
REMARK    6  A    between atoms: C_13  and  C_14 
REMARK    7  A    between atoms: C_18  and  C_19 
REMARK    8  A    between atoms: C_22  and  O_23 
ROOT
HETATM    1  N   UNL     1      40.240 -12.548   6.631  1.00  0.00    -0.149 N 
HETATM    2  C   UNL     1      39.631 -12.646   5.407  1.00  0.00     0.290 C 
HETATM    3  O   UNL     1      38.605 -12.083   5.038  1.00  0.00    -0.265 OA
HETATM    4  H   UNL     1      41.078 -13.089   6.791  1.00  0.00     0.188 HD
ENDROOT
BRANCH   1   5
HETATM    5  C   UNL     1      39.785 -11.798   7.672  1.00  0.00     0.747 A 
HETATM    6  N   UNL     1      40.357 -10.573   7.907  1.00  0.00    -0.046 NA
HETATM    7  C   UNL     1      39.705 -10.120   8.958  1.00  0.00     0.140 A 
HETATM    8  N   UNL     1      38.771 -11.046   9.321  1.00  0.00    -0.248 N 
HETATM    9  N   UNL     1      38.817 -12.118   8.529  1.00  0.00     0.020 NA
HETATM   10  H   UNL     1      38.097 -11.020  10.079  1.00  0.00     0.191 HD
BRANCH   7  11
HETATM   11  C   UNL     1      39.868  -8.829   9.679  1.00  0.00     0.085 C 
BRANCH  11  12
HETATM   12  C   UNL     1      41.337  -8.555  10.020  1.00  0.00     0.046 C 
BRANCH  12  13
HETATM   13  C   UNL     1      41.658  -8.881  11.458  1.00  0.00    -0.058 A 
HETATM   14  C   UNL     1      42.928  -9.361  11.807  1.00  0.00     0.010 A 
HETATM   15  C   UNL     1      43.241  -9.662  13.136  1.00  0.00     0.037 A 
HETATM   16  C   UNL     1      42.288  -9.484  14.137  1.00  0.00     0.068 A 
HETATM   17  C   UNL     1      41.016  -9.021  13.791  1.00  0.00     0.037 A 
HETATM   18  C   UNL     1      40.699  -8.722  12.463  1.00  0.00     0.010 A 
BRANCH  16  19
HETATM   19  O   UNL     1      42.469  -9.728  15.470  1.00  0.00    -0.356 OA
HETATM   20  C   UNL     1      41.400  -9.371  16.338  1.00  0.00     0.210 C 
ENDBRANCH  16  19
ENDBRANCH  12  13
ENDBRANCH  11  12
ENDBRANCH   7  11
ENDBRANCH   1   5
BRANCH   2  21
HETATM   21  C   UNL     1      40.341 -13.567   4.501  1.00  0.00     0.147 A 
HETATM   22  N   UNL     1      40.509 -13.327   3.186  1.00  0.00    -0.169 NA
HETATM   23  N   UNL     1      41.215 -14.391   2.752  1.00  0.00    -0.277 N 
HETATM   24  H   UNL     1      41.483 -14.421   1.773  1.00  0.00     0.189 HD
HETATM   25  C   UNL     1      41.527 -15.302   3.727  1.00  0.00     0.063 A 
HETATM   26  C   UNL     1      40.954 -14.792   4.873  1.00  0.00     0.071 A 
BRANCH  25  27
HETATM   27  C   UNL     1      42.340 -16.498   3.518  1.00  0.00    -0.008 A 
HETATM   28  C   UNL     1      42.460 -17.443   4.544  1.00  0.00     0.016 A 
HETATM   29  C   UNL     1      43.231 -18.595   4.368  1.00  0.00     0.037 A 
HETATM   30  C   UNL     1      43.893 -18.829   3.163  1.00  0.00     0.068 A 
HETATM   31  C   UNL     1      43.778 -17.896   2.133  1.00  0.00     0.037 A 
HETATM   32  C   UNL     1      43.006 -16.737   2.310  1.00  0.00     0.016 A 
BRANCH  30  33
HETATM   33  O   UNL     1      44.608 -19.993   3.125  1.00  0.00    -0.356 OA
HETATM   34  C   UNL     1      44.976 -20.567   4.373  1.00  0.00     0.210 C 
ENDBRANCH  30  33
ENDBRANCH  25  27
ENDBRANCH   2  21
TORSDOF 8
ENDMDL
