MODEL 1
REMARK VINA RESULT:      -9.6      0.000      0.000
REMARK  6 active torsions:
REMARK  status: ('A' for Active; 'I' for Inactive)
REMARK    1  A    between atoms: C_2  and  O_3 
REMARK    2  A    between atoms: O_3  and  C_4 
REMARK    3  A    between atoms: C_5  and  O_6 
REMARK    4  A    between atoms: C_9  and  C_10 
REMARK       I    between atoms: C_10  and  N_11 
REMARK    5  A    between atoms: N_11  and  N_12 
REMARK       I    between atoms: N_12  and  C_13 
REMARK    6  A    between atoms: C_13  and  C_14 
ROOT
HETATM    1  N   UNL     1      43.532 -14.397   5.929  1.00  0.00    -0.263 N 
HETATM    2  C   UNL     1      43.384 -15.742   6.201  1.00  0.00     0.270 C 
HETATM    3  O   UNL     1      43.204 -16.156   7.345  1.00  0.00    -0.266 OA
HETATM    4  H   UNL     1      43.613 -13.986   5.002  1.00  0.00     0.190 HD
ENDROOT
BRANCH   1   5
HETATM    5  N   UNL     1      43.443 -13.491   6.989  1.00  0.00    -0.263 N 
HETATM    6  C   UNL     1      44.617 -13.076   7.581  1.00  0.00     0.270 C 
HETATM    7  O   UNL     1      45.724 -13.428   7.177  1.00  0.00    -0.266 OA
HETATM    8  H   UNL     1      42.519 -13.388   7.407  1.00  0.00     0.190 HD
BRANCH   6   9
HETATM    9  C   UNL     1      44.489 -12.183   8.763  1.00  0.00     0.036 A 
HETATM   10  C   UNL     1      43.350 -11.374   8.860  1.00  0.00     0.056 A 
HETATM   11  C   UNL     1      43.169 -10.534   9.965  1.00  0.00     0.102 A 
HETATM   12  C   UNL     1      44.133 -10.519  10.994  1.00  0.00     0.102 A 
HETATM   13  C   UNL     1      45.266 -11.334  10.893  1.00  0.00     0.040 A 
HETATM   14  C   UNL     1      45.444 -12.165   9.783  1.00  0.00     0.020 A 
BRANCH  11  15
HETATM   15  O   UNL     1      42.089  -9.704  10.139  1.00  0.00    -0.353 OA
HETATM   16  C   UNL     1      40.806 -10.306  10.250  1.00  0.00     0.210 C 
ENDBRANCH  11  15
BRANCH  12  17
HETATM   17  O   UNL     1      43.877  -9.678  12.047  1.00  0.00    -0.349 OA
BRANCH  17  18
HETATM   18  C   UNL     1      43.220 -10.220  13.190  1.00  0.00     0.171 C 
HETATM   19  C   UNL     1      42.869  -9.070  14.117  1.00  0.00     0.034 C 
ENDBRANCH  17  18
ENDBRANCH  12  17
ENDBRANCH   6   9
ENDBRANCH   1   5
BRANCH   2  20
HETATM   20  C   UNL     1      43.425 -16.681   5.040  1.00  0.00     0.034 A 
HETATM   21  C   UNL     1      43.800 -18.028   5.173  1.00  0.00     0.031 A 
HETATM   22  C   UNL     1      43.844 -18.855   4.031  1.00  0.00    -0.000 A 
HETATM   23  C   UNL     1      43.493 -18.314   2.792  1.00  0.00     0.043 A 
HETATM   24  C   UNL     1      44.192 -20.216   3.809  1.00  0.00    -0.023 A 
HETATM   25  N   UNL     1      43.622 -19.316   1.853  1.00  0.00    -0.358 N 
HETATM   26  C   UNL     1      43.096 -16.982   2.637  1.00  0.00     0.031 A 
HETATM   27  H   UNL     1      43.428 -19.208   0.867  1.00  0.00     0.166 HD
HETATM   28  C   UNL     1      44.053 -20.462   2.459  1.00  0.00     0.017 A 
HETATM   29  C   UNL     1      44.302 -21.756   1.771  1.00  0.00     0.057 C 
HETATM   30  C   UNL     1      45.123 -22.680   2.690  1.00  0.00     0.006 C 
HETATM   31  C   UNL     1      44.606 -22.662   4.142  1.00  0.00     0.005 C 
HETATM   32  C   UNL     1      44.670 -21.256   4.767  1.00  0.00     0.041 C 
HETATM   33  C   UNL     1      43.070 -16.177   3.782  1.00  0.00     0.019 A 
ENDBRANCH   2  20
TORSDOF 6
ENDMDL
MODEL 2
REMARK VINA RESULT:      -8.6      1.566      2.066
REMARK  6 active torsions:
REMARK  status: ('A' for Active; 'I' for Inactive)
REMARK    1  A    between atoms: C_2  and  O_3 
REMARK    2  A    between atoms: O_3  and  C_4 
REMARK    3  A    between atoms: C_5  and  O_6 
REMARK    4  A    between atoms: C_9  and  C_10 
REMARK       I    between atoms: C_10  and  N_11 
REMARK    5  A    between atoms: N_11  and  N_12 
REMARK       I    between atoms: N_12  and  C_13 
REMARK    6  A    between atoms: C_13  and  C_14 
ROOT
HETATM    1  N   UNL     1      43.491 -13.385   6.985  1.00  0.00    -0.263 N 
HETATM    2  C   UNL     1      42.580 -13.655   5.984  1.00  0.00     0.270 C 
HETATM    3  O   UNL     1      41.541 -13.008   5.861  1.00  0.00    -0.266 OA
HETATM    4  H   UNL     1      44.396 -13.834   7.098  1.00  0.00     0.190 HD
ENDROOT
BRANCH   1   5
HETATM    5  N   UNL     1      43.226 -12.325   7.857  1.00  0.00    -0.263 N 
HETATM    6  C   UNL     1      43.995 -12.222   8.996  1.00  0.00     0.270 C 
HETATM    7  O   UNL     1      44.927 -12.987   9.238  1.00  0.00    -0.266 OA
HETATM    8  H   UNL     1      42.336 -11.849   7.718  1.00  0.00     0.190 HD
BRANCH   6   9
HETATM    9  C   UNL     1      43.634 -11.140   9.950  1.00  0.00     0.036 A 
HETATM   10  C   UNL     1      42.498 -10.367   9.674  1.00  0.00     0.056 A 
HETATM   11  C   UNL     1      42.101  -9.353  10.552  1.00  0.00     0.102 A 
HETATM   12  C   UNL     1      42.840  -9.123  11.732  1.00  0.00     0.102 A 
HETATM   13  C   UNL     1      43.970  -9.902  12.003  1.00  0.00     0.040 A 
HETATM   14  C   UNL     1      44.366 -10.908  11.117  1.00  0.00     0.020 A 
BRANCH  11  15
HETATM   15  O   UNL     1      41.007  -8.545  10.359  1.00  0.00    -0.353 OA
HETATM   16  C   UNL     1      39.732  -9.167  10.290  1.00  0.00     0.210 C 
ENDBRANCH  11  15
BRANCH  12  17
HETATM   17  O   UNL     1      42.378  -8.119  12.545  1.00  0.00    -0.349 OA
BRANCH  17  18
HETATM   18  C   UNL     1      41.637  -8.487  13.705  1.00  0.00     0.171 C 
HETATM   19  C   UNL     1      40.430  -7.571  13.799  1.00  0.00     0.034 C 
ENDBRANCH  17  18
ENDBRANCH  12  17
ENDBRANCH   6   9
ENDBRANCH   1   5
BRANCH   2  20
HETATM   20  C   UNL     1      42.919 -14.754   5.032  1.00  0.00     0.034 A 
HETATM   21  C   UNL     1      43.247 -16.051   5.463  1.00  0.00     0.031 A 
HETATM   22  C   UNL     1      43.585 -17.036   4.512  1.00  0.00    -0.000 A 
HETATM   23  C   UNL     1      43.567 -16.700   3.156  1.00  0.00     0.043 A 
HETATM   24  C   UNL     1      43.977 -18.400   4.599  1.00  0.00    -0.023 A 
HETATM   25  N   UNL     1      43.934 -17.826   2.448  1.00  0.00    -0.358 N 
HETATM   26  C   UNL     1      43.225 -15.424   2.701  1.00  0.00     0.031 A 
HETATM   27  H   UNL     1      44.003 -17.874   1.441  1.00  0.00     0.166 HD
HETATM   28  C   UNL     1      44.193 -18.850   3.313  1.00  0.00     0.017 A 
HETATM   29  C   UNL     1      44.611 -20.222   2.920  1.00  0.00     0.057 C 
HETATM   30  C   UNL     1      45.165 -20.966   4.151  1.00  0.00     0.006 C 
HETATM   31  C   UNL     1      44.290 -20.751   5.401  1.00  0.00     0.005 C 
HETATM   32  C   UNL     1      44.190 -19.266   5.797  1.00  0.00     0.041 C 
HETATM   33  C   UNL     1      42.903 -14.459   3.663  1.00  0.00     0.019 A 
ENDBRANCH   2  20
TORSDOF 6
ENDMDL
MODEL 3
REMARK VINA RESULT:      -8.5      7.403     10.929
REMARK  6 active torsions:
REMARK  status: ('A' for Active; 'I' for Inactive)
REMARK    1  A    between atoms: C_2  and  O_3 
REMARK    2  A    between atoms: O_3  and  C_4 
REMARK    3  A    between atoms: C_5  and  O_6 
REMARK    4  A    between atoms: C_9  and  C_10 
REMARK       I    between atoms: C_10  and  N_11 
REMARK    5  A    between atoms: N_11  and  N_12 
REMARK       I    between atoms: N_12  and  C_13 
REMARK    6  A    between atoms: C_13  and  C_14 
ROOT
HETATM    1  N   UNL     1      40.465 -15.377   0.079  1.00  0.00    -0.263 N 
HETATM    2  C   UNL     1      40.191 -15.709   1.390  1.00  0.00     0.270 C 
HETATM    3  O   UNL     1      39.094 -15.484   1.900  1.00  0.00    -0.266 OA
HETATM    4  H   UNL     1      41.323 -15.598  -0.421  1.00  0.00     0.190 HD
ENDROOT
BRANCH   1   5
HETATM    5  N   UNL     1      39.450 -14.797  -0.685  1.00  0.00    -0.263 N 
HETATM    6  C   UNL     1      39.531 -14.913  -2.057  1.00  0.00     0.270 C 
HETATM    7  O   UNL     1      40.423 -15.548  -2.617  1.00  0.00    -0.266 OA
HETATM    8  H   UNL     1      38.856 -14.127  -0.199  1.00  0.00     0.190 HD
BRANCH   6   9
HETATM    9  C   UNL     1      38.488 -14.210  -2.849  1.00  0.00     0.036 A 
HETATM   10  C   UNL     1      38.494 -12.809  -2.857  1.00  0.00     0.056 A 
HETATM   11  C   UNL     1      37.549 -12.100  -3.607  1.00  0.00     0.102 A 
HETATM   12  C   UNL     1      36.597 -12.804  -4.374  1.00  0.00     0.102 A 
HETATM   13  C   UNL     1      36.600 -14.203  -4.365  1.00  0.00     0.040 A 
HETATM   14  C   UNL     1      37.542 -14.906  -3.608  1.00  0.00     0.020 A 
BRANCH  11  15
HETATM   15  O   UNL     1      37.478 -10.730  -3.668  1.00  0.00    -0.353 OA
HETATM   16  C   UNL     1      38.159  -9.989  -2.665  1.00  0.00     0.210 C 
ENDBRANCH  11  15
BRANCH  12  17
HETATM   17  O   UNL     1      35.714 -12.036  -5.090  1.00  0.00    -0.349 OA
BRANCH  17  18
HETATM   18  C   UNL     1      34.526 -12.659  -5.570  1.00  0.00     0.171 C 
HETATM   19  C   UNL     1      33.412 -12.369  -4.580  1.00  0.00     0.034 C 
ENDBRANCH  17  18
ENDBRANCH  12  17
ENDBRANCH   6   9
ENDBRANCH   1   5
BRANCH   2  20
HETATM   20  C   UNL     1      41.276 -16.383   2.164  1.00  0.00     0.034 A 
HETATM   21  C   UNL     1      41.708 -17.689   1.877  1.00  0.00     0.031 A 
HETATM   22  C   UNL     1      42.719 -18.277   2.665  1.00  0.00    -0.000 A 
HETATM   23  C   UNL     1      43.282 -17.535   3.705  1.00  0.00     0.043 A 
HETATM   24  C   UNL     1      43.358 -19.548   2.666  1.00  0.00    -0.023 A 
HETATM   25  N   UNL     1      44.232 -18.330   4.313  1.00  0.00    -0.358 N 
HETATM   26  C   UNL     1      42.885 -16.226   3.998  1.00  0.00     0.031 A 
HETATM   27  H   UNL     1      44.802 -18.046   5.097  1.00  0.00     0.166 HD
HETATM   28  C   UNL     1      44.274 -19.548   3.697  1.00  0.00     0.017 A 
HETATM   29  C   UNL     1      45.178 -20.668   4.070  1.00  0.00     0.057 C 
HETATM   30  C   UNL     1      44.681 -21.972   3.417  1.00  0.00     0.006 C 
HETATM   31  C   UNL     1      44.270 -21.765   1.946  1.00  0.00     0.005 C 
HETATM   32  C   UNL     1      43.131 -20.740   1.796  1.00  0.00     0.041 C 
HETATM   33  C   UNL     1      41.872 -15.666   3.209  1.00  0.00     0.019 A 
ENDBRANCH   2  20
TORSDOF 6
ENDMDL
MODEL 4
REMARK VINA RESULT:      -8.5      6.851     11.367
REMARK  6 active torsions:
REMARK  status: ('A' for Active; 'I' for Inactive)
REMARK    1  A    between atoms: C_2  and  O_3 
REMARK    2  A    between atoms: O_3  and  C_4 
REMARK    3  A    between atoms: C_5  and  O_6 
REMARK    4  A    between atoms: C_9  and  C_10 
REMARK       I    between atoms: C_10  and  N_11 
REMARK    5  A    between atoms: N_11  and  N_12 
REMARK       I    between atoms: N_12  and  C_13 
REMARK    6  A    between atoms: C_13  and  C_14 
ROOT
HETATM    1  N   UNL     1      41.681 -15.934  -0.690  1.00  0.00    -0.263 N 
HETATM    2  C   UNL     1      41.552 -14.574  -0.492  1.00  0.00     0.270 C 
HETATM    3  O   UNL     1      42.045 -14.011   0.485  1.00  0.00    -0.266 OA
HETATM    4  H   UNL     1      41.360 -16.446  -1.508  1.00  0.00     0.190 HD
ENDROOT
BRANCH   1   5
HETATM    5  N   UNL     1      42.421 -16.673   0.237  1.00  0.00    -0.263 N 
HETATM    6  C   UNL     1      41.730 -17.331   1.233  1.00  0.00     0.270 C 
HETATM    7  O   UNL     1      40.502 -17.334   1.297  1.00  0.00    -0.266 OA
HETATM    8  H   UNL     1      43.421 -16.480   0.261  1.00  0.00     0.190 HD
BRANCH   6   9
HETATM    9  C   UNL     1      42.545 -18.035   2.257  1.00  0.00     0.036 A 
HETATM   10  C   UNL     1      43.327 -19.123   1.848  1.00  0.00     0.056 A 
HETATM   11  C   UNL     1      44.131 -19.805   2.768  1.00  0.00     0.102 A 
HETATM   12  C   UNL     1      44.168 -19.378   4.112  1.00  0.00     0.102 A 
HETATM   13  C   UNL     1      43.388 -18.288   4.513  1.00  0.00     0.040 A 
HETATM   14  C   UNL     1      42.580 -17.616   3.591  1.00  0.00     0.020 A 
BRANCH  11  15
HETATM   15  O   UNL     1      44.923 -20.882   2.456  1.00  0.00    -0.353 OA
HETATM   16  C   UNL     1      44.320 -21.963   1.758  1.00  0.00     0.210 C 
ENDBRANCH  11  15
BRANCH  12  17
HETATM   17  O   UNL     1      44.990 -20.091   4.948  1.00  0.00    -0.349 OA
BRANCH  17  18
HETATM   18  C   UNL     1      44.393 -21.066   5.798  1.00  0.00     0.171 C 
HETATM   19  C   UNL     1      44.946 -22.425   5.411  1.00  0.00     0.034 C 
ENDBRANCH  17  18
ENDBRANCH  12  17
ENDBRANCH   6   9
ENDBRANCH   1   5
BRANCH   2  20
HETATM   20  C   UNL     1      40.808 -13.801  -1.531  1.00  0.00     0.034 A 
HETATM   21  C   UNL     1      41.434 -12.852  -2.356  1.00  0.00     0.031 A 
HETATM   22  C   UNL     1      40.667 -12.136  -3.299  1.00  0.00    -0.000 A 
HETATM   23  C   UNL     1      39.300 -12.405  -3.402  1.00  0.00     0.043 A 
HETATM   24  C   UNL     1      40.964 -11.119  -4.248  1.00  0.00    -0.023 A 
HETATM   25  N   UNL     1      38.789 -11.579  -4.382  1.00  0.00    -0.358 N 
HETATM   26  C   UNL     1      38.658 -13.360  -2.607  1.00  0.00     0.031 A 
HETATM   27  H   UNL     1      37.821 -11.562  -4.672  1.00  0.00     0.166 HD
HETATM   28  C   UNL     1      39.786 -10.795  -4.888  1.00  0.00     0.017 A 
HETATM   29  C   UNL     1      39.621  -9.783  -5.965  1.00  0.00     0.057 C 
HETATM   30  C   UNL     1      40.851  -8.857  -5.997  1.00  0.00     0.006 C 
HETATM   31  C   UNL     1      42.171  -9.640  -5.867  1.00  0.00     0.005 C 
HETATM   32  C   UNL     1      42.254 -10.431  -4.548  1.00  0.00     0.041 C 
HETATM   33  C   UNL     1      39.436 -14.050  -1.670  1.00  0.00     0.019 A 
ENDBRANCH   2  20
TORSDOF 6
ENDMDL
MODEL 5
REMARK VINA RESULT:      -8.3      7.122     10.250
REMARK  6 active torsions:
REMARK  status: ('A' for Active; 'I' for Inactive)
REMARK    1  A    between atoms: C_2  and  O_3 
REMARK    2  A    between atoms: O_3  and  C_4 
REMARK    3  A    between atoms: C_5  and  O_6 
REMARK    4  A    between atoms: C_9  and  C_10 
REMARK       I    between atoms: C_10  and  N_11 
REMARK    5  A    between atoms: N_11  and  N_12 
REMARK       I    between atoms: N_12  and  C_13 
REMARK    6  A    between atoms: C_13  and  C_14 
ROOT
HETATM    1  N   UNL     1      39.977 -15.445   1.011  1.00  0.00    -0.263 N 
HETATM    2  C   UNL     1      41.108 -16.101   0.570  1.00  0.00     0.270 C 
HETATM    3  O   UNL     1      41.427 -16.117  -0.619  1.00  0.00    -0.266 OA
HETATM    4  H   UNL     1      39.698 -15.336   1.983  1.00  0.00     0.190 HD
ENDROOT
BRANCH   1   5
HETATM    5  N   UNL     1      39.200 -14.758   0.075  1.00  0.00    -0.263 N 
HETATM    6  C   UNL     1      39.076 -13.392   0.221  1.00  0.00     0.270 C 
HETATM    7  O   UNL     1      39.663 -12.763   1.099  1.00  0.00    -0.266 OA
HETATM    8  H   UNL     1      38.587 -15.334  -0.500  1.00  0.00     0.190 HD
BRANCH   6   9
HETATM    9  C   UNL     1      38.171 -12.699  -0.734  1.00  0.00     0.036 A 
HETATM   10  C   UNL     1      37.957 -13.286  -1.988  1.00  0.00     0.056 A 
HETATM   11  C   UNL     1      37.096 -12.687  -2.914  1.00  0.00     0.102 A 
HETATM   12  C   UNL     1      36.424 -11.495  -2.571  1.00  0.00     0.102 A 
HETATM   13  C   UNL     1      36.638 -10.917  -1.314  1.00  0.00     0.040 A 
HETATM   14  C   UNL     1      37.507 -11.516  -0.397  1.00  0.00     0.020 A 
BRANCH  11  15
HETATM   15  O   UNL     1      36.833 -13.188  -4.165  1.00  0.00    -0.353 OA
HETATM   16  C   UNL     1      36.763 -14.599  -4.309  1.00  0.00     0.210 C 
ENDBRANCH  11  15
BRANCH  12  17
HETATM   17  O   UNL     1      35.588 -10.977  -3.528  1.00  0.00    -0.349 OA
BRANCH  17  18
HETATM   18  C   UNL     1      34.186 -11.014  -3.280  1.00  0.00     0.171 C 
HETATM   19  C   UNL     1      33.572 -12.037  -4.220  1.00  0.00     0.034 C 
ENDBRANCH  17  18
ENDBRANCH  12  17
ENDBRANCH   6   9
ENDBRANCH   1   5
BRANCH   2  20
HETATM   20  C   UNL     1      41.951 -16.776   1.601  1.00  0.00     0.034 A 
HETATM   21  C   UNL     1      42.370 -18.112   1.477  1.00  0.00     0.031 A 
HETATM   22  C   UNL     1      43.142 -18.697   2.502  1.00  0.00    -0.000 A 
HETATM   23  C   UNL     1      43.490 -17.924   3.612  1.00  0.00     0.043 A 
HETATM   24  C   UNL     1      43.698 -19.991   2.704  1.00  0.00    -0.023 A 
HETATM   25  N   UNL     1      44.233 -18.723   4.455  1.00  0.00    -0.358 N 
HETATM   26  C   UNL     1      43.104 -16.586   3.749  1.00  0.00     0.031 A 
HETATM   27  H   UNL     1      44.622 -18.421   5.338  1.00  0.00     0.166 HD
HETATM   28  C   UNL     1      44.352 -19.973   3.918  1.00  0.00     0.017 A 
HETATM   29  C   UNL     1      45.088 -21.107   4.537  1.00  0.00     0.057 C 
HETATM   30  C   UNL     1      44.688 -22.423   3.843  1.00  0.00     0.006 C 
HETATM   31  C   UNL     1      44.636 -22.278   2.310  1.00  0.00     0.005 C 
HETATM   32  C   UNL     1      43.614 -21.217   1.857  1.00  0.00     0.041 C 
HETATM   33  C   UNL     1      42.329 -16.029   2.725  1.00  0.00     0.019 A 
ENDBRANCH   2  20
TORSDOF 6
ENDMDL
MODEL 6
REMARK VINA RESULT:      -8.3      2.630     10.973
REMARK  6 active torsions:
REMARK  status: ('A' for Active; 'I' for Inactive)
REMARK    1  A    between atoms: C_2  and  O_3 
REMARK    2  A    between atoms: O_3  and  C_4 
REMARK    3  A    between atoms: C_5  and  O_6 
REMARK    4  A    between atoms: C_9  and  C_10 
REMARK       I    between atoms: C_10  and  N_11 
REMARK    5  A    between atoms: N_11  and  N_12 
REMARK       I    between atoms: N_12  and  C_13 
REMARK    6  A    between atoms: C_13  and  C_14 
ROOT
HETATM    1  N   UNL     1      42.506 -13.272   6.608  1.00  0.00    -0.263 N 
HETATM    2  C   UNL     1      41.908 -12.110   6.166  1.00  0.00     0.270 C 
HETATM    3  O   UNL     1      41.526 -11.978   5.004  1.00  0.00    -0.266 OA
HETATM    4  H   UNL     1      42.779 -13.469   7.568  1.00  0.00     0.190 HD
ENDROOT
BRANCH   1   5
HETATM    5  N   UNL     1      42.646 -14.331   5.708  1.00  0.00    -0.263 N 
HETATM    6  C   UNL     1      43.248 -15.486   6.162  1.00  0.00     0.270 C 
HETATM    7  O   UNL     1      43.608 -15.631   7.329  1.00  0.00    -0.266 OA
HETATM    8  H   UNL     1      42.519 -14.097   4.725  1.00  0.00     0.190 HD
BRANCH   6   9
HETATM    9  C   UNL     1      43.466 -16.563   5.161  1.00  0.00     0.036 A 
HETATM   10  C   UNL     1      43.383 -16.231   3.803  1.00  0.00     0.056 A 
HETATM   11  C   UNL     1      43.604 -17.202   2.820  1.00  0.00     0.102 A 
HETATM   12  C   UNL     1      43.931 -18.520   3.204  1.00  0.00     0.102 A 
HETATM   13  C   UNL     1      44.017 -18.844   4.563  1.00  0.00     0.040 A 
HETATM   14  C   UNL     1      43.787 -17.870   5.539  1.00  0.00     0.020 A 
BRANCH  11  15
HETATM   15  O   UNL     1      43.537 -16.967   1.469  1.00  0.00    -0.353 OA
HETATM   16  C   UNL     1      42.270 -16.639   0.918  1.00  0.00     0.210 C 
ENDBRANCH  11  15
BRANCH  12  17
HETATM   17  O   UNL     1      44.144 -19.409   2.181  1.00  0.00    -0.349 OA
BRANCH  17  18
HETATM   18  C   UNL     1      44.606 -20.714   2.517  1.00  0.00     0.171 C 
HETATM   19  C   UNL     1      43.763 -21.720   1.754  1.00  0.00     0.034 C 
ENDBRANCH  17  18
ENDBRANCH  12  17
ENDBRANCH   6   9
ENDBRANCH   1   5
BRANCH   2  20
HETATM   20  C   UNL     1      41.718 -11.017   7.167  1.00  0.00     0.034 A 
HETATM   21  C   UNL     1      42.291 -11.062   8.449  1.00  0.00     0.031 A 
HETATM   22  C   UNL     1      42.048 -10.009   9.356  1.00  0.00    -0.000 A 
HETATM   23  C   UNL     1      41.255  -8.934   8.948  1.00  0.00     0.043 A 
HETATM   24  C   UNL     1      42.440  -9.752  10.699  1.00  0.00    -0.023 A 
HETATM   25  N   UNL     1      41.174  -8.056  10.008  1.00  0.00    -0.358 N 
HETATM   26  C   UNL     1      40.692  -8.857   7.670  1.00  0.00     0.031 A 
HETATM   27  H   UNL     1      40.664  -7.183   9.993  1.00  0.00     0.166 HD
HETATM   28  C   UNL     1      41.877  -8.549  11.070  1.00  0.00     0.017 A 
HETATM   29  C   UNL     1      42.023  -7.879  12.389  1.00  0.00     0.057 C 
HETATM   30  C   UNL     1      42.550  -8.889  13.426  1.00  0.00     0.006 C 
HETATM   31  C   UNL     1      43.696  -9.753  12.865  1.00  0.00     0.005 C 
HETATM   32  C   UNL     1      43.261 -10.574  11.636  1.00  0.00     0.041 C 
HETATM   33  C   UNL     1      40.937  -9.917   6.790  1.00  0.00     0.019 A 
ENDBRANCH   2  20
TORSDOF 6
ENDMDL
MODEL 7
REMARK VINA RESULT:      -8.2      6.896     10.264
REMARK  6 active torsions:
REMARK  status: ('A' for Active; 'I' for Inactive)
REMARK    1  A    between atoms: C_2  and  O_3 
REMARK    2  A    between atoms: O_3  and  C_4 
REMARK    3  A    between atoms: C_5  and  O_6 
REMARK    4  A    between atoms: C_9  and  C_10 
REMARK       I    between atoms: C_10  and  N_11 
REMARK    5  A    between atoms: N_11  and  N_12 
REMARK       I    between atoms: N_12  and  C_13 
REMARK    6  A    between atoms: C_13  and  C_14 
ROOT
HETATM    1  N   UNL     1      41.863 -15.578  -0.223  1.00  0.00    -0.263 N 
HETATM    2  C   UNL     1      41.302 -15.874   1.002  1.00  0.00     0.270 C 
HETATM    3  O   UNL     1      40.157 -15.532   1.292  1.00  0.00    -0.266 OA
HETATM    4  H   UNL     1      42.774 -15.891  -0.548  1.00  0.00     0.190 HD
ENDROOT
BRANCH   1   5
HETATM    5  N   UNL     1      41.085 -14.895  -1.162  1.00  0.00    -0.263 N 
HETATM    6  C   UNL     1      41.295 -13.540  -1.308  1.00  0.00     0.270 C 
HETATM    7  O   UNL     1      42.168 -12.934  -0.689  1.00  0.00    -0.266 OA
HETATM    8  H   UNL     1      40.259 -15.389  -1.496  1.00  0.00     0.190 HD
BRANCH   6   9
HETATM    9  C   UNL     1      40.394 -12.823  -2.247  1.00  0.00     0.036 A 
HETATM   10  C   UNL     1      39.187 -13.437  -2.606  1.00  0.00     0.056 A 
HETATM   11  C   UNL     1      38.292 -12.793  -3.467  1.00  0.00     0.102 A 
HETATM   12  C   UNL     1      38.602 -11.508  -3.961  1.00  0.00     0.102 A 
HETATM   13  C   UNL     1      39.807 -10.898  -3.595  1.00  0.00     0.040 A 
HETATM   14  C   UNL     1      40.700 -11.551  -2.740  1.00  0.00     0.020 A 
BRANCH  11  15
HETATM   15  O   UNL     1      37.092 -13.322  -3.875  1.00  0.00    -0.353 OA
HETATM   16  C   UNL     1      37.025 -14.727  -4.076  1.00  0.00     0.210 C 
ENDBRANCH  11  15
BRANCH  12  17
HETATM   17  O   UNL     1      37.667 -10.940  -4.790  1.00  0.00    -0.349 OA
BRANCH  17  18
HETATM   18  C   UNL     1      37.949  -9.653  -5.330  1.00  0.00     0.171 C 
HETATM   19  C   UNL     1      36.943  -8.673  -4.753  1.00  0.00     0.034 C 
ENDBRANCH  17  18
ENDBRANCH  12  17
ENDBRANCH   6   9
ENDBRANCH   1   5
BRANCH   2  20
HETATM   20  C   UNL     1      42.137 -16.657   1.962  1.00  0.00     0.034 A 
HETATM   21  C   UNL     1      42.495 -17.996   1.732  1.00  0.00     0.031 A 
HETATM   22  C   UNL     1      43.263 -18.687   2.693  1.00  0.00    -0.000 A 
HETATM   23  C   UNL     1      43.665 -18.012   3.848  1.00  0.00     0.043 A 
HETATM   24  C   UNL     1      43.766 -20.013   2.788  1.00  0.00    -0.023 A 
HETATM   25  N   UNL     1      44.390 -18.901   4.614  1.00  0.00    -0.358 N 
HETATM   26  C   UNL     1      43.339 -16.674   4.091  1.00  0.00     0.031 A 
HETATM   27  H   UNL     1      44.810 -18.681   5.507  1.00  0.00     0.166 HD
HETATM   28  C   UNL     1      44.445 -20.112   3.985  1.00  0.00     0.017 A 
HETATM   29  C   UNL     1      45.145 -21.318   4.502  1.00  0.00     0.057 C 
HETATM   30  C   UNL     1      44.674 -22.561   3.724  1.00  0.00     0.006 C 
HETATM   31  C   UNL     1      44.598 -22.302   2.207  1.00  0.00     0.005 C 
HETATM   32  C   UNL     1      43.614 -21.169   1.856  1.00  0.00     0.041 C 
HETATM   33  C   UNL     1      42.568 -16.011   3.128  1.00  0.00     0.019 A 
ENDBRANCH   2  20
TORSDOF 6
ENDMDL
MODEL 8
REMARK VINA RESULT:      -8.0      7.042      9.552
REMARK  6 active torsions:
REMARK  status: ('A' for Active; 'I' for Inactive)
REMARK    1  A    between atoms: C_2  and  O_3 
REMARK    2  A    between atoms: O_3  and  C_4 
REMARK    3  A    between atoms: C_5  and  O_6 
REMARK    4  A    between atoms: C_9  and  C_10 
REMARK       I    between atoms: C_10  and  N_11 
REMARK    5  A    between atoms: N_11  and  N_12 
REMARK       I    between atoms: N_12  and  C_13 
REMARK    6  A    between atoms: C_13  and  C_14 
ROOT
HETATM    1  N   UNL     1      39.849 -15.476   1.292  1.00  0.00    -0.263 N 
HETATM    2  C   UNL     1      41.155 -15.735   0.929  1.00  0.00     0.270 C 
HETATM    3  O   UNL     1      41.623 -15.335  -0.136  1.00  0.00    -0.266 OA
HETATM    4  H   UNL     1      39.424 -15.716   2.184  1.00  0.00     0.190 HD
ENDROOT
BRANCH   1   5
HETATM    5  N   UNL     1      39.058 -14.713   0.429  1.00  0.00    -0.263 N 
HETATM    6  C   UNL     1      38.648 -13.470   0.862  1.00  0.00     0.270 C 
HETATM    7  O   UNL     1      38.997 -12.996   1.942  1.00  0.00    -0.266 OA
HETATM    8  H   UNL     1      38.640 -15.217  -0.351  1.00  0.00     0.190 HD
BRANCH   6   9
HETATM    9  C   UNL     1      37.735 -12.717  -0.037  1.00  0.00     0.036 A 
HETATM   10  C   UNL     1      36.673 -12.008   0.539  1.00  0.00     0.056 A 
HETATM   11  C   UNL     1      35.800 -11.264  -0.261  1.00  0.00     0.102 A 
HETATM   12  C   UNL     1      36.004 -11.213  -1.656  1.00  0.00     0.102 A 
HETATM   13  C   UNL     1      37.070 -11.920  -2.225  1.00  0.00     0.040 A 
HETATM   14  C   UNL     1      37.934 -12.668  -1.420  1.00  0.00     0.020 A 
BRANCH  11  15
HETATM   15  O   UNL     1      34.732 -10.546   0.218  1.00  0.00    -0.353 OA
HETATM   16  C   UNL     1      34.767 -10.140   1.579  1.00  0.00     0.210 C 
ENDBRANCH  11  15
BRANCH  12  17
HETATM   17  O   UNL     1      35.112 -10.453  -2.368  1.00  0.00    -0.349 OA
BRANCH  17  18
HETATM   18  C   UNL     1      35.605  -9.295  -3.036  1.00  0.00     0.171 C 
HETATM   19  C   UNL     1      35.304  -9.445  -4.516  1.00  0.00     0.034 C 
ENDBRANCH  17  18
ENDBRANCH  12  17
ENDBRANCH   6   9
ENDBRANCH   1   5
BRANCH   2  20
HETATM   20  C   UNL     1      41.993 -16.501   1.899  1.00  0.00     0.034 A 
HETATM   21  C   UNL     1      42.358 -17.841   1.685  1.00  0.00     0.031 A 
HETATM   22  C   UNL     1      43.129 -18.516   2.655  1.00  0.00    -0.000 A 
HETATM   23  C   UNL     1      43.527 -17.825   3.802  1.00  0.00     0.043 A 
HETATM   24  C   UNL     1      43.639 -19.838   2.766  1.00  0.00    -0.023 A 
HETATM   25  N   UNL     1      44.256 -18.701   4.579  1.00  0.00    -0.358 N 
HETATM   26  C   UNL     1      43.194 -16.486   4.028  1.00  0.00     0.031 A 
HETATM   27  H   UNL     1      44.674 -18.468   5.469  1.00  0.00     0.166 HD
HETATM   28  C   UNL     1      44.318 -19.919   3.964  1.00  0.00     0.017 A 
HETATM   29  C   UNL     1      45.024 -21.115   4.497  1.00  0.00     0.057 C 
HETATM   30  C   UNL     1      44.560 -22.370   3.733  1.00  0.00     0.006 C 
HETATM   31  C   UNL     1      44.483 -22.129   2.213  1.00  0.00     0.005 C 
HETATM   32  C   UNL     1      43.494 -21.007   1.848  1.00  0.00     0.041 C 
HETATM   33  C   UNL     1      42.420 -15.839   3.057  1.00  0.00     0.019 A 
ENDBRANCH   2  20
TORSDOF 6
ENDMDL
MODEL 9
REMARK VINA RESULT:      -8.0      6.560     10.861
REMARK  6 active torsions:
REMARK  status: ('A' for Active; 'I' for Inactive)
REMARK    1  A    between atoms: C_2  and  O_3 
REMARK    2  A    between atoms: O_3  and  C_4 
REMARK    3  A    between atoms: C_5  and  O_6 
REMARK    4  A    between atoms: C_9  and  C_10 
REMARK       I    between atoms: C_10  and  N_11 
REMARK    5  A    between atoms: N_11  and  N_12 
REMARK       I    between atoms: N_12  and  C_13 
REMARK    6  A    between atoms: C_13  and  C_14 
ROOT
HETATM    1  N   UNL     1      40.785 -15.891  -0.067  1.00  0.00    -0.263 N 
HETATM    2  C   UNL     1      41.037 -14.535  -0.039  1.00  0.00     0.270 C 
HETATM    3  O   UNL     1      42.022 -14.070   0.534  1.00  0.00    -0.266 OA
HETATM    4  H   UNL     1      40.031 -16.342  -0.580  1.00  0.00     0.190 HD
ENDROOT
BRANCH   1   5
HETATM    5  N   UNL     1      41.697 -16.750   0.551  1.00  0.00    -0.263 N 
HETATM    6  C   UNL     1      41.397 -17.203   1.818  1.00  0.00     0.270 C 
HETATM    7  O   UNL     1      40.344 -16.926   2.389  1.00  0.00    -0.266 OA
HETATM    8  H   UNL     1      42.624 -16.788   0.130  1.00  0.00     0.190 HD
BRANCH   6   9
HETATM    9  C   UNL     1      42.426 -18.043   2.487  1.00  0.00     0.036 A 
HETATM   10  C   UNL     1      42.597 -17.902   3.870  1.00  0.00     0.056 A 
HETATM   11  C   UNL     1      43.535 -18.686   4.552  1.00  0.00     0.102 A 
HETATM   12  C   UNL     1      44.296 -19.637   3.841  1.00  0.00     0.102 A 
HETATM   13  C   UNL     1      44.117 -19.776   2.460  1.00  0.00     0.040 A 
HETATM   14  C   UNL     1      43.184 -18.984   1.784  1.00  0.00     0.020 A 
BRANCH  11  15
HETATM   15  O   UNL     1      43.772 -18.611   5.902  1.00  0.00    -0.353 OA
HETATM   16  C   UNL     1      44.397 -17.435   6.397  1.00  0.00     0.210 C 
ENDBRANCH  11  15
BRANCH  12  17
HETATM   17  O   UNL     1      45.184 -20.374   4.583  1.00  0.00    -0.349 OA
BRANCH  17  18
HETATM   18  C   UNL     1      44.693 -21.526   5.262  1.00  0.00     0.171 C 
HETATM   19  C   UNL     1      44.743 -22.695   4.295  1.00  0.00     0.034 C 
ENDBRANCH  17  18
ENDBRANCH  12  17
ENDBRANCH   6   9
ENDBRANCH   1   5
BRANCH   2  20
HETATM   20  C   UNL     1      40.076 -13.647  -0.759  1.00  0.00     0.034 A 
HETATM   21  C   UNL     1      39.179 -14.133  -1.725  1.00  0.00     0.031 A 
HETATM   22  C   UNL     1      38.316 -13.236  -2.388  1.00  0.00    -0.000 A 
HETATM   23  C   UNL     1      38.364 -11.881  -2.053  1.00  0.00     0.043 A 
HETATM   24  C   UNL     1      37.331 -13.381  -3.403  1.00  0.00    -0.023 A 
HETATM   25  N   UNL     1      37.435 -11.229  -2.838  1.00  0.00    -0.358 N 
HETATM   26  C   UNL     1      39.233 -11.375  -1.081  1.00  0.00     0.031 A 
HETATM   27  H   UNL     1      37.251 -10.236  -2.804  1.00  0.00     0.166 HD
HETATM   28  C   UNL     1      36.817 -12.127  -3.661  1.00  0.00     0.017 A 
HETATM   29  C   UNL     1      35.754 -11.798  -4.647  1.00  0.00     0.057 C 
HETATM   30  C   UNL     1      35.580 -12.970  -5.630  1.00  0.00     0.006 C 
HETATM   31  C   UNL     1      35.576 -14.334  -4.913  1.00  0.00     0.005 C 
HETATM   32  C   UNL     1      36.887 -14.596  -4.147  1.00  0.00     0.041 C 
HETATM   33  C   UNL     1      40.087 -12.282  -0.443  1.00  0.00     0.019 A 
ENDBRANCH   2  20
TORSDOF 6
ENDMDL
MODEL 10
REMARK VINA RESULT:      -7.9      7.129     10.271
REMARK  6 active torsions:
REMARK  status: ('A' for Active; 'I' for Inactive)
REMARK    1  A    between atoms: C_2  and  O_3 
REMARK    2  A    between atoms: O_3  and  C_4 
REMARK    3  A    between atoms: C_5  and  O_6 
REMARK    4  A    between atoms: C_9  and  C_10 
REMARK       I    between atoms: C_10  and  N_11 
REMARK    5  A    between atoms: N_11  and  N_12 
REMARK       I    between atoms: N_12  and  C_13 
REMARK    6  A    between atoms: C_13  and  C_14 
ROOT
HETATM    1  N   UNL     1      42.195 -14.590   0.193  1.00  0.00    -0.263 N 
HETATM    2  C   UNL     1      41.972 -15.949   0.267  1.00  0.00     0.270 C 
HETATM    3  O   UNL     1      41.303 -16.544  -0.577  1.00  0.00    -0.266 OA
HETATM    4  H   UNL     1      42.794 -14.053   0.816  1.00  0.00     0.190 HD
ENDROOT
BRANCH   1   5
HETATM    5  N   UNL     1      41.664 -13.887  -0.892  1.00  0.00    -0.263 N 
HETATM    6  C   UNL     1      42.026 -12.565  -1.042  1.00  0.00     0.270 C 
HETATM    7  O   UNL     1      42.832 -12.010  -0.297  1.00  0.00    -0.266 OA
HETATM    8  H   UNL     1      40.865 -14.321  -1.352  1.00  0.00     0.190 HD
BRANCH   6   9
HETATM    9  C   UNL     1      41.377 -11.817  -2.151  1.00  0.00     0.036 A 
HETATM   10  C   UNL     1      42.019 -10.673  -2.642  1.00  0.00     0.056 A 
HETATM   11  C   UNL     1      41.462  -9.947  -3.701  1.00  0.00     0.102 A 
HETATM   12  C   UNL     1      40.257 -10.386  -4.289  1.00  0.00     0.102 A 
HETATM   13  C   UNL     1      39.624 -11.533  -3.797  1.00  0.00     0.040 A 
HETATM   14  C   UNL     1      40.182 -12.248  -2.733  1.00  0.00     0.020 A 
BRANCH  11  15
HETATM   15  O   UNL     1      42.018  -8.813  -4.239  1.00  0.00    -0.353 OA
HETATM   16  C   UNL     1      42.345  -7.753  -3.352  1.00  0.00     0.210 C 
ENDBRANCH  11  15
BRANCH  12  17
HETATM   17  O   UNL     1      39.784  -9.627  -5.329  1.00  0.00    -0.349 OA
BRANCH  17  18
HETATM   18  C   UNL     1      39.987 -10.109  -6.654  1.00  0.00     0.171 C 
HETATM   19  C   UNL     1      38.762  -9.751  -7.476  1.00  0.00     0.034 C 
ENDBRANCH  17  18
ENDBRANCH  12  17
ENDBRANCH   6   9
ENDBRANCH   1   5
BRANCH   2  20
HETATM   20  C   UNL     1      42.603 -16.683   1.405  1.00  0.00     0.034 A 
HETATM   21  C   UNL     1      42.930 -18.047   1.334  1.00  0.00     0.031 A 
HETATM   22  C   UNL     1      43.499 -18.686   2.455  1.00  0.00    -0.000 A 
HETATM   23  C   UNL     1      43.741 -17.937   3.609  1.00  0.00     0.043 A 
HETATM   24  C   UNL     1      43.918 -20.018   2.727  1.00  0.00    -0.023 A 
HETATM   25  N   UNL     1      44.290 -18.788   4.546  1.00  0.00    -0.358 N 
HETATM   26  C   UNL     1      43.444 -16.573   3.698  1.00  0.00     0.031 A 
HETATM   27  H   UNL     1      44.570 -18.513   5.477  1.00  0.00     0.166 HD
HETATM   28  C   UNL     1      44.389 -20.045   4.023  1.00  0.00     0.017 A 
HETATM   29  C   UNL     1      44.938 -21.231   4.734  1.00  0.00     0.057 C 
HETATM   30  C   UNL     1      44.542 -22.514   3.981  1.00  0.00     0.006 C 
HETATM   31  C   UNL     1      44.724 -22.373   2.457  1.00  0.00     0.005 C 
HETATM   32  C   UNL     1      43.864 -21.238   1.869  1.00  0.00     0.041 C 
HETATM   33  C   UNL     1      42.870 -15.962   2.577  1.00  0.00     0.019 A 
ENDBRANCH   2  20
TORSDOF 6
ENDMDL
