MODEL 1
REMARK VINA RESULT:      -7.1      0.000      0.000
REMARK  8 active torsions:
REMARK  status: ('A' for Active; 'I' for Inactive)
REMARK    1  A    between atoms: C_2  and  C_3 
REMARK    2  A    between atoms: C_3  and  C_4 
REMARK    3  A    between atoms: C_4  and  O_5 
REMARK    4  A    between atoms: O_5  and  C_6 
REMARK    5  A    between atoms: C_9  and  C_10 
REMARK    6  A    between atoms: C_10  and  N_11 
REMARK    7  A    between atoms: N_11  and  C_12 
REMARK    8  A    between atoms: C_19  and  C_20 
REMARK       I    between atoms: C_20  and  N_21 
ROOT
HETATM    1  C   UNL     1      44.352 -19.301   4.813  1.00  0.00     0.009 A 
HETATM    2  C   UNL     1      44.339 -17.966   5.258  1.00  0.00     0.039 A 
HETATM    3  C   UNL     1      44.023 -17.662   6.599  1.00  0.00     0.030 A 
HETATM    4  C   UNL     1      43.764 -18.706   7.476  1.00  0.00     0.063 A 
HETATM    5  N   UNL     1      43.503 -18.115   8.680  1.00  0.00    -0.277 N 
HETATM    6  H   UNL     1      43.278 -18.576   9.554  1.00  0.00     0.189 HD
HETATM    7  N   UNL     1      43.564 -16.772   8.665  1.00  0.00    -0.168 NA
HETATM    8  C   UNL     1      43.887 -16.479   7.384  1.00  0.00     0.156 A 
HETATM    9  C   UNL     1      43.809 -20.046   7.092  1.00  0.00     0.034 A 
HETATM   10  C   UNL     1      44.120 -20.316   5.751  1.00  0.00     0.026 A 
ENDROOT
BRANCH   1  11
HETATM   11  N   UNL     1      44.737 -19.556   3.488  1.00  0.00    -0.289 NA
HETATM   12  H   UNL     1      45.286 -18.792   3.098  1.00  0.00     0.128 HD
BRANCH  11  13
HETATM   13  C   UNL     1      43.734 -20.038   2.549  1.00  0.00     0.131 C 
BRANCH  13  14
HETATM   14  C   UNL     1      43.049 -18.873   1.873  1.00  0.00    -0.045 A 
HETATM   15  C   UNL     1      41.649 -18.776   1.876  1.00  0.00     0.011 A 
HETATM   16  C   UNL     1      41.009 -17.663   1.320  1.00  0.00     0.037 A 
HETATM   17  C   UNL     1      41.765 -16.632   0.763  1.00  0.00     0.068 A 
HETATM   18  C   UNL     1      43.154 -16.749   0.706  1.00  0.00     0.037 A 
HETATM   19  C   UNL     1      43.795 -17.858   1.261  1.00  0.00     0.011 A 
BRANCH  17  20
HETATM   20  O   UNL     1      41.248 -15.482   0.231  1.00  0.00    -0.351 OA
BRANCH  20  21
HETATM   21  C   UNL     1      41.875 -14.272   0.671  1.00  0.00     0.176 C 
BRANCH  21  22
HETATM   22  C   UNL     1      40.992 -13.661   1.760  1.00  0.00     0.030 C 
BRANCH  22  23
HETATM   23  C   UNL     1      41.561 -13.828   3.178  1.00  0.00    -0.021 C 
HETATM   24  C   UNL     1      43.077 -14.033   3.173  1.00  0.00     0.009 C 
HETATM   25  C   UNL     1      40.881 -15.006   3.878  1.00  0.00     0.009 C 
ENDBRANCH  22  23
ENDBRANCH  21  22
ENDBRANCH  20  21
ENDBRANCH  17  20
ENDBRANCH  13  14
ENDBRANCH  11  13
ENDBRANCH   1  11
BRANCH   8  26
HETATM   26  C   UNL     1      44.053 -15.088   6.940  1.00  0.00     0.270 C 
HETATM   27  N   UNL     1      42.876 -14.434   6.704  1.00  0.00    -0.365 N 
HETATM   28  H   UNL     1      42.007 -14.935   6.844  1.00  0.00     0.159 HD
HETATM   29  H   UNL     1      42.888 -13.475   6.392  1.00  0.00     0.159 HD
HETATM   30  O   UNL     1      45.135 -14.532   6.782  1.00  0.00    -0.266 OA
ENDBRANCH   8  26
TORSDOF 8
ENDMDL
MODEL 2
REMARK VINA RESULT:      -7.0      2.526      5.681
REMARK  8 active torsions:
REMARK  status: ('A' for Active; 'I' for Inactive)
REMARK    1  A    between atoms: C_2  and  C_3 
REMARK    2  A    between atoms: C_3  and  C_4 
REMARK    3  A    between atoms: C_4  and  O_5 
REMARK    4  A    between atoms: O_5  and  C_6 
REMARK    5  A    between atoms: C_9  and  C_10 
REMARK    6  A    between atoms: C_10  and  N_11 
REMARK    7  A    between atoms: N_11  and  C_12 
REMARK    8  A    between atoms: C_19  and  C_20 
REMARK       I    between atoms: C_20  and  N_21 
ROOT
HETATM    1  C   UNL     1      41.656 -17.589   3.179  1.00  0.00     0.009 A 
HETATM    2  C   UNL     1      42.173 -18.140   4.366  1.00  0.00     0.039 A 
HETATM    3  C   UNL     1      43.291 -19.000   4.329  1.00  0.00     0.030 A 
HETATM    4  C   UNL     1      43.892 -19.259   3.106  1.00  0.00     0.063 A 
HETATM    5  N   UNL     1      44.933 -20.100   3.381  1.00  0.00    -0.277 N 
HETATM    6  H   UNL     1      45.596 -20.491   2.722  1.00  0.00     0.189 HD
HETATM    7  N   UNL     1      45.062 -20.418   4.681  1.00  0.00    -0.168 NA
HETATM    8  C   UNL     1      44.054 -19.742   5.279  1.00  0.00     0.156 A 
HETATM    9  C   UNL     1      43.443 -18.700   1.909  1.00  0.00     0.034 A 
HETATM   10  C   UNL     1      42.326 -17.855   1.978  1.00  0.00     0.026 A 
ENDROOT
BRANCH   1  11
HETATM   11  N   UNL     1      40.585 -16.688   3.276  1.00  0.00    -0.289 NA
HETATM   12  H   UNL     1      39.755 -17.032   2.797  1.00  0.00     0.128 HD
BRANCH  11  13
HETATM   13  C   UNL     1      40.828 -15.279   2.995  1.00  0.00     0.131 C 
BRANCH  13  14
HETATM   14  C   UNL     1      41.928 -14.752   3.888  1.00  0.00    -0.045 A 
HETATM   15  C   UNL     1      41.721 -14.635   5.271  1.00  0.00     0.011 A 
HETATM   16  C   UNL     1      42.757 -14.221   6.115  1.00  0.00     0.037 A 
HETATM   17  C   UNL     1      44.012 -13.927   5.584  1.00  0.00     0.068 A 
HETATM   18  C   UNL     1      44.208 -13.986   4.205  1.00  0.00     0.037 A 
HETATM   19  C   UNL     1      43.176 -14.401   3.359  1.00  0.00     0.011 A 
BRANCH  17  20
HETATM   20  O   UNL     1      45.105 -13.555   6.319  1.00  0.00    -0.351 OA
BRANCH  20  21
HETATM   21  C   UNL     1      44.902 -13.517   7.736  1.00  0.00     0.176 C 
BRANCH  21  22
HETATM   22  C   UNL     1      45.879 -12.495   8.318  1.00  0.00     0.030 C 
BRANCH  22  23
HETATM   23  C   UNL     1      45.203 -11.428   9.194  1.00  0.00    -0.021 C 
HETATM   24  C   UNL     1      45.494 -11.632  10.681  1.00  0.00     0.009 C 
HETATM   25  C   UNL     1      43.692 -11.437   8.955  1.00  0.00     0.009 C 
ENDBRANCH  22  23
ENDBRANCH  21  22
ENDBRANCH  20  21
ENDBRANCH  17  20
ENDBRANCH  13  14
ENDBRANCH  11  13
ENDBRANCH   1  11
BRANCH   8  26
HETATM   26  C   UNL     1      43.839 -19.822   6.730  1.00  0.00     0.270 C 
HETATM   27  N   UNL     1      43.662 -21.095   7.199  1.00  0.00    -0.365 N 
HETATM   28  H   UNL     1      43.688 -21.862   6.537  1.00  0.00     0.159 HD
HETATM   29  H   UNL     1      43.504 -21.251   8.182  1.00  0.00     0.159 HD
HETATM   30  O   UNL     1      43.812 -18.855   7.486  1.00  0.00    -0.266 OA
ENDBRANCH   8  26
TORSDOF 8
ENDMDL
MODEL 3
REMARK VINA RESULT:      -6.9      1.526      2.550
REMARK  8 active torsions:
REMARK  status: ('A' for Active; 'I' for Inactive)
REMARK    1  A    between atoms: C_2  and  C_3 
REMARK    2  A    between atoms: C_3  and  C_4 
REMARK    3  A    between atoms: C_4  and  O_5 
REMARK    4  A    between atoms: O_5  and  C_6 
REMARK    5  A    between atoms: C_9  and  C_10 
REMARK    6  A    between atoms: C_10  and  N_11 
REMARK    7  A    between atoms: N_11  and  C_12 
REMARK    8  A    between atoms: C_19  and  C_20 
REMARK       I    between atoms: C_20  and  N_21 
ROOT
HETATM    1  C   UNL     1      44.335 -19.448   4.683  1.00  0.00     0.009 A 
HETATM    2  C   UNL     1      44.295 -18.117   5.139  1.00  0.00     0.039 A 
HETATM    3  C   UNL     1      44.018 -17.833   6.493  1.00  0.00     0.030 A 
HETATM    4  C   UNL     1      43.825 -18.891   7.370  1.00  0.00     0.063 A 
HETATM    5  N   UNL     1      43.589 -18.316   8.587  1.00  0.00    -0.277 N 
HETATM    6  H   UNL     1      43.411 -18.791   9.465  1.00  0.00     0.189 HD
HETATM    7  N   UNL     1      43.606 -16.973   8.581  1.00  0.00    -0.168 NA
HETATM    8  C   UNL     1      43.873 -16.660   7.292  1.00  0.00     0.156 A 
HETATM    9  C   UNL     1      43.899 -20.226   6.974  1.00  0.00     0.034 A 
HETATM   10  C   UNL     1      44.170 -20.476   5.621  1.00  0.00     0.026 A 
ENDROOT
BRANCH   1  11
HETATM   11  N   UNL     1      44.680 -19.682   3.343  1.00  0.00    -0.289 NA
HETATM   12  H   UNL     1      45.332 -18.983   2.992  1.00  0.00     0.128 HD
BRANCH  11  13
HETATM   13  C   UNL     1      43.618 -19.962   2.386  1.00  0.00     0.131 C 
BRANCH  13  14
HETATM   14  C   UNL     1      42.947 -18.677   1.960  1.00  0.00    -0.045 A 
HETATM   15  C   UNL     1      43.591 -17.804   1.071  1.00  0.00     0.011 A 
HETATM   16  C   UNL     1      42.947 -16.650   0.611  1.00  0.00     0.037 A 
HETATM   17  C   UNL     1      41.649 -16.363   1.031  1.00  0.00     0.068 A 
HETATM   18  C   UNL     1      41.025 -17.196   1.959  1.00  0.00     0.037 A 
HETATM   19  C   UNL     1      41.665 -18.350   2.418  1.00  0.00     0.011 A 
BRANCH  17  20
HETATM   20  O   UNL     1      40.911 -15.289   0.614  1.00  0.00    -0.351 OA
BRANCH  20  21
HETATM   21  C   UNL     1      41.554 -14.445  -0.348  1.00  0.00     0.176 C 
BRANCH  21  22
HETATM   22  C   UNL     1      40.463 -13.803  -1.205  1.00  0.00     0.030 C 
BRANCH  22  23
HETATM   23  C   UNL     1      39.945 -14.718  -2.326  1.00  0.00    -0.021 C 
HETATM   24  C   UNL     1      41.033 -15.649  -2.863  1.00  0.00     0.009 C 
HETATM   25  C   UNL     1      39.374 -13.874  -3.468  1.00  0.00     0.009 C 
ENDBRANCH  22  23
ENDBRANCH  21  22
ENDBRANCH  20  21
ENDBRANCH  17  20
ENDBRANCH  13  14
ENDBRANCH  11  13
ENDBRANCH   1  11
BRANCH   8  26
HETATM   26  C   UNL     1      43.979 -15.262   6.853  1.00  0.00     0.270 C 
HETATM   27  N   UNL     1      42.805 -14.731   6.394  1.00  0.00    -0.365 N 
HETATM   28  H   UNL     1      41.979 -15.318   6.387  1.00  0.00     0.159 HD
HETATM   29  H   UNL     1      42.778 -13.778   6.067  1.00  0.00     0.159 HD
HETATM   30  O   UNL     1      45.011 -14.599   6.879  1.00  0.00    -0.266 OA
ENDBRANCH   8  26
TORSDOF 8
ENDMDL
MODEL 4
REMARK VINA RESULT:      -6.9      4.845      7.609
REMARK  8 active torsions:
REMARK  status: ('A' for Active; 'I' for Inactive)
REMARK    1  A    between atoms: C_2  and  C_3 
REMARK    2  A    between atoms: C_3  and  C_4 
REMARK    3  A    between atoms: C_4  and  O_5 
REMARK    4  A    between atoms: O_5  and  C_6 
REMARK    5  A    between atoms: C_9  and  C_10 
REMARK    6  A    between atoms: C_10  and  N_11 
REMARK    7  A    between atoms: N_11  and  C_12 
REMARK    8  A    between atoms: C_19  and  C_20 
REMARK       I    between atoms: C_20  and  N_21 
ROOT
HETATM    1  C   UNL     1      43.858 -11.712   9.328  1.00  0.00     0.009 A 
HETATM    2  C   UNL     1      42.675 -11.535  10.071  1.00  0.00     0.039 A 
HETATM    3  C   UNL     1      42.706 -10.880  11.321  1.00  0.00     0.030 A 
HETATM    4  C   UNL     1      43.916 -10.381  11.781  1.00  0.00     0.063 A 
HETATM    5  N   UNL     1      43.637  -9.804  12.988  1.00  0.00    -0.277 N 
HETATM    6  H   UNL     1      44.286  -9.333  13.607  1.00  0.00     0.189 HD
HETATM    7  N   UNL     1      42.348  -9.886  13.359  1.00  0.00    -0.168 NA
HETATM    8  C   UNL     1      41.760 -10.547  12.335  1.00  0.00     0.156 A 
HETATM    9  C   UNL     1      45.105 -10.493  11.061  1.00  0.00     0.034 A 
HETATM   10  C   UNL     1      45.043 -11.155   9.826  1.00  0.00     0.026 A 
ENDROOT
BRANCH   1  11
HETATM   11  N   UNL     1      43.764 -12.311   8.063  1.00  0.00    -0.289 NA
HETATM   12  H   UNL     1      42.821 -12.641   7.868  1.00  0.00     0.128 HD
BRANCH  11  13
HETATM   13  C   UNL     1      44.772 -13.288   7.675  1.00  0.00     0.131 C 
BRANCH  13  14
HETATM   14  C   UNL     1      44.136 -14.407   6.884  1.00  0.00    -0.045 A 
HETATM   15  C   UNL     1      43.797 -14.217   5.535  1.00  0.00     0.011 A 
HETATM   16  C   UNL     1      43.279 -15.269   4.773  1.00  0.00     0.037 A 
HETATM   17  C   UNL     1      43.102 -16.526   5.352  1.00  0.00     0.068 A 
HETATM   18  C   UNL     1      43.383 -16.707   6.706  1.00  0.00     0.037 A 
HETATM   19  C   UNL     1      43.902 -15.658   7.468  1.00  0.00     0.011 A 
BRANCH  17  20
HETATM   20  O   UNL     1      42.644 -17.633   4.692  1.00  0.00    -0.351 OA
BRANCH  20  21
HETATM   21  C   UNL     1      43.323 -18.854   5.006  1.00  0.00     0.176 C 
BRANCH  21  22
HETATM   22  C   UNL     1      44.171 -19.239   3.794  1.00  0.00     0.030 C 
BRANCH  22  23
HETATM   23  C   UNL     1      43.355 -19.413   2.503  1.00  0.00    -0.021 C 
HETATM   24  C   UNL     1      43.557 -20.792   1.872  1.00  0.00     0.009 C 
HETATM   25  C   UNL     1      43.728 -18.322   1.498  1.00  0.00     0.009 C 
ENDBRANCH  22  23
ENDBRANCH  21  22
ENDBRANCH  20  21
ENDBRANCH  17  20
ENDBRANCH  13  14
ENDBRANCH  11  13
ENDBRANCH   1  11
BRANCH   8  26
HETATM   26  C   UNL     1      40.322 -10.849  12.349  1.00  0.00     0.270 C 
HETATM   27  N   UNL     1      40.032 -12.176  12.511  1.00  0.00    -0.365 N 
HETATM   28  H   UNL     1      40.800 -12.831  12.604  1.00  0.00     0.159 HD
HETATM   29  H   UNL     1      39.072 -12.482  12.530  1.00  0.00     0.159 HD
HETATM   30  O   UNL     1      39.433 -10.013  12.226  1.00  0.00    -0.266 OA
ENDBRANCH   8  26
TORSDOF 8
ENDMDL
MODEL 5
REMARK VINA RESULT:      -6.9      2.763      5.856
REMARK  8 active torsions:
REMARK  status: ('A' for Active; 'I' for Inactive)
REMARK    1  A    between atoms: C_2  and  C_3 
REMARK    2  A    between atoms: C_3  and  C_4 
REMARK    3  A    between atoms: C_4  and  O_5 
REMARK    4  A    between atoms: O_5  and  C_6 
REMARK    5  A    between atoms: C_9  and  C_10 
REMARK    6  A    between atoms: C_10  and  N_11 
REMARK    7  A    between atoms: N_11  and  C_12 
REMARK    8  A    between atoms: C_19  and  C_20 
REMARK       I    between atoms: C_20  and  N_21 
ROOT
HETATM    1  C   UNL     1      40.771 -15.089   1.858  1.00  0.00     0.009 A 
HETATM    2  C   UNL     1      40.315 -14.628   3.108  1.00  0.00     0.039 A 
HETATM    3  C   UNL     1      40.764 -13.394   3.624  1.00  0.00     0.030 A 
HETATM    4  C   UNL     1      41.632 -12.629   2.858  1.00  0.00     0.063 A 
HETATM    5  N   UNL     1      41.881 -11.508   3.599  1.00  0.00    -0.277 N 
HETATM    6  H   UNL     1      42.470 -10.724   3.346  1.00  0.00     0.189 HD
HETATM    7  N   UNL     1      41.253 -11.477   4.787  1.00  0.00    -0.168 NA
HETATM    8  C   UNL     1      40.557 -12.637   4.814  1.00  0.00     0.156 A 
HETATM    9  C   UNL     1      42.076 -13.022   1.595  1.00  0.00     0.034 A 
HETATM   10  C   UNL     1      41.616 -14.256   1.113  1.00  0.00     0.026 A 
ENDROOT
BRANCH   1  11
HETATM   11  N   UNL     1      40.243 -16.289   1.359  1.00  0.00    -0.289 NA
HETATM   12  H   UNL     1      39.647 -16.754   2.041  1.00  0.00     0.128 HD
BRANCH  11  13
HETATM   13  C   UNL     1      41.141 -17.225   0.696  1.00  0.00     0.131 C 
BRANCH  13  14
HETATM   14  C   UNL     1      42.116 -17.808   1.692  1.00  0.00    -0.045 A 
HETATM   15  C   UNL     1      43.446 -18.054   1.320  1.00  0.00     0.011 A 
HETATM   16  C   UNL     1      44.375 -18.521   2.256  1.00  0.00     0.037 A 
HETATM   17  C   UNL     1      43.983 -18.739   3.576  1.00  0.00     0.068 A 
HETATM   18  C   UNL     1      42.650 -18.552   3.939  1.00  0.00     0.037 A 
HETATM   19  C   UNL     1      41.721 -18.084   3.007  1.00  0.00     0.011 A 
BRANCH  17  20
HETATM   20  O   UNL     1      44.815 -19.154   4.581  1.00  0.00    -0.351 OA
BRANCH  20  21
HETATM   21  C   UNL     1      44.291 -19.006   5.905  1.00  0.00     0.176 C 
BRANCH  21  22
HETATM   22  C   UNL     1      45.000 -17.818   6.555  1.00  0.00     0.030 C 
BRANCH  22  23
HETATM   23  C   UNL     1      44.037 -16.743   7.084  1.00  0.00    -0.021 C 
HETATM   24  C   UNL     1      42.750 -17.346   7.649  1.00  0.00     0.009 C 
HETATM   25  C   UNL     1      43.699 -15.750   5.970  1.00  0.00     0.009 C 
ENDBRANCH  22  23
ENDBRANCH  21  22
ENDBRANCH  20  21
ENDBRANCH  17  20
ENDBRANCH  13  14
ENDBRANCH  11  13
ENDBRANCH   1  11
BRANCH   8  26
HETATM   26  C   UNL     1      39.720 -12.997   5.967  1.00  0.00     0.270 C 
HETATM   27  N   UNL     1      40.111 -14.142   6.605  1.00  0.00    -0.365 N 
HETATM   28  H   UNL     1      40.917 -14.643   6.248  1.00  0.00     0.159 HD
HETATM   29  H   UNL     1      39.596 -14.472   7.406  1.00  0.00     0.159 HD
HETATM   30  O   UNL     1      38.749 -12.353   6.352  1.00  0.00    -0.266 OA
ENDBRANCH   8  26
TORSDOF 8
ENDMDL
MODEL 6
REMARK VINA RESULT:      -6.8      3.814      7.760
REMARK  8 active torsions:
REMARK  status: ('A' for Active; 'I' for Inactive)
REMARK    1  A    between atoms: C_2  and  C_3 
REMARK    2  A    between atoms: C_3  and  C_4 
REMARK    3  A    between atoms: C_4  and  O_5 
REMARK    4  A    between atoms: O_5  and  C_6 
REMARK    5  A    between atoms: C_9  and  C_10 
REMARK    6  A    between atoms: C_10  and  N_11 
REMARK    7  A    between atoms: N_11  and  C_12 
REMARK    8  A    between atoms: C_19  and  C_20 
REMARK       I    between atoms: C_20  and  N_21 
ROOT
HETATM    1  C   UNL     1      41.067 -14.149   2.240  1.00  0.00     0.009 A 
HETATM    2  C   UNL     1      41.517 -13.881   0.933  1.00  0.00     0.039 A 
HETATM    3  C   UNL     1      40.627 -13.952  -0.159  1.00  0.00     0.030 A 
HETATM    4  C   UNL     1      39.295 -14.253   0.086  1.00  0.00     0.063 A 
HETATM    5  N   UNL     1      38.687 -14.243  -1.139  1.00  0.00    -0.277 N 
HETATM    6  H   UNL     1      37.710 -14.416  -1.339  1.00  0.00     0.189 HD
HETATM    7  N   UNL     1      39.510 -13.966  -2.165  1.00  0.00    -0.168 NA
HETATM    8  C   UNL     1      40.713 -13.781  -1.573  1.00  0.00     0.156 A 
HETATM    9  C   UNL     1      38.793 -14.482   1.367  1.00  0.00     0.034 A 
HETATM   10  C   UNL     1      39.704 -14.410   2.431  1.00  0.00     0.026 A 
ENDROOT
BRANCH   1  11
HETATM   11  N   UNL     1      41.975 -13.999   3.299  1.00  0.00    -0.289 NA
HETATM   12  H   UNL     1      41.972 -13.051   3.670  1.00  0.00     0.128 HD
BRANCH  11  13
HETATM   13  C   UNL     1      43.327 -14.517   3.139  1.00  0.00     0.131 C 
BRANCH  13  14
HETATM   14  C   UNL     1      43.292 -16.015   2.949  1.00  0.00    -0.045 A 
HETATM   15  C   UNL     1      43.951 -16.606   1.860  1.00  0.00     0.011 A 
HETATM   16  C   UNL     1      43.990 -17.997   1.717  1.00  0.00     0.037 A 
HETATM   17  C   UNL     1      43.376 -18.811   2.668  1.00  0.00     0.068 A 
HETATM   18  C   UNL     1      42.671 -18.230   3.721  1.00  0.00     0.037 A 
HETATM   19  C   UNL     1      42.632 -16.841   3.867  1.00  0.00     0.011 A 
BRANCH  17  20
HETATM   20  O   UNL     1      43.388 -20.180   2.650  1.00  0.00    -0.351 OA
BRANCH  20  21
HETATM   21  C   UNL     1      44.683 -20.779   2.769  1.00  0.00     0.176 C 
BRANCH  21  22
HETATM   22  C   UNL     1      45.222 -20.448   4.160  1.00  0.00     0.030 C 
BRANCH  22  23
HETATM   23  C   UNL     1      45.031 -21.582   5.179  1.00  0.00    -0.021 C 
HETATM   24  C   UNL     1      44.577 -22.884   4.518  1.00  0.00     0.009 C 
HETATM   25  C   UNL     1      44.019 -21.161   6.247  1.00  0.00     0.009 C 
ENDBRANCH  22  23
ENDBRANCH  21  22
ENDBRANCH  20  21
ENDBRANCH  17  20
ENDBRANCH  13  14
ENDBRANCH  11  13
ENDBRANCH   1  11
BRANCH   8  26
HETATM   26  C   UNL     1      41.908 -13.454  -2.362  1.00  0.00     0.270 C 
HETATM   27  N   UNL     1      42.220 -14.385  -3.314  1.00  0.00    -0.365 N 
HETATM   28  H   UNL     1      41.630 -15.203  -3.402  1.00  0.00     0.159 HD
HETATM   29  H   UNL     1      43.026 -14.249  -3.903  1.00  0.00     0.159 HD
HETATM   30  O   UNL     1      42.591 -12.446  -2.207  1.00  0.00    -0.266 OA
ENDBRANCH   8  26
TORSDOF 8
ENDMDL
MODEL 7
REMARK VINA RESULT:      -6.8      4.363      8.702
REMARK  8 active torsions:
REMARK  status: ('A' for Active; 'I' for Inactive)
REMARK    1  A    between atoms: C_2  and  C_3 
REMARK    2  A    between atoms: C_3  and  C_4 
REMARK    3  A    between atoms: C_4  and  O_5 
REMARK    4  A    between atoms: O_5  and  C_6 
REMARK    5  A    between atoms: C_9  and  C_10 
REMARK    6  A    between atoms: C_10  and  N_11 
REMARK    7  A    between atoms: N_11  and  C_12 
REMARK    8  A    between atoms: C_19  and  C_20 
REMARK       I    between atoms: C_20  and  N_21 
ROOT
HETATM    1  C   UNL     1      39.966 -12.616  -0.015  1.00  0.00     0.009 A 
HETATM    2  C   UNL     1      39.483 -13.521  -0.979  1.00  0.00     0.039 A 
HETATM    3  C   UNL     1      40.329 -13.995  -2.003  1.00  0.00     0.030 A 
HETATM    4  C   UNL     1      41.654 -13.582  -2.017  1.00  0.00     0.063 A 
HETATM    5  N   UNL     1      42.217 -14.200  -3.098  1.00  0.00    -0.277 N 
HETATM    6  H   UNL     1      43.178 -14.131  -3.411  1.00  0.00     0.189 HD
HETATM    7  N   UNL     1      41.373 -14.979  -3.795  1.00  0.00    -0.168 NA
HETATM    8  C   UNL     1      40.202 -14.864  -3.127  1.00  0.00     0.156 A 
HETATM    9  C   UNL     1      42.189 -12.722  -1.059  1.00  0.00     0.034 A 
HETATM   10  C   UNL     1      41.321 -12.263  -0.057  1.00  0.00     0.026 A 
ENDROOT
BRANCH   1  11
HETATM   11  N   UNL     1      39.104 -12.225   1.021  1.00  0.00    -0.289 NA
HETATM   12  H   UNL     1      39.511 -11.492   1.598  1.00  0.00     0.128 HD
BRANCH  11  13
HETATM   13  C   UNL     1      38.466 -13.258   1.826  1.00  0.00     0.131 C 
BRANCH  13  14
HETATM   14  C   UNL     1      39.511 -14.088   2.534  1.00  0.00    -0.045 A 
HETATM   15  C   UNL     1      40.270 -13.533   3.576  1.00  0.00     0.011 A 
HETATM   16  C   UNL     1      41.186 -14.314   4.287  1.00  0.00     0.037 A 
HETATM   17  C   UNL     1      41.347 -15.662   3.968  1.00  0.00     0.068 A 
HETATM   18  C   UNL     1      40.639 -16.206   2.896  1.00  0.00     0.037 A 
HETATM   19  C   UNL     1      39.722 -15.428   2.185  1.00  0.00     0.011 A 
BRANCH  17  20
HETATM   20  O   UNL     1      42.181 -16.528   4.623  1.00  0.00    -0.351 OA
BRANCH  20  21
HETATM   21  C   UNL     1      42.004 -17.910   4.294  1.00  0.00     0.176 C 
BRANCH  21  22
HETATM   22  C   UNL     1      43.299 -18.403   3.648  1.00  0.00     0.030 C 
BRANCH  22  23
HETATM   23  C   UNL     1      43.104 -18.960   2.229  1.00  0.00    -0.021 C 
HETATM   24  C   UNL     1      43.807 -20.305   2.034  1.00  0.00     0.009 C 
HETATM   25  C   UNL     1      43.614 -17.953   1.197  1.00  0.00     0.009 C 
ENDBRANCH  22  23
ENDBRANCH  21  22
ENDBRANCH  20  21
ENDBRANCH  17  20
ENDBRANCH  13  14
ENDBRANCH  11  13
ENDBRANCH   1  11
BRANCH   8  26
HETATM   26  C   UNL     1      38.996 -15.574  -3.575  1.00  0.00     0.270 C 
HETATM   27  N   UNL     1      39.153 -16.929  -3.680  1.00  0.00    -0.365 N 
HETATM   28  H   UNL     1      40.056 -17.330  -3.453  1.00  0.00     0.159 HD
HETATM   29  H   UNL     1      38.382 -17.502  -3.983  1.00  0.00     0.159 HD
HETATM   30  O   UNL     1      37.927 -15.034  -3.842  1.00  0.00    -0.266 OA
ENDBRANCH   8  26
TORSDOF 8
ENDMDL
MODEL 8
REMARK VINA RESULT:      -6.7      2.133      3.513
REMARK  8 active torsions:
REMARK  status: ('A' for Active; 'I' for Inactive)
REMARK    1  A    between atoms: C_2  and  C_3 
REMARK    2  A    between atoms: C_3  and  C_4 
REMARK    3  A    between atoms: C_4  and  O_5 
REMARK    4  A    between atoms: O_5  and  C_6 
REMARK    5  A    between atoms: C_9  and  C_10 
REMARK    6  A    between atoms: C_10  and  N_11 
REMARK    7  A    between atoms: N_11  and  C_12 
REMARK    8  A    between atoms: C_19  and  C_20 
REMARK       I    between atoms: C_20  and  N_21 
ROOT
HETATM    1  C   UNL     1      43.620 -17.838   2.130  1.00  0.00     0.009 A 
HETATM    2  C   UNL     1      43.562 -17.442   3.480  1.00  0.00     0.039 A 
HETATM    3  C   UNL     1      43.862 -18.359   4.509  1.00  0.00     0.030 A 
HETATM    4  C   UNL     1      44.250 -19.645   4.163  1.00  0.00     0.063 A 
HETATM    5  N   UNL     1      44.478 -20.288   5.347  1.00  0.00    -0.277 N 
HETATM    6  H   UNL     1      44.783 -21.246   5.476  1.00  0.00     0.189 HD
HETATM    7  N   UNL     1      44.266 -19.534   6.439  1.00  0.00    -0.168 NA
HETATM    8  C   UNL     1      43.887 -18.337   5.935  1.00  0.00     0.156 A 
HETATM    9  C   UNL     1      44.365 -20.071   2.840  1.00  0.00     0.034 A 
HETATM   10  C   UNL     1      44.055 -19.138   1.840  1.00  0.00     0.026 A 
ENDROOT
BRANCH   1  11
HETATM   11  N   UNL     1      43.378 -16.872   1.142  1.00  0.00    -0.289 NA
HETATM   12  H   UNL     1      43.726 -15.955   1.415  1.00  0.00     0.128 HD
BRANCH  11  13
HETATM   13  C   UNL     1      42.050 -16.795   0.550  1.00  0.00     0.131 C 
BRANCH  13  14
HETATM   14  C   UNL     1      41.267 -15.662   1.173  1.00  0.00    -0.045 A 
HETATM   15  C   UNL     1      39.929 -15.851   1.552  1.00  0.00     0.011 A 
HETATM   16  C   UNL     1      39.219 -14.834   2.199  1.00  0.00     0.037 A 
HETATM   17  C   UNL     1      39.844 -13.620   2.479  1.00  0.00     0.068 A 
HETATM   18  C   UNL     1      41.154 -13.405   2.055  1.00  0.00     0.037 A 
HETATM   19  C   UNL     1      41.866 -14.419   1.410  1.00  0.00     0.011 A 
BRANCH  17  20
HETATM   20  O   UNL     1      39.260 -12.574   3.142  1.00  0.00    -0.351 OA
BRANCH  20  21
HETATM   21  C   UNL     1      39.932 -12.158   4.336  1.00  0.00     0.176 C 
BRANCH  21  22
HETATM   22  C   UNL     1      39.527 -13.117   5.456  1.00  0.00     0.030 C 
BRANCH  22  23
HETATM   23  C   UNL     1      40.697 -13.950   6.004  1.00  0.00    -0.021 C 
HETATM   24  C   UNL     1      42.055 -13.395   5.573  1.00  0.00     0.009 C 
HETATM   25  C   UNL     1      40.561 -15.404   5.548  1.00  0.00     0.009 C 
ENDBRANCH  22  23
ENDBRANCH  21  22
ENDBRANCH  20  21
ENDBRANCH  17  20
ENDBRANCH  13  14
ENDBRANCH  11  13
ENDBRANCH   1  11
BRANCH   8  26
HETATM   26  C   UNL     1      43.555 -17.209   6.817  1.00  0.00     0.270 C 
HETATM   27  N   UNL     1      44.382 -16.129   6.676  1.00  0.00    -0.365 N 
HETATM   28  H   UNL     1      45.137 -16.182   6.002  1.00  0.00     0.159 HD
HETATM   29  H   UNL     1      44.236 -15.307   7.241  1.00  0.00     0.159 HD
HETATM   30  O   UNL     1      42.629 -17.203   7.622  1.00  0.00    -0.266 OA
ENDBRANCH   8  26
TORSDOF 8
ENDMDL
MODEL 9
REMARK VINA RESULT:      -6.7      2.742      7.105
REMARK  8 active torsions:
REMARK  status: ('A' for Active; 'I' for Inactive)
REMARK    1  A    between atoms: C_2  and  C_3 
REMARK    2  A    between atoms: C_3  and  C_4 
REMARK    3  A    between atoms: C_4  and  O_5 
REMARK    4  A    between atoms: O_5  and  C_6 
REMARK    5  A    between atoms: C_9  and  C_10 
REMARK    6  A    between atoms: C_10  and  N_11 
REMARK    7  A    between atoms: N_11  and  C_12 
REMARK    8  A    between atoms: C_19  and  C_20 
REMARK       I    between atoms: C_20  and  N_21 
ROOT
HETATM    1  C   UNL     1      42.828 -13.852   4.362  1.00  0.00     0.009 A 
HETATM    2  C   UNL     1      42.622 -14.834   3.374  1.00  0.00     0.039 A 
HETATM    3  C   UNL     1      41.767 -14.581   2.281  1.00  0.00     0.030 A 
HETATM    4  C   UNL     1      41.166 -13.335   2.179  1.00  0.00     0.063 A 
HETATM    5  N   UNL     1      40.417 -13.383   1.036  1.00  0.00    -0.277 N 
HETATM    6  H   UNL     1      39.846 -12.643   0.646  1.00  0.00     0.189 HD
HETATM    7  N   UNL     1      40.473 -14.556   0.384  1.00  0.00    -0.168 NA
HETATM    8  C   UNL     1      41.307 -15.306   1.142  1.00  0.00     0.156 A 
HETATM    9  C   UNL     1      41.374 -12.315   3.108  1.00  0.00     0.034 A 
HETATM   10  C   UNL     1      42.224 -12.599   4.187  1.00  0.00     0.026 A 
ENDROOT
BRANCH   1  11
HETATM   11  N   UNL     1      43.738 -14.127   5.393  1.00  0.00    -0.289 NA
HETATM   12  H   UNL     1      44.634 -14.448   5.032  1.00  0.00     0.128 HD
BRANCH  11  13
HETATM   13  C   UNL     1      43.291 -14.926   6.526  1.00  0.00     0.131 C 
BRANCH  13  14
HETATM   14  C   UNL     1      43.587 -16.388   6.282  1.00  0.00    -0.045 A 
HETATM   15  C   UNL     1      44.873 -16.898   6.518  1.00  0.00     0.011 A 
HETATM   16  C   UNL     1      45.138 -18.263   6.369  1.00  0.00     0.037 A 
HETATM   17  C   UNL     1      44.116 -19.133   5.990  1.00  0.00     0.068 A 
HETATM   18  C   UNL     1      42.850 -18.625   5.699  1.00  0.00     0.037 A 
HETATM   19  C   UNL     1      42.583 -17.262   5.849  1.00  0.00     0.011 A 
BRANCH  17  20
HETATM   20  O   UNL     1      44.252 -20.488   5.856  1.00  0.00    -0.351 OA
BRANCH  20  21
HETATM   21  C   UNL     1      45.232 -20.911   4.901  1.00  0.00     0.176 C 
BRANCH  21  22
HETATM   22  C   UNL     1      44.509 -21.706   3.814  1.00  0.00     0.030 C 
BRANCH  22  23
HETATM   23  C   UNL     1      44.571 -21.047   2.427  1.00  0.00    -0.021 C 
HETATM   24  C   UNL     1      43.844 -19.702   2.391  1.00  0.00     0.009 C 
HETATM   25  C   UNL     1      43.978 -21.986   1.375  1.00  0.00     0.009 C 
ENDBRANCH  22  23
ENDBRANCH  21  22
ENDBRANCH  20  21
ENDBRANCH  17  20
ENDBRANCH  13  14
ENDBRANCH  11  13
ENDBRANCH   1  11
BRANCH   8  26
HETATM   26  C   UNL     1      41.640 -16.688   0.768  1.00  0.00     0.270 C 
HETATM   27  N   UNL     1      40.583 -17.553   0.832  1.00  0.00    -0.365 N 
HETATM   28  H   UNL     1      39.681 -17.195   1.124  1.00  0.00     0.159 HD
HETATM   29  H   UNL     1      40.713 -18.525   0.598  1.00  0.00     0.159 HD
HETATM   30  O   UNL     1      42.755 -17.068   0.427  1.00  0.00    -0.266 OA
ENDBRANCH   8  26
TORSDOF 8
ENDMDL
MODEL 10
REMARK VINA RESULT:      -6.7      4.140      8.391
REMARK  8 active torsions:
REMARK  status: ('A' for Active; 'I' for Inactive)
REMARK    1  A    between atoms: C_2  and  C_3 
REMARK    2  A    between atoms: C_3  and  C_4 
REMARK    3  A    between atoms: C_4  and  O_5 
REMARK    4  A    between atoms: O_5  and  C_6 
REMARK    5  A    between atoms: C_9  and  C_10 
REMARK    6  A    between atoms: C_10  and  N_11 
REMARK    7  A    between atoms: N_11  and  C_12 
REMARK    8  A    between atoms: C_19  and  C_20 
REMARK       I    between atoms: C_20  and  N_21 
ROOT
HETATM    1  C   UNL     1      40.280 -13.688   0.540  1.00  0.00     0.009 A 
HETATM    2  C   UNL     1      39.742 -14.357  -0.576  1.00  0.00     0.039 A 
HETATM    3  C   UNL     1      40.420 -14.347  -1.813  1.00  0.00     0.030 A 
HETATM    4  C   UNL     1      41.644 -13.698  -1.896  1.00  0.00     0.063 A 
HETATM    5  N   UNL     1      42.056 -13.861  -3.189  1.00  0.00    -0.277 N 
HETATM    6  H   UNL     1      42.914 -13.521  -3.606  1.00  0.00     0.189 HD
HETATM    7  N   UNL     1      41.203 -14.558  -3.960  1.00  0.00    -0.168 NA
HETATM    8  C   UNL     1      40.188 -14.867  -3.121  1.00  0.00     0.156 A 
HETATM    9  C   UNL     1      42.238 -13.059  -0.808  1.00  0.00     0.034 A 
HETATM   10  C   UNL     1      41.536 -13.082   0.406  1.00  0.00     0.026 A 
ENDROOT
BRANCH   1  11
HETATM   11  N   UNL     1      39.601 -13.784   1.764  1.00  0.00    -0.289 NA
HETATM   12  H   UNL     1      39.975 -13.138   2.457  1.00  0.00     0.128 HD
BRANCH  11  13
HETATM   13  C   UNL     1      39.360 -15.105   2.328  1.00  0.00     0.131 C 
BRANCH  13  14
HETATM   14  C   UNL     1      40.649 -15.890   2.387  1.00  0.00    -0.045 A 
HETATM   15  C   UNL     1      41.689 -15.481   3.236  1.00  0.00     0.011 A 
HETATM   16  C   UNL     1      42.855 -16.243   3.355  1.00  0.00     0.037 A 
HETATM   17  C   UNL     1      42.990 -17.428   2.632  1.00  0.00     0.068 A 
HETATM   18  C   UNL     1      41.985 -17.811   1.744  1.00  0.00     0.037 A 
HETATM   19  C   UNL     1      40.818 -17.052   1.624  1.00  0.00     0.011 A 
BRANCH  17  20
HETATM   20  O   UNL     1      44.066 -18.270   2.704  1.00  0.00    -0.351 OA
BRANCH  20  21
HETATM   21  C   UNL     1      43.818 -19.520   3.358  1.00  0.00     0.176 C 
BRANCH  21  22
HETATM   22  C   UNL     1      44.762 -19.612   4.556  1.00  0.00     0.030 C 
BRANCH  22  23
HETATM   23  C   UNL     1      44.173 -19.025   5.849  1.00  0.00    -0.021 C 
HETATM   24  C   UNL     1      45.144 -18.072   6.547  1.00  0.00     0.009 C 
HETATM   25  C   UNL     1      43.777 -20.154   6.802  1.00  0.00     0.009 C 
ENDBRANCH  22  23
ENDBRANCH  21  22
ENDBRANCH  20  21
ENDBRANCH  17  20
ENDBRANCH  13  14
ENDBRANCH  11  13
ENDBRANCH   1  11
BRANCH   8  26
HETATM   26  C   UNL     1      39.027 -15.640  -3.581  1.00  0.00     0.270 C 
HETATM   27  N   UNL     1      39.211 -16.995  -3.549  1.00  0.00    -0.365 N 
HETATM   28  H   UNL     1      40.101 -17.355  -3.225  1.00  0.00     0.159 HD
HETATM   29  H   UNL     1      38.471 -17.610  -3.850  1.00  0.00     0.159 HD
HETATM   30  O   UNL     1      37.972 -15.149  -3.970  1.00  0.00    -0.266 OA
ENDBRANCH   8  26
TORSDOF 8
ENDMDL
