MODEL 1
REMARK VINA RESULT:      -8.6      0.000      0.000
REMARK  8 active torsions:
REMARK  status: ('A' for Active; 'I' for Inactive)
REMARK    1  A    between atoms: O_2  and  C_3 
REMARK    2  A    between atoms: C_7  and  C_9 
REMARK    3  A    between atoms: C_9  and  C_10 
REMARK    4  A    between atoms: C_9  and  N_13 
REMARK    5  A    between atoms: C_10  and  C_11 
REMARK    6  A    between atoms: C_11  and  O_12 
REMARK       I    between atoms: N_13  and  C_14 
REMARK    7  A    between atoms: C_14  and  C_16 
REMARK    8  A    between atoms: C_19  and  C_22 
ROOT
HETATM    1  N   UNL     1      41.284 -15.451  -1.233  1.00  0.00    -0.348 N 
HETATM    2  C   UNL     1      40.877 -15.465   0.084  1.00  0.00     0.252 C 
HETATM    3  O   UNL     1      39.921 -14.821   0.498  1.00  0.00    -0.268 OA
HETATM    4  H   UNL     1      42.040 -16.044  -1.540  1.00  0.00     0.163 HD
ENDROOT
BRANCH   1   5
HETATM    5  C   UNL     1      40.633 -14.623  -2.240  1.00  0.00     0.120 C 
BRANCH   5   6
HETATM    6  C   UNL     1      41.374 -13.313  -2.476  1.00  0.00    -0.033 A 
HETATM    7  C   UNL     1      41.277 -12.696  -3.736  1.00  0.00     0.009 A 
HETATM    8  C   UNL     1      41.975 -11.521  -4.012  1.00  0.00     0.003 A 
HETATM    9  C   UNL     1      42.770 -10.939  -3.027  1.00  0.00     0.037 A 
HETATM   10  C   UNL     1      42.864 -11.519  -1.762  1.00  0.00     0.068 A 
HETATM   11  C   UNL     1      42.185 -12.712  -1.496  1.00  0.00     0.046 A 
BRANCH  10  12
HETATM   12  O   UNL     1      43.665 -10.848  -0.879  1.00  0.00    -0.356 OA
HETATM   13  C   UNL     1      44.008  -9.514  -1.236  1.00  0.00     0.210 C 
ENDBRANCH  10  12
ENDBRANCH   5   6
BRANCH   5  14
HETATM   14  C   UNL     1      40.498 -15.397  -3.561  1.00  0.00     0.056 C 
BRANCH  14  15
HETATM   15  C   UNL     1      39.054 -15.800  -3.845  1.00  0.00     0.166 C 
BRANCH  15  16
HETATM   16  O   UNL     1      38.987 -16.489  -5.088  1.00  0.00    -0.401 OA
HETATM   17  H   UNL     1      38.103 -16.889  -5.156  1.00  0.00     0.209 HD
ENDBRANCH  15  16
ENDBRANCH  14  15
ENDBRANCH   5  14
ENDBRANCH   1   5
BRANCH   2  18
HETATM   18  C   UNL     1      41.624 -16.370   1.005  1.00  0.00     0.032 A 
HETATM   19  C   UNL     1      42.807 -17.020   0.637  1.00  0.00     0.018 A 
HETATM   20  C   UNL     1      43.435 -17.898   1.529  1.00  0.00     0.013 A 
HETATM   21  C   UNL     1      42.909 -18.140   2.810  1.00  0.00    -0.026 A 
HETATM   22  C   UNL     1      41.740 -17.452   3.177  1.00  0.00     0.013 A 
HETATM   23  C   UNL     1      41.106 -16.577   2.288  1.00  0.00     0.018 A 
BRANCH  21  24
HETATM   24  C   UNL     1      43.554 -19.093   3.732  1.00  0.00    -0.023 A 
HETATM   25  C   UNL     1      43.448 -18.953   5.121  1.00  0.00     0.031 A 
HETATM   26  C   UNL     1      44.085 -19.869   5.943  1.00  0.00     0.117 A 
HETATM   27  N   UNL     1      44.814 -20.907   5.488  1.00  0.00    -0.273 NA
HETATM   28  C   UNL     1      44.908 -21.036   4.149  1.00  0.00     0.117 A 
HETATM   29  C   UNL     1      44.307 -20.171   3.248  1.00  0.00     0.031 A 
ENDBRANCH  21  24
ENDBRANCH   2  18
TORSDOF 8
ENDMDL
MODEL 2
REMARK VINA RESULT:      -8.4      1.947      3.609
REMARK  8 active torsions:
REMARK  status: ('A' for Active; 'I' for Inactive)
REMARK    1  A    between atoms: O_2  and  C_3 
REMARK    2  A    between atoms: C_7  and  C_9 
REMARK    3  A    between atoms: C_9  and  C_10 
REMARK    4  A    between atoms: C_9  and  N_13 
REMARK    5  A    between atoms: C_10  and  C_11 
REMARK    6  A    between atoms: C_11  and  O_12 
REMARK       I    between atoms: N_13  and  C_14 
REMARK    7  A    between atoms: C_14  and  C_16 
REMARK    8  A    between atoms: C_19  and  C_22 
ROOT
HETATM    1  N   UNL     1      42.052 -14.422   1.438  1.00  0.00    -0.348 N 
HETATM    2  C   UNL     1      43.017 -14.648   2.396  1.00  0.00     0.252 C 
HETATM    3  O   UNL     1      43.605 -13.748   2.983  1.00  0.00    -0.268 OA
HETATM    4  H   UNL     1      41.553 -15.195   1.024  1.00  0.00     0.163 HD
ENDROOT
BRANCH   1   5
HETATM    5  C   UNL     1      41.684 -13.080   1.005  1.00  0.00     0.120 C 
BRANCH   5   6
HETATM    6  C   UNL     1      41.919 -12.869  -0.486  1.00  0.00    -0.033 A 
HETATM    7  C   UNL     1      42.604 -11.716  -0.908  1.00  0.00     0.009 A 
HETATM    8  C   UNL     1      42.800 -11.459  -2.264  1.00  0.00     0.003 A 
HETATM    9  C   UNL     1      42.326 -12.357  -3.217  1.00  0.00     0.037 A 
HETATM   10  C   UNL     1      41.665 -13.520  -2.822  1.00  0.00     0.068 A 
HETATM   11  C   UNL     1      41.444 -13.763  -1.463  1.00  0.00     0.046 A 
BRANCH  10  12
HETATM   12  O   UNL     1      41.258 -14.328  -3.849  1.00  0.00    -0.356 OA
HETATM   13  C   UNL     1      40.199 -15.231  -3.550  1.00  0.00     0.210 C 
ENDBRANCH  10  12
ENDBRANCH   5   6
BRANCH   5  14
HETATM   14  C   UNL     1      40.215 -12.792   1.352  1.00  0.00     0.056 C 
BRANCH  14  15
HETATM   15  C   UNL     1      39.528 -13.996   1.987  1.00  0.00     0.166 C 
BRANCH  15  16
HETATM   16  O   UNL     1      39.125 -14.907   0.970  1.00  0.00    -0.401 OA
HETATM   17  H   UNL     1      38.930 -15.759   1.397  1.00  0.00     0.209 HD
ENDBRANCH  15  16
ENDBRANCH  14  15
ENDBRANCH   5  14
ENDBRANCH   1   5
BRANCH   2  18
HETATM   18  C   UNL     1      43.283 -16.072   2.753  1.00  0.00     0.032 A 
HETATM   19  C   UNL     1      43.173 -16.561   4.059  1.00  0.00     0.018 A 
HETATM   20  C   UNL     1      43.485 -17.898   4.340  1.00  0.00     0.013 A 
HETATM   21  C   UNL     1      43.902 -18.780   3.327  1.00  0.00    -0.026 A 
HETATM   22  C   UNL     1      43.972 -18.282   2.016  1.00  0.00     0.013 A 
HETATM   23  C   UNL     1      43.665 -16.947   1.730  1.00  0.00     0.018 A 
BRANCH  21  24
HETATM   24  C   UNL     1      44.265 -20.175   3.634  1.00  0.00    -0.023 A 
HETATM   25  C   UNL     1      44.281 -21.162   2.641  1.00  0.00     0.031 A 
HETATM   26  C   UNL     1      44.617 -22.462   2.985  1.00  0.00     0.117 A 
HETATM   27  N   UNL     1      44.934 -22.850   4.236  1.00  0.00    -0.273 NA
HETATM   28  C   UNL     1      44.919 -21.892   5.185  1.00  0.00     0.117 A 
HETATM   29  C   UNL     1      44.597 -20.566   4.938  1.00  0.00     0.031 A 
ENDBRANCH  21  24
ENDBRANCH   2  18
TORSDOF 8
ENDMDL
MODEL 3
REMARK VINA RESULT:      -8.1      2.146      3.179
REMARK  8 active torsions:
REMARK  status: ('A' for Active; 'I' for Inactive)
REMARK    1  A    between atoms: O_2  and  C_3 
REMARK    2  A    between atoms: C_7  and  C_9 
REMARK    3  A    between atoms: C_9  and  C_10 
REMARK    4  A    between atoms: C_9  and  N_13 
REMARK    5  A    between atoms: C_10  and  C_11 
REMARK    6  A    between atoms: C_11  and  O_12 
REMARK       I    between atoms: N_13  and  C_14 
REMARK    7  A    between atoms: C_14  and  C_16 
REMARK    8  A    between atoms: C_19  and  C_22 
ROOT
HETATM    1  N   UNL     1      41.937 -14.246   1.625  1.00  0.00    -0.348 N 
HETATM    2  C   UNL     1      42.970 -14.521   2.494  1.00  0.00     0.252 C 
HETATM    3  O   UNL     1      43.620 -13.652   3.062  1.00  0.00    -0.268 OA
HETATM    4  H   UNL     1      41.392 -14.996   1.226  1.00  0.00     0.163 HD
ENDROOT
BRANCH   1   5
HETATM    5  C   UNL     1      41.559 -12.884   1.270  1.00  0.00     0.120 C 
BRANCH   5   6
HETATM    6  C   UNL     1      41.947 -12.532  -0.161  1.00  0.00    -0.033 A 
HETATM    7  C   UNL     1      41.796 -13.505  -1.164  1.00  0.00     0.009 A 
HETATM    8  C   UNL     1      42.182 -13.243  -2.478  1.00  0.00     0.003 A 
HETATM    9  C   UNL     1      42.713 -11.999  -2.810  1.00  0.00     0.037 A 
HETATM   10  C   UNL     1      42.851 -11.009  -1.838  1.00  0.00     0.068 A 
HETATM   11  C   UNL     1      42.489 -11.283  -0.515  1.00  0.00     0.046 A 
BRANCH  10  12
HETATM   12  O   UNL     1      43.373  -9.827  -2.289  1.00  0.00    -0.356 OA
HETATM   13  C   UNL     1      43.960  -8.987  -1.301  1.00  0.00     0.210 C 
ENDBRANCH  10  12
ENDBRANCH   5   6
BRANCH   5  14
HETATM   14  C   UNL     1      40.051 -12.678   1.473  1.00  0.00     0.056 C 
BRANCH  14  15
HETATM   15  C   UNL     1      39.346 -13.965   1.887  1.00  0.00     0.166 C 
BRANCH  15  16
HETATM   16  O   UNL     1      39.080 -14.756   0.733  1.00  0.00    -0.401 OA
HETATM   17  H   UNL     1      38.314 -15.322   0.933  1.00  0.00     0.209 HD
ENDBRANCH  15  16
ENDBRANCH  14  15
ENDBRANCH   5  14
ENDBRANCH   1   5
BRANCH   2  18
HETATM   18  C   UNL     1      43.238 -15.961   2.779  1.00  0.00     0.032 A 
HETATM   19  C   UNL     1      43.174 -16.506   4.066  1.00  0.00     0.018 A 
HETATM   20  C   UNL     1      43.486 -17.855   4.277  1.00  0.00     0.013 A 
HETATM   21  C   UNL     1      43.856 -18.695   3.212  1.00  0.00    -0.026 A 
HETATM   22  C   UNL     1      43.880 -18.142   1.921  1.00  0.00     0.013 A 
HETATM   23  C   UNL     1      43.573 -16.793   1.706  1.00  0.00     0.018 A 
BRANCH  21  24
HETATM   24  C   UNL     1      44.218 -20.105   3.444  1.00  0.00    -0.023 A 
HETATM   25  C   UNL     1      44.145 -21.057   2.420  1.00  0.00     0.031 A 
HETATM   26  C   UNL     1      44.485 -22.373   2.695  1.00  0.00     0.117 A 
HETATM   27  N   UNL     1      44.889 -22.807   3.905  1.00  0.00    -0.273 NA
HETATM   28  C   UNL     1      44.959 -21.883   4.884  1.00  0.00     0.117 A 
HETATM   29  C   UNL     1      44.640 -20.545   4.705  1.00  0.00     0.031 A 
ENDBRANCH  21  24
ENDBRANCH   2  18
TORSDOF 8
ENDMDL
MODEL 4
REMARK VINA RESULT:      -8.0      3.318      5.353
REMARK  8 active torsions:
REMARK  status: ('A' for Active; 'I' for Inactive)
REMARK    1  A    between atoms: O_2  and  C_3 
REMARK    2  A    between atoms: C_7  and  C_9 
REMARK    3  A    between atoms: C_9  and  C_10 
REMARK    4  A    between atoms: C_9  and  N_13 
REMARK    5  A    between atoms: C_10  and  C_11 
REMARK    6  A    between atoms: C_11  and  O_12 
REMARK       I    between atoms: N_13  and  C_14 
REMARK    7  A    between atoms: C_14  and  C_16 
REMARK    8  A    between atoms: C_19  and  C_22 
ROOT
HETATM    1  N   UNL     1      41.101 -14.196   3.217  1.00  0.00    -0.348 N 
HETATM    2  C   UNL     1      42.414 -14.411   2.856  1.00  0.00     0.252 C 
HETATM    3  O   UNL     1      43.204 -13.504   2.626  1.00  0.00    -0.268 OA
HETATM    4  H   UNL     1      40.503 -14.973   3.455  1.00  0.00     0.163 HD
ENDROOT
BRANCH   1   5
HETATM    5  C   UNL     1      40.527 -12.860   3.306  1.00  0.00     0.120 C 
BRANCH   5   6
HETATM    6  C   UNL     1      39.389 -12.653   2.314  1.00  0.00    -0.033 A 
HETATM    7  C   UNL     1      38.494 -11.589   2.520  1.00  0.00     0.009 A 
HETATM    8  C   UNL     1      37.410 -11.391   1.665  1.00  0.00     0.003 A 
HETATM    9  C   UNL     1      37.214 -12.246   0.583  1.00  0.00     0.037 A 
HETATM   10  C   UNL     1      38.102 -13.295   0.343  1.00  0.00     0.068 A 
HETATM   11  C   UNL     1      39.172 -13.509   1.218  1.00  0.00     0.046 A 
BRANCH  10  12
HETATM   12  O   UNL     1      37.810 -14.058  -0.754  1.00  0.00    -0.356 OA
HETATM   13  C   UNL     1      38.681 -13.905  -1.869  1.00  0.00     0.210 C 
ENDBRANCH  10  12
ENDBRANCH   5   6
BRANCH   5  14
HETATM   14  C   UNL     1      40.036 -12.583   4.735  1.00  0.00     0.056 C 
BRANCH  14  15
HETATM   15  C   UNL     1      39.912 -13.862   5.556  1.00  0.00     0.166 C 
BRANCH  15  16
HETATM   16  O   UNL     1      41.134 -14.111   6.242  1.00  0.00    -0.401 OA
HETATM   17  H   UNL     1      40.916 -14.335   7.163  1.00  0.00     0.209 HD
ENDBRANCH  15  16
ENDBRANCH  14  15
ENDBRANCH   5  14
ENDBRANCH   1   5
BRANCH   2  18
HETATM   18  C   UNL     1      42.872 -15.830   2.820  1.00  0.00     0.032 A 
HETATM   19  C   UNL     1      43.143 -16.511   1.628  1.00  0.00     0.018 A 
HETATM   20  C   UNL     1      43.522 -17.859   1.657  1.00  0.00     0.013 A 
HETATM   21  C   UNL     1      43.653 -18.557   2.871  1.00  0.00    -0.026 A 
HETATM   22  C   UNL     1      43.413 -17.849   4.059  1.00  0.00     0.013 A 
HETATM   23  C   UNL     1      43.030 -16.503   4.036  1.00  0.00     0.018 A 
BRANCH  21  24
HETATM   24  C   UNL     1      44.017 -19.985   2.893  1.00  0.00    -0.023 A 
HETATM   25  C   UNL     1      43.820 -20.807   1.776  1.00  0.00     0.031 A 
HETATM   26  C   UNL     1      44.168 -22.147   1.854  1.00  0.00     0.117 A 
HETATM   27  N   UNL     1      44.691 -22.725   2.953  1.00  0.00    -0.273 NA
HETATM   28  C   UNL     1      44.879 -21.925   4.022  1.00  0.00     0.117 A 
HETATM   29  C   UNL     1      44.564 -20.574   4.040  1.00  0.00     0.031 A 
ENDBRANCH  21  24
ENDBRANCH   2  18
TORSDOF 8
ENDMDL
MODEL 5
REMARK VINA RESULT:      -8.0      1.594      2.362
REMARK  8 active torsions:
REMARK  status: ('A' for Active; 'I' for Inactive)
REMARK    1  A    between atoms: O_2  and  C_3 
REMARK    2  A    between atoms: C_7  and  C_9 
REMARK    3  A    between atoms: C_9  and  C_10 
REMARK    4  A    between atoms: C_9  and  N_13 
REMARK    5  A    between atoms: C_10  and  C_11 
REMARK    6  A    between atoms: C_11  and  O_12 
REMARK       I    between atoms: N_13  and  C_14 
REMARK    7  A    between atoms: C_14  and  C_16 
REMARK    8  A    between atoms: C_19  and  C_22 
ROOT
HETATM    1  N   UNL     1      40.192 -15.029  -1.246  1.00  0.00    -0.348 N 
HETATM    2  C   UNL     1      40.235 -14.895   0.125  1.00  0.00     0.252 C 
HETATM    3  O   UNL     1      39.639 -14.013   0.733  1.00  0.00    -0.268 OA
HETATM    4  H   UNL     1      40.650 -15.806  -1.697  1.00  0.00     0.163 HD
ENDROOT
BRANCH   1   5
HETATM    5  C   UNL     1      39.467 -14.096  -2.097  1.00  0.00     0.120 C 
BRANCH   5   6
HETATM    6  C   UNL     1      40.400 -13.144  -2.836  1.00  0.00    -0.033 A 
HETATM    7  C   UNL     1      41.777 -13.193  -2.558  1.00  0.00     0.009 A 
HETATM    8  C   UNL     1      42.662 -12.309  -3.175  1.00  0.00     0.003 A 
HETATM    9  C   UNL     1      42.183 -11.373  -4.089  1.00  0.00     0.037 A 
HETATM   10  C   UNL     1      40.825 -11.321  -4.399  1.00  0.00     0.068 A 
HETATM   11  C   UNL     1      39.935 -12.189  -3.758  1.00  0.00     0.046 A 
BRANCH  10  12
HETATM   12  O   UNL     1      40.479 -10.367  -5.318  1.00  0.00    -0.356 OA
HETATM   13  C   UNL     1      41.544  -9.562  -5.812  1.00  0.00     0.210 C 
ENDBRANCH  10  12
ENDBRANCH   5   6
BRANCH   5  14
HETATM   14  C   UNL     1      38.590 -14.859  -3.102  1.00  0.00     0.056 C 
BRANCH  14  15
HETATM   15  C   UNL     1      39.395 -15.866  -3.917  1.00  0.00     0.166 C 
BRANCH  15  16
HETATM   16  O   UNL     1      39.175 -17.177  -3.409  1.00  0.00    -0.401 OA
HETATM   17  H   UNL     1      38.568 -17.103  -2.652  1.00  0.00     0.209 HD
ENDBRANCH  15  16
ENDBRANCH  14  15
ENDBRANCH   5  14
ENDBRANCH   1   5
BRANCH   2  18
HETATM   18  C   UNL     1      41.003 -15.931   0.875  1.00  0.00     0.032 A 
HETATM   19  C   UNL     1      40.627 -16.387   2.143  1.00  0.00     0.018 A 
HETATM   20  C   UNL     1      41.417 -17.326   2.818  1.00  0.00     0.013 A 
HETATM   21  C   UNL     1      42.592 -17.841   2.242  1.00  0.00    -0.026 A 
HETATM   22  C   UNL     1      42.936 -17.401   0.954  1.00  0.00     0.013 A 
HETATM   23  C   UNL     1      42.152 -16.460   0.277  1.00  0.00     0.018 A 
BRANCH  21  24
HETATM   24  C   UNL     1      43.440 -18.802   2.972  1.00  0.00    -0.023 A 
HETATM   25  C   UNL     1      43.880 -19.989   2.375  1.00  0.00     0.031 A 
HETATM   26  C   UNL     1      44.665 -20.864   3.110  1.00  0.00     0.117 A 
HETATM   27  N   UNL     1      45.041 -20.647   4.385  1.00  0.00    -0.273 NA
HETATM   28  C   UNL     1      44.614 -19.499   4.951  1.00  0.00     0.117 A 
HETATM   29  C   UNL     1      43.828 -18.563   4.297  1.00  0.00     0.031 A 
ENDBRANCH  21  24
ENDBRANCH   2  18
TORSDOF 8
ENDMDL
MODEL 6
REMARK VINA RESULT:      -7.8      2.799      9.273
REMARK  8 active torsions:
REMARK  status: ('A' for Active; 'I' for Inactive)
REMARK    1  A    between atoms: O_2  and  C_3 
REMARK    2  A    between atoms: C_7  and  C_9 
REMARK    3  A    between atoms: C_9  and  C_10 
REMARK    4  A    between atoms: C_9  and  N_13 
REMARK    5  A    between atoms: C_10  and  C_11 
REMARK    6  A    between atoms: C_11  and  O_12 
REMARK       I    between atoms: N_13  and  C_14 
REMARK    7  A    between atoms: C_14  and  C_16 
REMARK    8  A    between atoms: C_19  and  C_22 
ROOT
HETATM    1  N   UNL     1      42.295 -16.281   2.559  1.00  0.00    -0.348 N 
HETATM    2  C   UNL     1      41.173 -15.949   1.832  1.00  0.00     0.252 C 
HETATM    3  O   UNL     1      40.059 -16.399   2.072  1.00  0.00    -0.268 OA
HETATM    4  H   UNL     1      43.181 -15.840   2.361  1.00  0.00     0.163 HD
ENDROOT
BRANCH   1   5
HETATM    5  C   UNL     1      42.258 -17.243   3.653  1.00  0.00     0.120 C 
BRANCH   5   6
HETATM    6  C   UNL     1      43.054 -18.505   3.340  1.00  0.00    -0.033 A 
HETATM    7  C   UNL     1      42.909 -19.102   2.075  1.00  0.00     0.009 A 
HETATM    8  C   UNL     1      43.582 -20.283   1.762  1.00  0.00     0.003 A 
HETATM    9  C   UNL     1      44.418 -20.876   2.705  1.00  0.00     0.037 A 
HETATM   10  C   UNL     1      44.596 -20.290   3.957  1.00  0.00     0.068 A 
HETATM   11  C   UNL     1      43.900 -19.121   4.280  1.00  0.00     0.046 A 
BRANCH  10  12
HETATM   12  O   UNL     1      45.450 -20.960   4.791  1.00  0.00    -0.356 OA
HETATM   13  C   UNL     1      45.076 -22.291   5.128  1.00  0.00     0.210 C 
ENDBRANCH  10  12
ENDBRANCH   5   6
BRANCH   5  14
HETATM   14  C   UNL     1      42.778 -16.600   4.947  1.00  0.00     0.056 C 
BRANCH  14  15
HETATM   15  C   UNL     1      41.642 -16.141   5.856  1.00  0.00     0.166 C 
BRANCH  15  16
HETATM   16  O   UNL     1      40.406 -16.230   5.157  1.00  0.00    -0.401 OA
HETATM   17  H   UNL     1      40.606 -16.259   4.206  1.00  0.00     0.209 HD
ENDBRANCH  15  16
ENDBRANCH  14  15
ENDBRANCH   5  14
ENDBRANCH   1   5
BRANCH   2  18
HETATM   18  C   UNL     1      41.353 -14.939   0.749  1.00  0.00     0.032 A 
HETATM   19  C   UNL     1      41.117 -15.221  -0.600  1.00  0.00     0.018 A 
HETATM   20  C   UNL     1      41.353 -14.244  -1.577  1.00  0.00     0.013 A 
HETATM   21  C   UNL     1      41.817 -12.963  -1.232  1.00  0.00    -0.026 A 
HETATM   22  C   UNL     1      42.014 -12.684   0.130  1.00  0.00     0.013 A 
HETATM   23  C   UNL     1      41.784 -13.657   1.109  1.00  0.00     0.018 A 
BRANCH  21  24
HETATM   24  C   UNL     1      42.098 -11.951  -2.267  1.00  0.00    -0.023 A 
HETATM   25  C   UNL     1      42.024 -12.260  -3.631  1.00  0.00     0.031 A 
HETATM   26  C   UNL     1      42.311 -11.275  -4.563  1.00  0.00     0.117 A 
HETATM   27  N   UNL     1      42.665 -10.015  -4.241  1.00  0.00    -0.273 NA
HETATM   28  C   UNL     1      42.730  -9.727  -2.925  1.00  0.00     0.117 A 
HETATM   29  C   UNL     1      42.461 -10.643  -1.920  1.00  0.00     0.031 A 
ENDBRANCH  21  24
ENDBRANCH   2  18
TORSDOF 8
ENDMDL
MODEL 7
REMARK VINA RESULT:      -7.8      3.554      9.544
REMARK  8 active torsions:
REMARK  status: ('A' for Active; 'I' for Inactive)
REMARK    1  A    between atoms: O_2  and  C_3 
REMARK    2  A    between atoms: C_7  and  C_9 
REMARK    3  A    between atoms: C_9  and  C_10 
REMARK    4  A    between atoms: C_9  and  N_13 
REMARK    5  A    between atoms: C_10  and  C_11 
REMARK    6  A    between atoms: C_11  and  O_12 
REMARK       I    between atoms: N_13  and  C_14 
REMARK    7  A    between atoms: C_14  and  C_16 
REMARK    8  A    between atoms: C_19  and  C_22 
ROOT
HETATM    1  N   UNL     1      43.011 -17.437   4.338  1.00  0.00    -0.348 N 
HETATM    2  C   UNL     1      41.684 -17.181   4.068  1.00  0.00     0.252 C 
HETATM    3  O   UNL     1      40.775 -17.462   4.840  1.00  0.00    -0.268 OA
HETATM    4  H   UNL     1      43.730 -17.134   3.698  1.00  0.00     0.163 HD
ENDROOT
BRANCH   1   5
HETATM    5  C   UNL     1      43.442 -18.114   5.555  1.00  0.00     0.120 C 
BRANCH   5   6
HETATM    6  C   UNL     1      43.889 -19.546   5.291  1.00  0.00    -0.033 A 
HETATM    7  C   UNL     1      44.025 -20.426   6.380  1.00  0.00     0.009 A 
HETATM    8  C   UNL     1      44.477 -21.731   6.191  1.00  0.00     0.003 A 
HETATM    9  C   UNL     1      44.787 -22.180   4.909  1.00  0.00     0.037 A 
HETATM   10  C   UNL     1      44.638 -21.334   3.810  1.00  0.00     0.068 A 
HETATM   11  C   UNL     1      44.211 -20.016   4.005  1.00  0.00     0.046 A 
BRANCH  10  12
HETATM   12  O   UNL     1      44.963 -21.892   2.604  1.00  0.00    -0.356 OA
HETATM   13  C   UNL     1      43.965 -21.818   1.593  1.00  0.00     0.210 C 
ENDBRANCH  10  12
ENDBRANCH   5   6
BRANCH   5  14
HETATM   14  C   UNL     1      44.572 -17.325   6.233  1.00  0.00     0.056 C 
BRANCH  14  15
HETATM   15  C   UNL     1      44.063 -16.053   6.902  1.00  0.00     0.166 C 
BRANCH  15  16
HETATM   16  O   UNL     1      42.661 -16.157   7.122  1.00  0.00    -0.401 OA
HETATM   17  H   UNL     1      42.507 -16.102   8.081  1.00  0.00     0.209 HD
ENDBRANCH  15  16
ENDBRANCH  14  15
ENDBRANCH   5  14
ENDBRANCH   1   5
BRANCH   2  18
HETATM   18  C   UNL     1      41.388 -16.468   2.791  1.00  0.00     0.032 A 
HETATM   19  C   UNL     1      40.358 -15.530   2.666  1.00  0.00     0.018 A 
HETATM   20  C   UNL     1      40.096 -14.931   1.427  1.00  0.00     0.013 A 
HETATM   21  C   UNL     1      40.860 -15.242   0.289  1.00  0.00    -0.026 A 
HETATM   22  C   UNL     1      41.914 -16.158   0.439  1.00  0.00     0.013 A 
HETATM   23  C   UNL     1      42.177 -16.763   1.674  1.00  0.00     0.018 A 
BRANCH  21  24
HETATM   24  C   UNL     1      40.557 -14.636  -1.021  1.00  0.00    -0.023 A 
HETATM   25  C   UNL     1      39.919 -13.394  -1.121  1.00  0.00     0.031 A 
HETATM   26  C   UNL     1      39.645 -12.875  -2.377  1.00  0.00     0.117 A 
HETATM   27  N   UNL     1      39.957 -13.496  -3.532  1.00  0.00    -0.273 NA
HETATM   28  C   UNL     1      40.574 -14.690  -3.425  1.00  0.00     0.117 A 
HETATM   29  C   UNL     1      40.890 -15.289  -2.214  1.00  0.00     0.031 A 
ENDBRANCH  21  24
ENDBRANCH   2  18
TORSDOF 8
ENDMDL
MODEL 8
REMARK VINA RESULT:      -7.7      2.920      9.143
REMARK  8 active torsions:
REMARK  status: ('A' for Active; 'I' for Inactive)
REMARK    1  A    between atoms: O_2  and  C_3 
REMARK    2  A    between atoms: C_7  and  C_9 
REMARK    3  A    between atoms: C_9  and  C_10 
REMARK    4  A    between atoms: C_9  and  N_13 
REMARK    5  A    between atoms: C_10  and  C_11 
REMARK    6  A    between atoms: C_11  and  O_12 
REMARK       I    between atoms: N_13  and  C_14 
REMARK    7  A    between atoms: C_14  and  C_16 
REMARK    8  A    between atoms: C_19  and  C_22 
ROOT
HETATM    1  N   UNL     1      41.563 -16.346   3.410  1.00  0.00    -0.348 N 
HETATM    2  C   UNL     1      41.020 -16.416   2.145  1.00  0.00     0.252 C 
HETATM    3  O   UNL     1      40.305 -17.338   1.772  1.00  0.00    -0.268 OA
HETATM    4  H   UNL     1      42.098 -15.538   3.692  1.00  0.00     0.163 HD
ENDROOT
BRANCH   1   5
HETATM    5  C   UNL     1      41.369 -17.397   4.401  1.00  0.00     0.120 C 
BRANCH   5   6
HETATM    6  C   UNL     1      42.566 -18.335   4.489  1.00  0.00    -0.033 A 
HETATM    7  C   UNL     1      43.155 -18.568   5.744  1.00  0.00     0.009 A 
HETATM    8  C   UNL     1      44.281 -19.382   5.865  1.00  0.00     0.003 A 
HETATM    9  C   UNL     1      44.826 -19.985   4.734  1.00  0.00     0.037 A 
HETATM   10  C   UNL     1      44.245 -19.789   3.481  1.00  0.00     0.068 A 
HETATM   11  C   UNL     1      43.133 -18.950   3.357  1.00  0.00     0.046 A 
BRANCH  10  12
HETATM   12  O   UNL     1      44.864 -20.443   2.450  1.00  0.00    -0.356 OA
HETATM   13  C   UNL     1      44.246 -21.649   2.016  1.00  0.00     0.210 C 
ENDBRANCH  10  12
ENDBRANCH   5   6
BRANCH   5  14
HETATM   14  C   UNL     1      41.077 -16.784   5.779  1.00  0.00     0.056 C 
BRANCH  14  15
HETATM   15  C   UNL     1      40.919 -15.269   5.711  1.00  0.00     0.166 C 
BRANCH  15  16
HETATM   16  O   UNL     1      39.550 -14.941   5.499  1.00  0.00    -0.401 OA
HETATM   17  H   UNL     1      39.224 -15.493   4.768  1.00  0.00     0.209 HD
ENDBRANCH  15  16
ENDBRANCH  14  15
ENDBRANCH   5  14
ENDBRANCH   1   5
BRANCH   2  18
HETATM   18  C   UNL     1      41.288 -15.262   1.238  1.00  0.00     0.032 A 
HETATM   19  C   UNL     1      41.136 -15.337  -0.150  1.00  0.00     0.018 A 
HETATM   20  C   UNL     1      41.451 -14.233  -0.954  1.00  0.00     0.013 A 
HETATM   21  C   UNL     1      41.913 -13.029  -0.394  1.00  0.00    -0.026 A 
HETATM   22  C   UNL     1      42.025 -12.959   1.004  1.00  0.00     0.013 A 
HETATM   23  C   UNL     1      41.715 -14.060   1.811  1.00  0.00     0.018 A 
BRANCH  21  24
HETATM   24  C   UNL     1      42.278 -11.883  -1.247  1.00  0.00    -0.023 A 
HETATM   25  C   UNL     1      42.015 -11.883  -2.623  1.00  0.00     0.031 A 
HETATM   26  C   UNL     1      42.391 -10.785  -3.382  1.00  0.00     0.117 A 
HETATM   27  N   UNL     1      43.005  -9.697  -2.877  1.00  0.00    -0.273 NA
HETATM   28  C   UNL     1      43.252  -9.706  -1.552  1.00  0.00     0.117 A 
HETATM   29  C   UNL     1      42.913 -10.756  -0.711  1.00  0.00     0.031 A 
ENDBRANCH  21  24
ENDBRANCH   2  18
TORSDOF 8
ENDMDL
MODEL 9
REMARK VINA RESULT:      -7.6      3.797      9.436
REMARK  8 active torsions:
REMARK  status: ('A' for Active; 'I' for Inactive)
REMARK    1  A    between atoms: O_2  and  C_3 
REMARK    2  A    between atoms: C_7  and  C_9 
REMARK    3  A    between atoms: C_9  and  C_10 
REMARK    4  A    between atoms: C_9  and  N_13 
REMARK    5  A    between atoms: C_10  and  C_11 
REMARK    6  A    between atoms: C_11  and  O_12 
REMARK       I    between atoms: N_13  and  C_14 
REMARK    7  A    between atoms: C_14  and  C_16 
REMARK    8  A    between atoms: C_19  and  C_22 
ROOT
HETATM    1  N   UNL     1      41.575 -16.439   2.879  1.00  0.00    -0.348 N 
HETATM    2  C   UNL     1      40.567 -15.525   3.098  1.00  0.00     0.252 C 
HETATM    3  O   UNL     1      40.255 -15.124   4.213  1.00  0.00    -0.268 OA
HETATM    4  H   UNL     1      41.836 -16.695   1.939  1.00  0.00     0.163 HD
ENDROOT
BRANCH   1   5
HETATM    5  C   UNL     1      42.326 -17.047   3.970  1.00  0.00     0.120 C 
BRANCH   5   6
HETATM    6  C   UNL     1      43.055 -18.312   3.534  1.00  0.00    -0.033 A 
HETATM    7  C   UNL     1      42.831 -18.812   2.239  1.00  0.00     0.009 A 
HETATM    8  C   UNL     1      43.439 -19.993   1.814  1.00  0.00     0.003 A 
HETATM    9  C   UNL     1      44.291 -20.683   2.673  1.00  0.00     0.037 A 
HETATM   10  C   UNL     1      44.548 -20.194   3.954  1.00  0.00     0.068 A 
HETATM   11  C   UNL     1      43.915 -19.026   4.389  1.00  0.00     0.046 A 
BRANCH  10  12
HETATM   12  O   UNL     1      45.409 -20.954   4.699  1.00  0.00    -0.356 OA
HETATM   13  C   UNL     1      44.891 -22.187   5.186  1.00  0.00     0.210 C 
ENDBRANCH  10  12
ENDBRANCH   5   6
BRANCH   5  14
HETATM   14  C   UNL     1      43.326 -16.039   4.556  1.00  0.00     0.056 C 
BRANCH  14  15
HETATM   15  C   UNL     1      43.211 -15.933   6.073  1.00  0.00     0.166 C 
BRANCH  15  16
HETATM   16  O   UNL     1      42.008 -15.251   6.414  1.00  0.00    -0.401 OA
HETATM   17  H   UNL     1      41.883 -15.336   7.375  1.00  0.00     0.209 HD
ENDBRANCH  15  16
ENDBRANCH  14  15
ENDBRANCH   5  14
ENDBRANCH   1   5
BRANCH   2  18
HETATM   18  C   UNL     1      39.891 -14.972   1.889  1.00  0.00     0.032 A 
HETATM   19  C   UNL     1      38.538 -14.621   1.869  1.00  0.00     0.018 A 
HETATM   20  C   UNL     1      37.948 -14.154   0.687  1.00  0.00     0.013 A 
HETATM   21  C   UNL     1      38.694 -14.014  -0.497  1.00  0.00    -0.026 A 
HETATM   22  C   UNL     1      40.060 -14.336  -0.450  1.00  0.00     0.013 A 
HETATM   23  C   UNL     1      40.653 -14.806   0.727  1.00  0.00     0.018 A 
BRANCH  21  24
HETATM   24  C   UNL     1      38.060 -13.557  -1.747  1.00  0.00    -0.023 A 
HETATM   25  C   UNL     1      37.669 -12.224  -1.924  1.00  0.00     0.031 A 
HETATM   26  C   UNL     1      37.065 -11.849  -3.114  1.00  0.00     0.117 A 
HETATM   27  N   UNL     1      36.822 -12.696  -4.133  1.00  0.00    -0.273 NA
HETATM   28  C   UNL     1      37.204 -13.977  -3.954  1.00  0.00     0.117 A 
HETATM   29  C   UNL     1      37.815 -14.446  -2.801  1.00  0.00     0.031 A 
ENDBRANCH  21  24
ENDBRANCH   2  18
TORSDOF 8
ENDMDL
MODEL 10
REMARK VINA RESULT:      -7.5      5.882      8.718
REMARK  8 active torsions:
REMARK  status: ('A' for Active; 'I' for Inactive)
REMARK    1  A    between atoms: O_2  and  C_3 
REMARK    2  A    between atoms: C_7  and  C_9 
REMARK    3  A    between atoms: C_9  and  C_10 
REMARK    4  A    between atoms: C_9  and  N_13 
REMARK    5  A    between atoms: C_10  and  C_11 
REMARK    6  A    between atoms: C_11  and  O_12 
REMARK       I    between atoms: N_13  and  C_14 
REMARK    7  A    between atoms: C_14  and  C_16 
REMARK    8  A    between atoms: C_19  and  C_22 
ROOT
HETATM    1  N   UNL     1      42.522 -15.825   4.025  1.00  0.00    -0.348 N 
HETATM    2  C   UNL     1      43.245 -14.652   4.009  1.00  0.00     0.252 C 
HETATM    3  O   UNL     1      43.756 -14.191   2.995  1.00  0.00    -0.268 OA
HETATM    4  H   UNL     1      42.070 -16.135   4.871  1.00  0.00     0.163 HD
ENDROOT
BRANCH   1   5
HETATM    5  C   UNL     1      42.346 -16.647   2.834  1.00  0.00     0.120 C 
BRANCH   5   6
HETATM    6  C   UNL     1      43.078 -17.980   2.940  1.00  0.00    -0.033 A 
HETATM    7  C   UNL     1      43.270 -18.742   1.774  1.00  0.00     0.009 A 
HETATM    8  C   UNL     1      43.892 -19.989   1.831  1.00  0.00     0.003 A 
HETATM    9  C   UNL     1      44.343 -20.485   3.052  1.00  0.00     0.037 A 
HETATM   10  C   UNL     1      44.186 -19.736   4.218  1.00  0.00     0.068 A 
HETATM   11  C   UNL     1      43.537 -18.499   4.164  1.00  0.00     0.046 A 
BRANCH  10  12
HETATM   12  O   UNL     1      44.680 -20.324   5.351  1.00  0.00    -0.356 OA
HETATM   13  C   UNL     1      43.933 -20.108   6.542  1.00  0.00     0.210 C 
ENDBRANCH  10  12
ENDBRANCH   5   6
BRANCH   5  14
HETATM   14  C   UNL     1      40.852 -16.887   2.567  1.00  0.00     0.056 C 
BRANCH  14  15
HETATM   15  C   UNL     1      40.094 -15.583   2.337  1.00  0.00     0.166 C 
BRANCH  15  16
HETATM   16  O   UNL     1      39.672 -15.049   3.588  1.00  0.00    -0.401 OA
HETATM   17  H   UNL     1      38.727 -14.831   3.512  1.00  0.00     0.209 HD
ENDBRANCH  15  16
ENDBRANCH  14  15
ENDBRANCH   5  14
ENDBRANCH   1   5
BRANCH   2  18
HETATM   18  C   UNL     1      43.333 -13.903   5.296  1.00  0.00     0.032 A 
HETATM   19  C   UNL     1      42.419 -12.909   5.660  1.00  0.00     0.018 A 
HETATM   20  C   UNL     1      42.583 -12.205   6.861  1.00  0.00     0.013 A 
HETATM   21  C   UNL     1      43.651 -12.484   7.731  1.00  0.00    -0.026 A 
HETATM   22  C   UNL     1      44.539 -13.511   7.368  1.00  0.00     0.013 A 
HETATM   23  C   UNL     1      44.381 -14.213   6.168  1.00  0.00     0.018 A 
BRANCH  21  24
HETATM   24  C   UNL     1      43.840 -11.717   8.975  1.00  0.00    -0.023 A 
HETATM   25  C   UNL     1      42.851 -10.851   9.457  1.00  0.00     0.031 A 
HETATM   26  C   UNL     1      43.084 -10.142  10.626  1.00  0.00     0.117 A 
HETATM   27  N   UNL     1      44.221 -10.230  11.344  1.00  0.00    -0.273 NA
HETATM   28  C   UNL     1      45.166 -11.069  10.874  1.00  0.00     0.117 A 
HETATM   29  C   UNL     1      45.024 -11.819   9.716  1.00  0.00     0.031 A 
ENDBRANCH  21  24
ENDBRANCH   2  18
TORSDOF 8
ENDMDL
