MODEL 1
REMARK VINA RESULT:      -7.8      0.000      0.000
REMARK  7 active torsions:
REMARK  status: ('A' for Active; 'I' for Inactive)
REMARK    1  A    between atoms: C_2  and  N_3 
REMARK    2  A    between atoms: C_2  and  C_17 
REMARK       I    between atoms: N_3  and  C_4 
REMARK    3  A    between atoms: C_4  and  C_5 
REMARK    4  A    between atoms: C_6  and  N_7 
REMARK    5  A    between atoms: C_17  and  O_18 
REMARK    6  A    between atoms: C_17  and  C_19 
REMARK    7  A    between atoms: C_22  and  O_23 
ROOT
HETATM    1  N   UNL     1      42.349 -17.862   1.927  1.00  0.00    -0.350 N 
HETATM    2  C   UNL     1      43.655 -18.294   1.976  1.00  0.00     0.255 C 
HETATM    3  O   UNL     1      44.604 -17.632   1.577  1.00  0.00    -0.268 OA
HETATM    4  H   UNL     1      41.624 -18.456   2.314  1.00  0.00     0.163 HD
ENDROOT
BRANCH   1   5
HETATM    5  C   UNL     1      41.923 -16.537   1.453  1.00  0.00     0.114 C 
HETATM    6  C   UNL     1      41.394 -16.632   0.021  1.00  0.00     0.035 C 
BRANCH   5   7
HETATM    7  C   UNL     1      40.928 -15.768   2.383  1.00  0.00     0.173 C 
BRANCH   7   8
HETATM    8  O   UNL     1      39.815 -16.561   2.792  1.00  0.00    -0.389 OA
HETATM    9  H   UNL     1      39.391 -16.091   3.543  1.00  0.00     0.210 HD
ENDBRANCH   7   8
BRANCH   7  10
HETATM   10  C   UNL     1      41.595 -15.099   3.573  1.00  0.00    -0.028 A 
HETATM   11  C   UNL     1      42.945 -14.728   3.500  1.00  0.00     0.012 A 
HETATM   12  C   UNL     1      43.572 -14.107   4.583  1.00  0.00     0.037 A 
HETATM   13  C   UNL     1      42.867 -13.840   5.758  1.00  0.00     0.068 A 
HETATM   14  C   UNL     1      41.529 -14.219   5.849  1.00  0.00     0.037 A 
HETATM   15  C   UNL     1      40.900 -14.840   4.763  1.00  0.00     0.012 A 
BRANCH  13  16
HETATM   16  O   UNL     1      43.594 -13.219   6.736  1.00  0.00    -0.356 OA
HETATM   17  C   UNL     1      44.737 -13.916   7.218  1.00  0.00     0.210 C 
ENDBRANCH  13  16
ENDBRANCH   7  10
ENDBRANCH   5   7
ENDBRANCH   1   5
BRANCH   2  18
HETATM   18  C   UNL     1      43.865 -19.650   2.517  1.00  0.00     0.079 A 
HETATM   19  C   UNL     1      44.187 -19.929   3.848  1.00  0.00     0.165 A 
HETATM   20  N   UNL     1      44.545 -21.196   4.235  1.00  0.00    -0.241 NA
HETATM   21  C   UNL     1      44.561 -22.184   3.318  1.00  0.00     0.119 A 
HETATM   22  C   UNL     1      44.240 -21.990   1.991  1.00  0.00     0.020 A 
HETATM   23  C   UNL     1      43.901 -20.704   1.583  1.00  0.00     0.022 A 
BRANCH  19  24
HETATM   24  N   UNL     1      44.118 -18.950   4.900  1.00  0.00    -0.226 N 
HETATM   25  N   UNL     1      42.942 -18.296   5.147  1.00  0.00    -0.179 NA
HETATM   26  C   UNL     1      43.201 -17.493   6.177  1.00  0.00     0.141 A 
HETATM   27  C   UNL     1      44.543 -17.536   6.565  1.00  0.00     0.040 A 
HETATM   28  C   UNL     1      45.120 -18.441   5.707  1.00  0.00     0.122 A 
ENDBRANCH  19  24
ENDBRANCH   2  18
TORSDOF 7
ENDMDL
MODEL 2
REMARK VINA RESULT:      -7.3      0.938      1.542
REMARK  7 active torsions:
REMARK  status: ('A' for Active; 'I' for Inactive)
REMARK    1  A    between atoms: C_2  and  N_3 
REMARK    2  A    between atoms: C_2  and  C_17 
REMARK       I    between atoms: N_3  and  C_4 
REMARK    3  A    between atoms: C_4  and  C_5 
REMARK    4  A    between atoms: C_6  and  N_7 
REMARK    5  A    between atoms: C_17  and  O_18 
REMARK    6  A    between atoms: C_17  and  C_19 
REMARK    7  A    between atoms: C_22  and  O_23 
ROOT
HETATM    1  N   UNL     1      42.233 -17.699   1.779  1.00  0.00    -0.350 N 
HETATM    2  C   UNL     1      43.554 -18.060   1.920  1.00  0.00     0.255 C 
HETATM    3  O   UNL     1      44.491 -17.357   1.566  1.00  0.00    -0.268 OA
HETATM    4  H   UNL     1      41.516 -18.321   2.133  1.00  0.00     0.163 HD
ENDROOT
BRANCH   1   5
HETATM    5  C   UNL     1      41.770 -16.408   1.247  1.00  0.00     0.114 C 
HETATM    6  C   UNL     1      41.399 -16.546  -0.230  1.00  0.00     0.035 C 
BRANCH   5   7
HETATM    7  C   UNL     1      40.636 -15.702   2.062  1.00  0.00     0.173 C 
BRANCH   7   8
HETATM    8  O   UNL     1      39.618 -16.601   2.499  1.00  0.00    -0.389 OA
HETATM    9  H   UNL     1      39.998 -17.123   3.240  1.00  0.00     0.210 HD
ENDBRANCH   7   8
BRANCH   7  10
HETATM   10  C   UNL     1      41.147 -14.848   3.208  1.00  0.00    -0.028 A 
HETATM   11  C   UNL     1      40.295 -14.524   4.273  1.00  0.00     0.012 A 
HETATM   12  C   UNL     1      40.751 -13.744   5.339  1.00  0.00     0.037 A 
HETATM   13  C   UNL     1      42.065 -13.274   5.368  1.00  0.00     0.068 A 
HETATM   14  C   UNL     1      42.917 -13.575   4.308  1.00  0.00     0.037 A 
HETATM   15  C   UNL     1      42.462 -14.358   3.240  1.00  0.00     0.012 A 
BRANCH  13  16
HETATM   16  O   UNL     1      42.386 -12.533   6.471  1.00  0.00    -0.356 OA
HETATM   17  C   UNL     1      41.554 -11.412   6.749  1.00  0.00     0.210 C 
ENDBRANCH  13  16
ENDBRANCH   7  10
ENDBRANCH   5   7
ENDBRANCH   1   5
BRANCH   2  18
HETATM   18  C   UNL     1      43.798 -19.391   2.505  1.00  0.00     0.079 A 
HETATM   19  C   UNL     1      44.188 -19.614   3.828  1.00  0.00     0.165 A 
HETATM   20  N   UNL     1      44.572 -20.862   4.250  1.00  0.00    -0.241 NA
HETATM   21  C   UNL     1      44.547 -21.887   3.374  1.00  0.00     0.119 A 
HETATM   22  C   UNL     1      44.160 -21.749   2.058  1.00  0.00     0.020 A 
HETATM   23  C   UNL     1      43.794 -20.483   1.615  1.00  0.00     0.022 A 
BRANCH  19  24
HETATM   24  N   UNL     1      44.165 -18.592   4.842  1.00  0.00    -0.226 N 
HETATM   25  N   UNL     1      45.165 -18.532   5.773  1.00  0.00    -0.179 NA
HETATM   26  C   UNL     1      44.867 -17.482   6.535  1.00  0.00     0.141 A 
HETATM   27  C   UNL     1      43.648 -16.894   6.185  1.00  0.00     0.040 A 
HETATM   28  C   UNL     1      43.195 -17.648   5.129  1.00  0.00     0.122 A 
ENDBRANCH  19  24
ENDBRANCH   2  18
TORSDOF 7
ENDMDL
MODEL 3
REMARK VINA RESULT:      -7.1      2.457      6.447
REMARK  7 active torsions:
REMARK  status: ('A' for Active; 'I' for Inactive)
REMARK    1  A    between atoms: C_2  and  N_3 
REMARK    2  A    between atoms: C_2  and  C_17 
REMARK       I    between atoms: N_3  and  C_4 
REMARK    3  A    between atoms: C_4  and  C_5 
REMARK    4  A    between atoms: C_6  and  N_7 
REMARK    5  A    between atoms: C_17  and  O_18 
REMARK    6  A    between atoms: C_17  and  C_19 
REMARK    7  A    between atoms: C_22  and  O_23 
ROOT
HETATM    1  N   UNL     1      42.469 -16.437   3.284  1.00  0.00    -0.350 N 
HETATM    2  C   UNL     1      42.128 -16.541   4.614  1.00  0.00     0.255 C 
HETATM    3  O   UNL     1      41.320 -17.352   5.046  1.00  0.00    -0.268 OA
HETATM    4  H   UNL     1      43.177 -15.765   3.013  1.00  0.00     0.163 HD
ENDROOT
BRANCH   1   5
HETATM    5  C   UNL     1      41.962 -17.317   2.219  1.00  0.00     0.114 C 
HETATM    6  C   UNL     1      40.995 -16.551   1.315  1.00  0.00     0.035 C 
BRANCH   5   7
HETATM    7  C   UNL     1      43.049 -18.075   1.387  1.00  0.00     0.173 C 
BRANCH   7   8
HETATM    8  O   UNL     1      44.128 -17.236   0.978  1.00  0.00    -0.389 OA
HETATM    9  H   UNL     1      43.745 -16.543   0.397  1.00  0.00     0.210 HD
ENDBRANCH   7   8
BRANCH   7  10
HETATM   10  C   UNL     1      43.557 -19.341   2.053  1.00  0.00    -0.028 A 
HETATM   11  C   UNL     1      44.232 -19.264   3.279  1.00  0.00     0.012 A 
HETATM   12  C   UNL     1      44.700 -20.421   3.909  1.00  0.00     0.037 A 
HETATM   13  C   UNL     1      44.503 -21.676   3.331  1.00  0.00     0.068 A 
HETATM   14  C   UNL     1      43.848 -21.765   2.105  1.00  0.00     0.037 A 
HETATM   15  C   UNL     1      43.376 -20.607   1.475  1.00  0.00     0.012 A 
BRANCH  13  16
HETATM   16  O   UNL     1      45.000 -22.726   4.054  1.00  0.00    -0.356 OA
HETATM   17  C   UNL     1      45.086 -22.543   5.463  1.00  0.00     0.210 C 
ENDBRANCH  13  16
ENDBRANCH   7  10
ENDBRANCH   5   7
ENDBRANCH   1   5
BRANCH   2  18
HETATM   18  C   UNL     1      42.777 -15.576   5.521  1.00  0.00     0.079 A 
HETATM   19  C   UNL     1      42.521 -14.203   5.529  1.00  0.00     0.165 A 
HETATM   20  N   UNL     1      43.292 -13.346   6.274  1.00  0.00    -0.241 NA
HETATM   21  C   UNL     1      44.293 -13.848   7.024  1.00  0.00     0.119 A 
HETATM   22  C   UNL     1      44.596 -15.192   7.081  1.00  0.00     0.020 A 
HETATM   23  C   UNL     1      43.837 -16.065   6.309  1.00  0.00     0.022 A 
BRANCH  19  24
HETATM   24  N   UNL     1      41.424 -13.599   4.820  1.00  0.00    -0.226 N 
HETATM   25  N   UNL     1      41.512 -13.397   3.469  1.00  0.00    -0.179 NA
HETATM   26  C   UNL     1      40.347 -12.855   3.122  1.00  0.00     0.141 A 
HETATM   27  C   UNL     1      39.519 -12.614   4.222  1.00  0.00     0.040 A 
HETATM   28  C   UNL     1      40.247 -13.055   5.302  1.00  0.00     0.122 A 
ENDBRANCH  19  24
ENDBRANCH   2  18
TORSDOF 7
ENDMDL
MODEL 4
REMARK VINA RESULT:      -7.1      2.069      6.034
REMARK  7 active torsions:
REMARK  status: ('A' for Active; 'I' for Inactive)
REMARK    1  A    between atoms: C_2  and  N_3 
REMARK    2  A    between atoms: C_2  and  C_17 
REMARK       I    between atoms: N_3  and  C_4 
REMARK    3  A    between atoms: C_4  and  C_5 
REMARK    4  A    between atoms: C_6  and  N_7 
REMARK    5  A    between atoms: C_17  and  O_18 
REMARK    6  A    between atoms: C_17  and  C_19 
REMARK    7  A    between atoms: C_22  and  O_23 
ROOT
HETATM    1  N   UNL     1      42.387 -16.304   2.682  1.00  0.00    -0.350 N 
HETATM    2  C   UNL     1      41.916 -16.260   3.974  1.00  0.00     0.255 C 
HETATM    3  O   UNL     1      41.185 -17.114   4.460  1.00  0.00    -0.268 OA
HETATM    4  H   UNL     1      43.020 -15.578   2.368  1.00  0.00     0.163 HD
ENDROOT
BRANCH   1   5
HETATM    5  C   UNL     1      42.133 -17.401   1.735  1.00  0.00     0.114 C 
HETATM    6  C   UNL     1      41.204 -16.929   0.615  1.00  0.00     0.035 C 
BRANCH   5   7
HETATM    7  C   UNL     1      43.401 -18.119   1.167  1.00  0.00     0.173 C 
BRANCH   7   8
HETATM    8  O   UNL     1      44.528 -17.252   1.044  1.00  0.00    -0.389 OA
HETATM    9  H   UNL     1      45.100 -17.417   1.825  1.00  0.00     0.210 HD
ENDBRANCH   7   8
BRANCH   7  10
HETATM   10  C   UNL     1      43.765 -19.395   1.905  1.00  0.00    -0.028 A 
HETATM   11  C   UNL     1      44.254 -19.328   3.217  1.00  0.00     0.012 A 
HETATM   12  C   UNL     1      44.588 -20.493   3.913  1.00  0.00     0.037 A 
HETATM   13  C   UNL     1      44.439 -21.747   3.317  1.00  0.00     0.068 A 
HETATM   14  C   UNL     1      43.969 -21.825   2.008  1.00  0.00     0.037 A 
HETATM   15  C   UNL     1      43.632 -20.659   1.311  1.00  0.00     0.012 A 
BRANCH  13  16
HETATM   16  O   UNL     1      44.790 -22.805   4.109  1.00  0.00    -0.356 OA
HETATM   17  C   UNL     1      45.180 -22.499   5.443  1.00  0.00     0.210 C 
ENDBRANCH  13  16
ENDBRANCH   7  10
ENDBRANCH   5   7
ENDBRANCH   1   5
BRANCH   2  18
HETATM   18  C   UNL     1      42.316 -15.081   4.765  1.00  0.00     0.079 A 
HETATM   19  C   UNL     1      42.942 -15.142   6.013  1.00  0.00     0.165 A 
HETATM   20  N   UNL     1      43.118 -14.010   6.769  1.00  0.00    -0.241 NA
HETATM   21  C   UNL     1      42.700 -12.825   6.283  1.00  0.00     0.119 A 
HETATM   22  C   UNL     1      42.089 -12.683   5.054  1.00  0.00     0.020 A 
HETATM   23  C   UNL     1      41.882 -13.827   4.293  1.00  0.00     0.022 A 
BRANCH  19  24
HETATM   24  N   UNL     1      43.487 -16.353   6.566  1.00  0.00    -0.226 N 
HETATM   25  N   UNL     1      42.819 -17.011   7.561  1.00  0.00    -0.179 NA
HETATM   26  C   UNL     1      43.560 -18.084   7.829  1.00  0.00     0.141 A 
HETATM   27  C   UNL     1      44.749 -18.110   7.093  1.00  0.00     0.040 A 
HETATM   28  C   UNL     1      44.702 -16.971   6.326  1.00  0.00     0.122 A 
ENDBRANCH  19  24
ENDBRANCH   2  18
TORSDOF 7
ENDMDL
MODEL 5
REMARK VINA RESULT:      -7.0      1.811      2.063
REMARK  7 active torsions:
REMARK  status: ('A' for Active; 'I' for Inactive)
REMARK    1  A    between atoms: C_2  and  N_3 
REMARK    2  A    between atoms: C_2  and  C_17 
REMARK       I    between atoms: N_3  and  C_4 
REMARK    3  A    between atoms: C_4  and  C_5 
REMARK    4  A    between atoms: C_6  and  N_7 
REMARK    5  A    between atoms: C_17  and  O_18 
REMARK    6  A    between atoms: C_17  and  C_19 
REMARK    7  A    between atoms: C_22  and  O_23 
ROOT
HETATM    1  N   UNL     1      42.202 -17.874   2.676  1.00  0.00    -0.350 N 
HETATM    2  C   UNL     1      43.471 -18.308   2.366  1.00  0.00     0.255 C 
HETATM    3  O   UNL     1      44.295 -17.626   1.771  1.00  0.00    -0.268 OA
HETATM    4  H   UNL     1      41.592 -18.486   3.205  1.00  0.00     0.163 HD
ENDROOT
BRANCH   1   5
HETATM    5  C   UNL     1      41.686 -16.526   2.394  1.00  0.00     0.114 C 
HETATM    6  C   UNL     1      41.140 -16.455   0.967  1.00  0.00     0.035 C 
BRANCH   5   7
HETATM    7  C   UNL     1      40.662 -15.957   3.431  1.00  0.00     0.173 C 
BRANCH   7   8
HETATM    8  O   UNL     1      40.634 -16.694   4.652  1.00  0.00    -0.389 OA
HETATM    9  H   UNL     1      41.567 -16.807   4.938  1.00  0.00     0.210 HD
ENDBRANCH   7   8
BRANCH   7  10
HETATM   10  C   UNL     1      40.814 -14.468   3.688  1.00  0.00    -0.028 A 
HETATM   11  C   UNL     1      41.980 -13.979   4.295  1.00  0.00     0.012 A 
HETATM   12  C   UNL     1      42.138 -12.612   4.534  1.00  0.00     0.037 A 
HETATM   13  C   UNL     1      41.141 -11.704   4.171  1.00  0.00     0.068 A 
HETATM   14  C   UNL     1      39.972 -12.180   3.582  1.00  0.00     0.037 A 
HETATM   15  C   UNL     1      39.813 -13.550   3.341  1.00  0.00     0.012 A 
BRANCH  13  16
HETATM   16  O   UNL     1      41.426 -10.396   4.449  1.00  0.00    -0.356 OA
HETATM   17  C   UNL     1      40.529  -9.424   3.922  1.00  0.00     0.210 C 
ENDBRANCH  13  16
ENDBRANCH   7  10
ENDBRANCH   5   7
ENDBRANCH   1   5
BRANCH   2  18
HETATM   18  C   UNL     1      43.794 -19.691   2.766  1.00  0.00     0.079 A 
HETATM   19  C   UNL     1      44.225 -20.064   4.042  1.00  0.00     0.165 A 
HETATM   20  N   UNL     1      44.679 -21.336   4.288  1.00  0.00    -0.241 NA
HETATM   21  C   UNL     1      44.684 -22.236   3.285  1.00  0.00     0.119 A 
HETATM   22  C   UNL     1      44.259 -21.948   2.005  1.00  0.00     0.020 A 
HETATM   23  C   UNL     1      43.822 -20.655   1.740  1.00  0.00     0.022 A 
BRANCH  19  24
HETATM   24  N   UNL     1      44.176 -19.187   5.182  1.00  0.00    -0.226 N 
HETATM   25  N   UNL     1      42.968 -18.771   5.672  1.00  0.00    -0.179 NA
HETATM   26  C   UNL     1      43.263 -18.006   6.721  1.00  0.00     0.141 A 
HETATM   27  C   UNL     1      44.641 -17.836   6.888  1.00  0.00     0.040 A 
HETATM   28  C   UNL     1      45.203 -18.563   5.866  1.00  0.00     0.122 A 
ENDBRANCH  19  24
ENDBRANCH   2  18
TORSDOF 7
ENDMDL
MODEL 6
REMARK VINA RESULT:      -7.0      2.436      6.917
REMARK  7 active torsions:
REMARK  status: ('A' for Active; 'I' for Inactive)
REMARK    1  A    between atoms: C_2  and  N_3 
REMARK    2  A    between atoms: C_2  and  C_17 
REMARK       I    between atoms: N_3  and  C_4 
REMARK    3  A    between atoms: C_4  and  C_5 
REMARK    4  A    between atoms: C_6  and  N_7 
REMARK    5  A    between atoms: C_17  and  O_18 
REMARK    6  A    between atoms: C_17  and  C_19 
REMARK    7  A    between atoms: C_22  and  O_23 
ROOT
HETATM    1  N   UNL     1      42.554 -14.867   5.361  1.00  0.00    -0.350 N 
HETATM    2  C   UNL     1      42.557 -14.125   4.202  1.00  0.00     0.255 C 
HETATM    3  O   UNL     1      43.568 -13.873   3.560  1.00  0.00    -0.268 OA
HETATM    4  H   UNL     1      41.668 -15.063   5.813  1.00  0.00     0.163 HD
ENDROOT
BRANCH   1   5
HETATM    5  C   UNL     1      43.741 -15.506   5.950  1.00  0.00     0.114 C 
HETATM    6  C   UNL     1      44.341 -14.612   7.036  1.00  0.00     0.035 C 
BRANCH   5   7
HETATM    7  C   UNL     1      43.545 -16.973   6.455  1.00  0.00     0.173 C 
BRANCH   7   8
HETATM    8  O   UNL     1      42.261 -17.200   7.034  1.00  0.00    -0.389 OA
HETATM    9  H   UNL     1      42.354 -17.963   7.645  1.00  0.00     0.210 HD
ENDBRANCH   7   8
BRANCH   7  10
HETATM   10  C   UNL     1      43.875 -18.029   5.415  1.00  0.00    -0.028 A 
HETATM   11  C   UNL     1      44.543 -19.201   5.795  1.00  0.00     0.012 A 
HETATM   12  C   UNL     1      44.849 -20.185   4.851  1.00  0.00     0.037 A 
HETATM   13  C   UNL     1      44.493 -20.023   3.511  1.00  0.00     0.068 A 
HETATM   14  C   UNL     1      43.843 -18.855   3.118  1.00  0.00     0.037 A 
HETATM   15  C   UNL     1      43.534 -17.870   4.063  1.00  0.00     0.012 A 
BRANCH  13  16
HETATM   16  O   UNL     1      44.840 -21.063   2.694  1.00  0.00    -0.356 OA
HETATM   17  C   UNL     1      43.835 -21.535   1.803  1.00  0.00     0.210 C 
ENDBRANCH  13  16
ENDBRANCH   7  10
ENDBRANCH   5   7
ENDBRANCH   1   5
BRANCH   2  18
HETATM   18  C   UNL     1      41.248 -13.599   3.771  1.00  0.00     0.079 A 
HETATM   19  C   UNL     1      40.546 -14.048   2.650  1.00  0.00     0.165 A 
HETATM   20  N   UNL     1      39.426 -13.389   2.209  1.00  0.00    -0.241 NA
HETATM   21  C   UNL     1      38.990 -12.309   2.887  1.00  0.00     0.119 A 
HETATM   22  C   UNL     1      39.619 -11.816   4.011  1.00  0.00     0.020 A 
HETATM   23  C   UNL     1      40.770 -12.461   4.450  1.00  0.00     0.022 A 
BRANCH  19  24
HETATM   24  N   UNL     1      40.899 -15.237   1.920  1.00  0.00    -0.226 N 
HETATM   25  N   UNL     1      40.425 -16.454   2.327  1.00  0.00    -0.179 NA
HETATM   26  C   UNL     1      40.905 -17.327   1.443  1.00  0.00     0.141 A 
HETATM   27  C   UNL     1      41.755 -16.730   0.508  1.00  0.00     0.040 A 
HETATM   28  C   UNL     1      41.772 -15.401   0.859  1.00  0.00     0.122 A 
ENDBRANCH  19  24
ENDBRANCH   2  18
TORSDOF 7
ENDMDL
MODEL 7
REMARK VINA RESULT:      -6.9      2.294      3.422
REMARK  7 active torsions:
REMARK  status: ('A' for Active; 'I' for Inactive)
REMARK    1  A    between atoms: C_2  and  N_3 
REMARK    2  A    between atoms: C_2  and  C_17 
REMARK       I    between atoms: N_3  and  C_4 
REMARK    3  A    between atoms: C_4  and  C_5 
REMARK    4  A    between atoms: C_6  and  N_7 
REMARK    5  A    between atoms: C_17  and  O_18 
REMARK    6  A    between atoms: C_17  and  C_19 
REMARK    7  A    between atoms: C_22  and  O_23 
ROOT
HETATM    1  N   UNL     1      42.143 -17.995   2.230  1.00  0.00    -0.350 N 
HETATM    2  C   UNL     1      43.473 -18.350   2.188  1.00  0.00     0.255 C 
HETATM    3  O   UNL     1      44.353 -17.629   1.738  1.00  0.00    -0.268 OA
HETATM    4  H   UNL     1      41.481 -18.635   2.655  1.00  0.00     0.163 HD
ENDROOT
BRANCH   1   5
HETATM    5  C   UNL     1      41.610 -16.693   1.804  1.00  0.00     0.114 C 
HETATM    6  C   UNL     1      41.409 -16.673   0.288  1.00  0.00     0.035 C 
BRANCH   5   7
HETATM    7  C   UNL     1      40.333 -16.199   2.560  1.00  0.00     0.173 C 
BRANCH   7   8
HETATM    8  O   UNL     1      40.478 -16.220   3.979  1.00  0.00    -0.389 OA
HETATM    9  H   UNL     1      41.177 -16.880   4.184  1.00  0.00     0.210 HD
ENDBRANCH   7   8
BRANCH   7  10
HETATM   10  C   UNL     1      39.818 -14.854   2.078  1.00  0.00    -0.028 A 
HETATM   11  C   UNL     1      40.621 -13.712   2.202  1.00  0.00     0.012 A 
HETATM   12  C   UNL     1      40.165 -12.468   1.758  1.00  0.00     0.037 A 
HETATM   13  C   UNL     1      38.901 -12.337   1.180  1.00  0.00     0.068 A 
HETATM   14  C   UNL     1      38.087 -13.461   1.066  1.00  0.00     0.037 A 
HETATM   15  C   UNL     1      38.544 -14.709   1.508  1.00  0.00     0.012 A 
BRANCH  13  16
HETATM   16  O   UNL     1      38.581 -11.069   0.779  1.00  0.00    -0.356 OA
HETATM   17  C   UNL     1      38.549 -10.836  -0.625  1.00  0.00     0.210 C 
ENDBRANCH  13  16
ENDBRANCH   7  10
ENDBRANCH   5   7
ENDBRANCH   1   5
BRANCH   2  18
HETATM   18  C   UNL     1      43.796 -19.697   2.694  1.00  0.00     0.079 A 
HETATM   19  C   UNL     1      44.202 -19.973   4.003  1.00  0.00     0.165 A 
HETATM   20  N   UNL     1      44.660 -21.219   4.351  1.00  0.00    -0.241 NA
HETATM   21  C   UNL     1      44.693 -22.190   3.416  1.00  0.00     0.119 A 
HETATM   22  C   UNL     1      44.295 -21.999   2.110  1.00  0.00     0.020 A 
HETATM   23  C   UNL     1      43.854 -20.732   1.742  1.00  0.00     0.022 A 
BRANCH  19  24
HETATM   24  N   UNL     1      44.121 -19.016   5.074  1.00  0.00    -0.226 N 
HETATM   25  N   UNL     1      42.915 -18.466   5.409  1.00  0.00    -0.179 NA
HETATM   26  C   UNL     1      43.174 -17.656   6.434  1.00  0.00     0.141 A 
HETATM   27  C   UNL     1      44.538 -17.590   6.732  1.00  0.00     0.040 A 
HETATM   28  C   UNL     1      45.129 -18.433   5.822  1.00  0.00     0.122 A 
ENDBRANCH  19  24
ENDBRANCH   2  18
TORSDOF 7
ENDMDL
MODEL 8
REMARK VINA RESULT:      -6.9      2.146      4.636
REMARK  7 active torsions:
REMARK  status: ('A' for Active; 'I' for Inactive)
REMARK    1  A    between atoms: C_2  and  N_3 
REMARK    2  A    between atoms: C_2  and  C_17 
REMARK       I    between atoms: N_3  and  C_4 
REMARK    3  A    between atoms: C_4  and  C_5 
REMARK    4  A    between atoms: C_6  and  N_7 
REMARK    5  A    between atoms: C_17  and  O_18 
REMARK    6  A    between atoms: C_17  and  C_19 
REMARK    7  A    between atoms: C_22  and  O_23 
ROOT
HETATM    1  N   UNL     1      43.576 -16.349   4.642  1.00  0.00    -0.350 N 
HETATM    2  C   UNL     1      42.999 -17.588   4.809  1.00  0.00     0.255 C 
HETATM    3  O   UNL     1      42.093 -17.813   5.600  1.00  0.00    -0.268 OA
HETATM    4  H   UNL     1      44.296 -16.237   3.938  1.00  0.00     0.163 HD
ENDROOT
BRANCH   1   5
HETATM    5  C   UNL     1      43.149 -15.126   5.338  1.00  0.00     0.114 C 
HETATM    6  C   UNL     1      43.962 -14.933   6.619  1.00  0.00     0.035 C 
BRANCH   5   7
HETATM    7  C   UNL     1      43.121 -13.824   4.472  1.00  0.00     0.173 C 
BRANCH   7   8
HETATM    8  O   UNL     1      44.329 -13.610   3.743  1.00  0.00    -0.389 OA
HETATM    9  H   UNL     1      44.858 -14.434   3.821  1.00  0.00     0.210 HD
ENDBRANCH   7   8
BRANCH   7  10
HETATM   10  C   UNL     1      41.905 -13.715   3.568  1.00  0.00    -0.028 A 
HETATM   11  C   UNL     1      40.745 -14.443   3.867  1.00  0.00     0.012 A 
HETATM   12  C   UNL     1      39.615 -14.350   3.049  1.00  0.00     0.037 A 
HETATM   13  C   UNL     1      39.618 -13.529   1.921  1.00  0.00     0.068 A 
HETATM   14  C   UNL     1      40.771 -12.813   1.604  1.00  0.00     0.037 A 
HETATM   15  C   UNL     1      41.902 -12.904   2.424  1.00  0.00     0.012 A 
BRANCH  13  16
HETATM   16  O   UNL     1      38.447 -13.519   1.214  1.00  0.00    -0.356 OA
HETATM   17  C   UNL     1      37.676 -12.324   1.277  1.00  0.00     0.210 C 
ENDBRANCH  13  16
ENDBRANCH   7  10
ENDBRANCH   5   7
ENDBRANCH   1   5
BRANCH   2  18
HETATM   18  C   UNL     1      43.563 -18.676   3.989  1.00  0.00     0.079 A 
HETATM   19  C   UNL     1      43.278 -18.875   2.635  1.00  0.00     0.165 A 
HETATM   20  N   UNL     1      43.694 -20.010   1.986  1.00  0.00    -0.241 NA
HETATM   21  C   UNL     1      44.407 -20.930   2.666  1.00  0.00     0.119 A 
HETATM   22  C   UNL     1      44.741 -20.798   3.997  1.00  0.00     0.020 A 
HETATM   23  C   UNL     1      44.301 -19.663   4.670  1.00  0.00     0.022 A 
BRANCH  19  24
HETATM   24  N   UNL     1      42.593 -17.906   1.821  1.00  0.00    -0.226 N 
HETATM   25  N   UNL     1      43.251 -16.786   1.393  1.00  0.00    -0.179 NA
HETATM   26  C   UNL     1      42.364 -16.121   0.656  1.00  0.00     0.141 A 
HETATM   27  C   UNL     1      41.106 -16.731   0.654  1.00  0.00     0.040 A 
HETATM   28  C   UNL     1      41.263 -17.846   1.442  1.00  0.00     0.122 A 
ENDBRANCH  19  24
ENDBRANCH   2  18
TORSDOF 7
ENDMDL
MODEL 9
REMARK VINA RESULT:      -6.8      1.859      3.977
REMARK  7 active torsions:
REMARK  status: ('A' for Active; 'I' for Inactive)
REMARK    1  A    between atoms: C_2  and  N_3 
REMARK    2  A    between atoms: C_2  and  C_17 
REMARK       I    between atoms: N_3  and  C_4 
REMARK    3  A    between atoms: C_4  and  C_5 
REMARK    4  A    between atoms: C_6  and  N_7 
REMARK    5  A    between atoms: C_17  and  O_18 
REMARK    6  A    between atoms: C_17  and  C_19 
REMARK    7  A    between atoms: C_22  and  O_23 
ROOT
HETATM    1  N   UNL     1      43.091 -18.272   5.772  1.00  0.00    -0.350 N 
HETATM    2  C   UNL     1      44.304 -18.718   5.297  1.00  0.00     0.255 C 
HETATM    3  O   UNL     1      45.379 -18.433   5.808  1.00  0.00    -0.268 OA
HETATM    4  H   UNL     1      42.243 -18.586   5.315  1.00  0.00     0.163 HD
ENDROOT
BRANCH   1   5
HETATM    5  C   UNL     1      42.916 -17.451   6.980  1.00  0.00     0.114 C 
HETATM    6  C   UNL     1      43.639 -18.092   8.166  1.00  0.00     0.035 C 
BRANCH   5   7
HETATM    7  C   UNL     1      43.281 -15.937   6.834  1.00  0.00     0.173 C 
BRANCH   7   8
HETATM    8  O   UNL     1      44.594 -15.725   6.319  1.00  0.00    -0.389 OA
HETATM    9  H   UNL     1      45.062 -15.148   6.962  1.00  0.00     0.210 HD
ENDBRANCH   7   8
BRANCH   7  10
HETATM   10  C   UNL     1      42.249 -15.130   6.065  1.00  0.00    -0.028 A 
HETATM   11  C   UNL     1      42.641 -13.980   5.366  1.00  0.00     0.012 A 
HETATM   12  C   UNL     1      41.706 -13.230   4.648  1.00  0.00     0.037 A 
HETATM   13  C   UNL     1      40.364 -13.611   4.610  1.00  0.00     0.068 A 
HETATM   14  C   UNL     1      39.959 -14.743   5.314  1.00  0.00     0.037 A 
HETATM   15  C   UNL     1      40.896 -15.497   6.032  1.00  0.00     0.012 A 
BRANCH  13  16
HETATM   16  O   UNL     1      39.556 -12.798   3.864  1.00  0.00    -0.356 OA
HETATM   17  C   UNL     1      38.967 -11.693   4.540  1.00  0.00     0.210 C 
ENDBRANCH  13  16
ENDBRANCH   7  10
ENDBRANCH   5   7
ENDBRANCH   1   5
BRANCH   2  18
HETATM   18  C   UNL     1      44.252 -19.557   4.085  1.00  0.00     0.079 A 
HETATM   19  C   UNL     1      43.615 -19.189   2.896  1.00  0.00     0.165 A 
HETATM   20  N   UNL     1      43.452 -20.092   1.875  1.00  0.00    -0.241 NA
HETATM   21  C   UNL     1      43.937 -21.341   2.021  1.00  0.00     0.119 A 
HETATM   22  C   UNL     1      44.591 -21.773   3.156  1.00  0.00     0.020 A 
HETATM   23  C   UNL     1      44.737 -20.873   4.206  1.00  0.00     0.022 A 
BRANCH  19  24
HETATM   24  N   UNL     1      43.142 -17.856   2.632  1.00  0.00    -0.226 N 
HETATM   25  N   UNL     1      41.812 -17.565   2.764  1.00  0.00    -0.179 NA
HETATM   26  C   UNL     1      41.709 -16.269   2.478  1.00  0.00     0.141 A 
HETATM   27  C   UNL     1      42.927 -15.711   2.078  1.00  0.00     0.040 A 
HETATM   28  C   UNL     1      43.819 -16.754   2.140  1.00  0.00     0.122 A 
ENDBRANCH  19  24
ENDBRANCH   2  18
TORSDOF 7
ENDMDL
MODEL 10
REMARK VINA RESULT:      -6.7      3.614      7.651
REMARK  7 active torsions:
REMARK  status: ('A' for Active; 'I' for Inactive)
REMARK    1  A    between atoms: C_2  and  N_3 
REMARK    2  A    between atoms: C_2  and  C_17 
REMARK       I    between atoms: N_3  and  C_4 
REMARK    3  A    between atoms: C_4  and  C_5 
REMARK    4  A    between atoms: C_6  and  N_7 
REMARK    5  A    between atoms: C_17  and  O_18 
REMARK    6  A    between atoms: C_17  and  C_19 
REMARK    7  A    between atoms: C_22  and  O_23 
ROOT
HETATM    1  N   UNL     1      41.392 -14.449   2.145  1.00  0.00    -0.350 N 
HETATM    2  C   UNL     1      40.896 -14.863   0.929  1.00  0.00     0.255 C 
HETATM    3  O   UNL     1      41.374 -15.783   0.279  1.00  0.00    -0.268 OA
HETATM    4  H   UNL     1      40.915 -13.704   2.639  1.00  0.00     0.163 HD
ENDROOT
BRANCH   1   5
HETATM    5  C   UNL     1      42.513 -15.087   2.852  1.00  0.00     0.114 C 
HETATM    6  C   UNL     1      43.364 -14.030   3.557  1.00  0.00     0.035 C 
BRANCH   5   7
HETATM    7  C   UNL     1      42.132 -16.257   3.818  1.00  0.00     0.173 C 
BRANCH   7   8
HETATM    8  O   UNL     1      40.724 -16.463   3.921  1.00  0.00    -0.389 OA
HETATM    9  H   UNL     1      40.495 -16.398   4.874  1.00  0.00     0.210 HD
ENDBRANCH   7   8
BRANCH   7  10
HETATM   10  C   UNL     1      42.859 -17.557   3.523  1.00  0.00    -0.028 A 
HETATM   11  C   UNL     1      43.483 -18.261   4.562  1.00  0.00     0.012 A 
HETATM   12  C   UNL     1      44.152 -19.461   4.308  1.00  0.00     0.037 A 
HETATM   13  C   UNL     1      44.209 -19.986   3.016  1.00  0.00     0.068 A 
HETATM   14  C   UNL     1      43.607 -19.287   1.972  1.00  0.00     0.037 A 
HETATM   15  C   UNL     1      42.935 -18.085   2.225  1.00  0.00     0.012 A 
BRANCH  13  16
HETATM   16  O   UNL     1      44.883 -21.171   2.905  1.00  0.00    -0.356 OA
HETATM   17  C   UNL     1      44.391 -22.095   1.942  1.00  0.00     0.210 C 
ENDBRANCH  13  16
ENDBRANCH   7  10
ENDBRANCH   5   7
ENDBRANCH   1   5
BRANCH   2  18
HETATM   18  C   UNL     1      39.744 -14.101   0.411  1.00  0.00     0.079 A 
HETATM   19  C   UNL     1      39.835 -13.077  -0.536  1.00  0.00     0.165 A 
HETATM   20  N   UNL     1      38.749 -12.294  -0.834  1.00  0.00    -0.241 NA
HETATM   21  C   UNL     1      37.575 -12.538  -0.217  1.00  0.00     0.119 A 
HETATM   22  C   UNL     1      37.403 -13.540   0.715  1.00  0.00     0.020 A 
HETATM   23  C   UNL     1      38.505 -14.321   1.043  1.00  0.00     0.022 A 
BRANCH  19  24
HETATM   24  N   UNL     1      41.028 -12.806  -1.294  1.00  0.00    -0.226 N 
HETATM   25  N   UNL     1      41.866 -11.796  -0.910  1.00  0.00    -0.179 NA
HETATM   26  C   UNL     1      42.867 -11.821  -1.787  1.00  0.00     0.141 A 
HETATM   27  C   UNL     1      42.671 -12.769  -2.796  1.00  0.00     0.040 A 
HETATM   28  C   UNL     1      41.467 -13.356  -2.486  1.00  0.00     0.122 A 
ENDBRANCH  19  24
ENDBRANCH   2  18
TORSDOF 7
ENDMDL
