MODEL 1
REMARK VINA RESULT:      -8.9      0.000      0.000
REMARK  8 active torsions:
REMARK  status: ('A' for Active; 'I' for Inactive)
REMARK    1  A    between atoms: C_2  and  C_3 
REMARK    2  A    between atoms: C_3  and  C_4 
REMARK    3  A    between atoms: C_7  and  N_8 
REMARK       I    between atoms: N_8  and  C_9 
REMARK    4  A    between atoms: C_9  and  C_10 
REMARK    5  A    between atoms: C_13  and  N_14 
REMARK       I    between atoms: N_14  and  C_15 
REMARK    6  A    between atoms: C_15  and  C_16 
REMARK    7  A    between atoms: C_16  and  C_17 
REMARK    8  A    between atoms: C_19  and  N_20 
ROOT
HETATM    1  C   UNL     1      40.683 -13.577   4.309  1.00  0.00     0.032 A 
HETATM    2  C   UNL     1      39.628 -12.779   3.856  1.00  0.00     0.019 A 
HETATM    3  C   UNL     1      39.343 -11.556   4.480  1.00  0.00     0.030 A 
HETATM    4  C   UNL     1      40.116 -11.098   5.551  1.00  0.00     0.034 A 
HETATM    5  C   UNL     1      41.191 -11.883   5.983  1.00  0.00     0.030 A 
HETATM    6  C   UNL     1      41.471 -13.111   5.371  1.00  0.00     0.019 A 
ENDROOT
BRANCH   4   7
HETATM    7  N   UNL     1      39.894  -9.875   6.221  1.00  0.00    -0.327 N 
HETATM    8  C   UNL     1      39.212  -9.688   7.411  1.00  0.00     0.223 C 
HETATM    9  O   UNL     1      38.686 -10.567   8.086  1.00  0.00    -0.273 OA
HETATM   10  H   UNL     1      40.318  -9.058   5.799  1.00  0.00     0.169 HD
BRANCH   8  11
HETATM   11  C   UNL     1      39.117  -8.223   7.806  1.00  0.00     0.128 C 
BRANCH  11  12
HETATM   12  C   UNL     1      39.944  -7.943   9.054  1.00  0.00     0.158 C 
HETATM   13  S   UNL     1      39.097  -8.474  10.575  1.00  0.00    -0.077 SA
HETATM   14  C   UNL     1      40.631  -9.032  11.229  1.00  0.00     0.168 C 
HETATM   15  N   UNL     1      41.605  -9.101  10.383  1.00  0.00    -0.189 NA
HETATM   16  C   UNL     1      41.243  -8.725   9.108  1.00  0.00     0.260 C 
HETATM   17  O   UNL     1      41.927  -8.948   8.117  1.00  0.00    -0.270 OA
BRANCH  14  18
HETATM   18  N   UNL     1      40.728  -9.297  12.576  1.00  0.00    -0.360 N 
HETATM   19  C   UNL     1      41.115 -10.603  13.116  1.00  0.00     0.125 C 
HETATM   20  C   UNL     1      42.590 -10.571  13.526  1.00  0.00     0.020 C 
HETATM   21  C   UNL     1      42.870  -9.431  14.505  1.00  0.00     0.003 C 
HETATM   22  C   UNL     1      42.377  -8.097  13.944  1.00  0.00     0.020 C 
HETATM   23  C   UNL     1      40.913  -8.193  13.523  1.00  0.00     0.125 C 
ENDBRANCH  14  18
ENDBRANCH  11  12
ENDBRANCH   8  11
ENDBRANCH   4   7
BRANCH   1  24
HETATM   24  C   UNL     1      41.037 -14.894   3.690  1.00  0.00     0.256 C 
HETATM   25  N   UNL     1      42.264 -15.422   4.054  1.00  0.00    -0.323 N 
HETATM   26  H   UNL     1      42.857 -14.861   4.647  1.00  0.00     0.169 HD
HETATM   27  O   UNL     1      40.239 -15.387   2.901  1.00  0.00    -0.267 OA
BRANCH  25  28
HETATM   28  C   UNL     1      42.834 -16.643   3.628  1.00  0.00     0.035 A 
HETATM   29  C   UNL     1      43.463 -16.830   2.399  1.00  0.00     0.030 A 
HETATM   30  C   UNL     1      44.017 -18.072   2.060  1.00  0.00     0.010 A 
HETATM   31  C   UNL     1      43.961 -19.154   2.947  1.00  0.00    -0.054 A 
HETATM   32  C   UNL     1      43.306 -18.969   4.171  1.00  0.00     0.010 A 
HETATM   33  C   UNL     1      42.752 -17.728   4.509  1.00  0.00     0.030 A 
BRANCH  31  34
HETATM   34  C   UNL     1      44.555 -20.515   2.610  1.00  0.00     0.014 C 
HETATM   35  C   UNL     1      43.610 -21.368   1.754  1.00  0.00     0.015 C 
BRANCH  34  36
HETATM   36  C   UNL     1      44.990 -21.233   3.902  1.00  0.00     0.004 C 
HETATM   37  C   UNL     1      44.608 -22.707   3.933  1.00  0.00     0.006 C 
ENDBRANCH  34  36
ENDBRANCH  31  34
ENDBRANCH  25  28
ENDBRANCH   1  24
TORSDOF 8
ENDMDL
MODEL 2
REMARK VINA RESULT:      -8.5      1.539      1.887
REMARK  8 active torsions:
REMARK  status: ('A' for Active; 'I' for Inactive)
REMARK    1  A    between atoms: C_2  and  C_3 
REMARK    2  A    between atoms: C_3  and  C_4 
REMARK    3  A    between atoms: C_7  and  N_8 
REMARK       I    between atoms: N_8  and  C_9 
REMARK    4  A    between atoms: C_9  and  C_10 
REMARK    5  A    between atoms: C_13  and  N_14 
REMARK       I    between atoms: N_14  and  C_15 
REMARK    6  A    between atoms: C_15  and  C_16 
REMARK    7  A    between atoms: C_16  and  C_17 
REMARK    8  A    between atoms: C_19  and  N_20 
ROOT
HETATM    1  C   UNL     1      41.017 -14.247   3.814  1.00  0.00     0.032 A 
HETATM    2  C   UNL     1      40.871 -13.184   2.917  1.00  0.00     0.019 A 
HETATM    3  C   UNL     1      40.623 -11.886   3.386  1.00  0.00     0.030 A 
HETATM    4  C   UNL     1      40.535 -11.622   4.756  1.00  0.00     0.034 A 
HETATM    5  C   UNL     1      40.711 -12.681   5.654  1.00  0.00     0.030 A 
HETATM    6  C   UNL     1      40.947 -13.981   5.189  1.00  0.00     0.019 A 
ENDROOT
BRANCH   4   7
HETATM    7  N   UNL     1      40.296 -10.341   5.301  1.00  0.00    -0.327 N 
HETATM    8  C   UNL     1      39.075  -9.698   5.415  1.00  0.00     0.223 C 
HETATM    9  O   UNL     1      37.990 -10.145   5.059  1.00  0.00    -0.273 OA
HETATM   10  H   UNL     1      41.105  -9.868   5.684  1.00  0.00     0.169 HD
BRANCH   8  11
HETATM   11  C   UNL     1      39.204  -8.301   5.998  1.00  0.00     0.128 C 
BRANCH  11  12
HETATM   12  C   UNL     1      39.974  -8.330   7.312  1.00  0.00     0.158 C 
HETATM   13  S   UNL     1      39.487  -9.732   8.366  1.00  0.00    -0.077 SA
HETATM   14  C   UNL     1      41.164  -9.950   8.844  1.00  0.00     0.168 C 
HETATM   15  N   UNL     1      42.033  -9.296   8.144  1.00  0.00    -0.189 NA
HETATM   16  C   UNL     1      41.464  -8.551   7.135  1.00  0.00     0.260 C 
HETATM   17  O   UNL     1      42.105  -8.063   6.212  1.00  0.00    -0.270 OA
BRANCH  14  18
HETATM   18  N   UNL     1      41.452 -10.728   9.943  1.00  0.00    -0.360 N 
HETATM   19  C   UNL     1      42.809 -11.146  10.303  1.00  0.00     0.125 C 
HETATM   20  C   UNL     1      43.341 -10.249  11.423  1.00  0.00     0.020 C 
HETATM   21  C   UNL     1      42.397 -10.243  12.625  1.00  0.00     0.003 C 
HETATM   22  C   UNL     1      40.974  -9.884  12.199  1.00  0.00     0.020 C 
HETATM   23  C   UNL     1      40.504 -10.786  11.061  1.00  0.00     0.125 C 
ENDBRANCH  14  18
ENDBRANCH  11  12
ENDBRANCH   8  11
ENDBRANCH   4   7
BRANCH   1  24
HETATM   24  C   UNL     1      41.279 -15.655   3.378  1.00  0.00     0.256 C 
HETATM   25  N   UNL     1      42.513 -16.176   3.728  1.00  0.00    -0.323 N 
HETATM   26  H   UNL     1      43.169 -15.559   4.186  1.00  0.00     0.169 HD
HETATM   27  O   UNL     1      40.408 -16.225   2.731  1.00  0.00    -0.267 OA
BRANCH  25  28
HETATM   28  C   UNL     1      43.010 -17.470   3.453  1.00  0.00     0.035 A 
HETATM   29  C   UNL     1      42.937 -18.090   2.207  1.00  0.00     0.030 A 
HETATM   30  C   UNL     1      43.469 -19.372   2.014  1.00  0.00     0.010 A 
HETATM   31  C   UNL     1      44.093 -20.061   3.062  1.00  0.00    -0.054 A 
HETATM   32  C   UNL     1      44.142 -19.444   4.319  1.00  0.00     0.010 A 
HETATM   33  C   UNL     1      43.610 -18.163   4.511  1.00  0.00     0.030 A 
BRANCH  31  34
HETATM   34  C   UNL     1      44.683 -21.453   2.885  1.00  0.00     0.014 C 
HETATM   35  C   UNL     1      44.330 -22.067   1.524  1.00  0.00     0.015 C 
BRANCH  34  36
HETATM   36  C   UNL     1      44.267 -22.355   4.063  1.00  0.00     0.004 C 
HETATM   37  C   UNL     1      45.377 -22.565   5.084  1.00  0.00     0.006 C 
ENDBRANCH  34  36
ENDBRANCH  31  34
ENDBRANCH  25  28
ENDBRANCH   1  24
TORSDOF 8
ENDMDL
MODEL 3
REMARK VINA RESULT:      -8.4      3.883     12.347
REMARK  8 active torsions:
REMARK  status: ('A' for Active; 'I' for Inactive)
REMARK    1  A    between atoms: C_2  and  C_3 
REMARK    2  A    between atoms: C_3  and  C_4 
REMARK    3  A    between atoms: C_7  and  N_8 
REMARK       I    between atoms: N_8  and  C_9 
REMARK    4  A    between atoms: C_9  and  C_10 
REMARK    5  A    between atoms: C_13  and  N_14 
REMARK       I    between atoms: N_14  and  C_15 
REMARK    6  A    between atoms: C_15  and  C_16 
REMARK    7  A    between atoms: C_16  and  C_17 
REMARK    8  A    between atoms: C_19  and  N_20 
ROOT
HETATM    1  C   UNL     1      44.093 -12.304   8.219  1.00  0.00     0.032 A 
HETATM    2  C   UNL     1      45.105 -13.217   7.906  1.00  0.00     0.019 A 
HETATM    3  C   UNL     1      44.984 -14.057   6.789  1.00  0.00     0.030 A 
HETATM    4  C   UNL     1      43.865 -13.987   5.955  1.00  0.00     0.034 A 
HETATM    5  C   UNL     1      42.867 -13.052   6.252  1.00  0.00     0.030 A 
HETATM    6  C   UNL     1      42.978 -12.221   7.373  1.00  0.00     0.019 A 
ENDROOT
BRANCH   4   7
HETATM    7  N   UNL     1      43.680 -14.794   4.811  1.00  0.00    -0.327 N 
HETATM    8  C   UNL     1      42.930 -15.955   4.721  1.00  0.00     0.223 C 
HETATM    9  O   UNL     1      42.294 -16.474   5.632  1.00  0.00    -0.273 OA
HETATM   10  H   UNL     1      44.113 -14.457   3.960  1.00  0.00     0.169 HD
BRANCH   8  11
HETATM   11  C   UNL     1      43.006 -16.593   3.344  1.00  0.00     0.128 C 
BRANCH  11  12
HETATM   12  C   UNL     1      41.842 -16.141   2.471  1.00  0.00     0.158 C 
HETATM   13  S   UNL     1      42.115 -14.487   1.762  1.00  0.00    -0.077 SA
HETATM   14  C   UNL     1      41.384 -15.017   0.254  1.00  0.00     0.168 C 
HETATM   15  N   UNL     1      41.205 -16.292   0.139  1.00  0.00    -0.189 NA
HETATM   16  C   UNL     1      41.641 -17.001   1.237  1.00  0.00     0.260 C 
HETATM   17  O   UNL     1      41.797 -18.216   1.240  1.00  0.00    -0.270 OA
BRANCH  14  18
HETATM   18  N   UNL     1      40.992 -14.074  -0.669  1.00  0.00    -0.360 N 
HETATM   19  C   UNL     1      41.750 -12.850  -0.944  1.00  0.00     0.125 C 
HETATM   20  C   UNL     1      42.570 -13.034  -2.224  1.00  0.00     0.020 C 
HETATM   21  C   UNL     1      41.684 -13.445  -3.399  1.00  0.00     0.003 C 
HETATM   22  C   UNL     1      40.846 -14.673  -3.046  1.00  0.00     0.020 C 
HETATM   23  C   UNL     1      40.074 -14.450  -1.749  1.00  0.00     0.125 C 
ENDBRANCH  14  18
ENDBRANCH  11  12
ENDBRANCH   8  11
ENDBRANCH   4   7
BRANCH   1  24
HETATM   24  C   UNL     1      44.158 -11.383   9.398  1.00  0.00     0.256 C 
HETATM   25  N   UNL     1      43.038 -11.364  10.212  1.00  0.00    -0.323 N 
HETATM   26  H   UNL     1      42.240 -11.910   9.922  1.00  0.00     0.169 HD
HETATM   27  O   UNL     1      45.170 -10.706   9.540  1.00  0.00    -0.267 OA
BRANCH  25  28
HETATM   28  C   UNL     1      42.840 -10.600  11.384  1.00  0.00     0.035 A 
HETATM   29  C   UNL     1      42.602  -9.227  11.395  1.00  0.00     0.030 A 
HETATM   30  C   UNL     1      42.400  -8.546  12.603  1.00  0.00     0.010 A 
HETATM   31  C   UNL     1      42.426  -9.224  13.828  1.00  0.00    -0.054 A 
HETATM   32  C   UNL     1      42.690 -10.599  13.814  1.00  0.00     0.010 A 
HETATM   33  C   UNL     1      42.891 -11.279  12.606  1.00  0.00     0.030 A 
BRANCH  31  34
HETATM   34  C   UNL     1      42.209  -8.514  15.157  1.00  0.00     0.014 C 
HETATM   35  C   UNL     1      41.755  -9.475  16.263  1.00  0.00     0.015 C 
BRANCH  34  36
HETATM   36  C   UNL     1      41.240  -7.331  14.970  1.00  0.00     0.004 C 
HETATM   37  C   UNL     1      39.845  -7.599  15.518  1.00  0.00     0.006 C 
ENDBRANCH  34  36
ENDBRANCH  31  34
ENDBRANCH  25  28
ENDBRANCH   1  24
TORSDOF 8
ENDMDL
MODEL 4
REMARK VINA RESULT:      -8.3      3.082     10.681
REMARK  8 active torsions:
REMARK  status: ('A' for Active; 'I' for Inactive)
REMARK    1  A    between atoms: C_2  and  C_3 
REMARK    2  A    between atoms: C_3  and  C_4 
REMARK    3  A    between atoms: C_7  and  N_8 
REMARK       I    between atoms: N_8  and  C_9 
REMARK    4  A    between atoms: C_9  and  C_10 
REMARK    5  A    between atoms: C_13  and  N_14 
REMARK       I    between atoms: N_14  and  C_15 
REMARK    6  A    between atoms: C_15  and  C_16 
REMARK    7  A    between atoms: C_16  and  C_17 
REMARK    8  A    between atoms: C_19  and  N_20 
ROOT
HETATM    1  C   UNL     1      41.525 -10.817   5.883  1.00  0.00     0.032 A 
HETATM    2  C   UNL     1      40.904 -10.165   4.813  1.00  0.00     0.019 A 
HETATM    3  C   UNL     1      40.667 -10.843   3.609  1.00  0.00     0.030 A 
HETATM    4  C   UNL     1      41.027 -12.185   3.457  1.00  0.00     0.034 A 
HETATM    5  C   UNL     1      41.621 -12.845   4.538  1.00  0.00     0.030 A 
HETATM    6  C   UNL     1      41.870 -12.168   5.739  1.00  0.00     0.019 A 
ENDROOT
BRANCH   4   7
HETATM    7  N   UNL     1      40.813 -12.933   2.278  1.00  0.00    -0.327 N 
HETATM    8  C   UNL     1      41.616 -12.961   1.150  1.00  0.00     0.223 C 
HETATM    9  O   UNL     1      42.658 -12.335   0.993  1.00  0.00    -0.273 OA
HETATM   10  H   UNL     1      40.004 -13.542   2.284  1.00  0.00     0.169 HD
BRANCH   8  11
HETATM   11  C   UNL     1      41.042 -13.835   0.047  1.00  0.00     0.128 C 
BRANCH  11  12
HETATM   12  C   UNL     1      40.837 -15.263   0.537  1.00  0.00     0.158 C 
HETATM   13  S   UNL     1      42.261 -15.876   1.491  1.00  0.00    -0.077 SA
HETATM   14  C   UNL     1      41.164 -16.687   2.599  1.00  0.00     0.168 C 
HETATM   15  N   UNL     1      39.919 -16.356   2.493  1.00  0.00    -0.189 NA
HETATM   16  C   UNL     1      39.692 -15.406   1.522  1.00  0.00     0.260 C 
HETATM   17  O   UNL     1      38.646 -14.776   1.424  1.00  0.00    -0.270 OA
BRANCH  14  18
HETATM   18  N   UNL     1      41.661 -17.649   3.449  1.00  0.00    -0.360 N 
HETATM   19  C   UNL     1      42.721 -18.589   3.073  1.00  0.00     0.125 C 
HETATM   20  C   UNL     1      44.057 -18.107   3.644  1.00  0.00     0.020 C 
HETATM   21  C   UNL     1      43.973 -17.900   5.156  1.00  0.00     0.003 C 
HETATM   22  C   UNL     1      42.805 -16.982   5.517  1.00  0.00     0.020 C 
HETATM   23  C   UNL     1      41.505 -17.490   4.899  1.00  0.00     0.125 C 
ENDBRANCH  14  18
ENDBRANCH  11  12
ENDBRANCH   8  11
ENDBRANCH   4   7
BRANCH   1  24
HETATM   24  C   UNL     1      41.810 -10.150   7.193  1.00  0.00     0.256 C 
HETATM   25  N   UNL     1      42.120 -10.993   8.246  1.00  0.00    -0.323 N 
HETATM   26  H   UNL     1      42.066 -11.988   8.080  1.00  0.00     0.169 HD
HETATM   27  O   UNL     1      41.724  -8.928   7.243  1.00  0.00    -0.267 OA
BRANCH  25  28
HETATM   28  C   UNL     1      42.436 -10.630   9.574  1.00  0.00     0.035 A 
HETATM   29  C   UNL     1      43.701 -10.758  10.143  1.00  0.00     0.030 A 
HETATM   30  C   UNL     1      43.935 -10.358  11.466  1.00  0.00     0.010 A 
HETATM   31  C   UNL     1      42.908  -9.814  12.249  1.00  0.00    -0.054 A 
HETATM   32  C   UNL     1      41.632  -9.710  11.680  1.00  0.00     0.010 A 
HETATM   33  C   UNL     1      41.400 -10.109  10.358  1.00  0.00     0.030 A 
BRANCH  31  34
HETATM   34  C   UNL     1      43.129  -9.368  13.687  1.00  0.00     0.014 C 
HETATM   35  C   UNL     1      42.389 -10.259  14.693  1.00  0.00     0.015 C 
BRANCH  34  36
HETATM   36  C   UNL     1      42.764  -7.879  13.838  1.00  0.00     0.004 C 
HETATM   37  C   UNL     1      41.633  -7.631  14.826  1.00  0.00     0.006 C 
ENDBRANCH  34  36
ENDBRANCH  31  34
ENDBRANCH  25  28
ENDBRANCH   1  24
TORSDOF 8
ENDMDL
MODEL 5
REMARK VINA RESULT:      -8.1      4.624      7.052
REMARK  8 active torsions:
REMARK  status: ('A' for Active; 'I' for Inactive)
REMARK    1  A    between atoms: C_2  and  C_3 
REMARK    2  A    between atoms: C_3  and  C_4 
REMARK    3  A    between atoms: C_7  and  N_8 
REMARK       I    between atoms: N_8  and  C_9 
REMARK    4  A    between atoms: C_9  and  C_10 
REMARK    5  A    between atoms: C_13  and  N_14 
REMARK       I    between atoms: N_14  and  C_15 
REMARK    6  A    between atoms: C_15  and  C_16 
REMARK    7  A    between atoms: C_16  and  C_17 
REMARK    8  A    between atoms: C_19  and  N_20 
ROOT
HETATM    1  C   UNL     1      40.264 -14.329   4.808  1.00  0.00     0.032 A 
HETATM    2  C   UNL     1      39.805 -13.656   5.945  1.00  0.00     0.019 A 
HETATM    3  C   UNL     1      39.191 -12.401   5.828  1.00  0.00     0.030 A 
HETATM    4  C   UNL     1      39.006 -11.805   4.578  1.00  0.00     0.034 A 
HETATM    5  C   UNL     1      39.438 -12.493   3.438  1.00  0.00     0.030 A 
HETATM    6  C   UNL     1      40.063 -13.741   3.551  1.00  0.00     0.019 A 
ENDROOT
BRANCH   4   7
HETATM    7  N   UNL     1      38.390 -10.549   4.383  1.00  0.00    -0.327 N 
HETATM    8  C   UNL     1      38.921  -9.305   4.676  1.00  0.00     0.223 C 
HETATM    9  O   UNL     1      40.030  -9.090   5.154  1.00  0.00    -0.273 OA
HETATM   10  H   UNL     1      37.477 -10.570   3.945  1.00  0.00     0.169 HD
BRANCH   8  11
HETATM   11  C   UNL     1      37.948  -8.172   4.390  1.00  0.00     0.128 C 
BRANCH  11  12
HETATM   12  C   UNL     1      36.547  -8.712   4.137  1.00  0.00     0.158 C 
HETATM   13  S   UNL     1      35.257  -7.629   4.828  1.00  0.00    -0.077 SA
HETATM   14  C   UNL     1      34.253  -7.932   3.416  1.00  0.00     0.168 C 
HETATM   15  N   UNL     1      34.846  -8.510   2.424  1.00  0.00    -0.189 NA
HETATM   16  C   UNL     1      36.177  -8.772   2.667  1.00  0.00     0.260 C 
HETATM   17  O   UNL     1      36.976  -9.079   1.791  1.00  0.00    -0.270 OA
BRANCH  14  18
HETATM   18  N   UNL     1      32.916  -7.608   3.463  1.00  0.00    -0.360 N 
HETATM   19  C   UNL     1      31.976  -7.898   2.377  1.00  0.00     0.125 C 
HETATM   20  C   UNL     1      31.171  -9.154   2.720  1.00  0.00     0.020 C 
HETATM   21  C   UNL     1      30.471  -9.014   4.071  1.00  0.00     0.003 C 
HETATM   22  C   UNL     1      31.468  -8.630   5.164  1.00  0.00     0.020 C 
HETATM   23  C   UNL     1      32.265  -7.392   4.760  1.00  0.00     0.125 C 
ENDBRANCH  14  18
ENDBRANCH  11  12
ENDBRANCH   8  11
ENDBRANCH   4   7
BRANCH   1  24
HETATM   24  C   UNL     1      40.931 -15.669   4.864  1.00  0.00     0.256 C 
HETATM   25  N   UNL     1      41.812 -15.949   3.833  1.00  0.00    -0.323 N 
HETATM   26  H   UNL     1      41.890 -15.271   3.088  1.00  0.00     0.169 HD
HETATM   27  O   UNL     1      40.635 -16.417   5.789  1.00  0.00    -0.267 OA
BRANCH  25  28
HETATM   28  C   UNL     1      42.574 -17.124   3.649  1.00  0.00     0.035 A 
HETATM   29  C   UNL     1      43.579 -17.551   4.515  1.00  0.00     0.030 A 
HETATM   30  C   UNL     1      44.279 -18.740   4.268  1.00  0.00     0.010 A 
HETATM   31  C   UNL     1      43.985 -19.533   3.152  1.00  0.00    -0.054 A 
HETATM   32  C   UNL     1      42.990 -19.087   2.271  1.00  0.00     0.010 A 
HETATM   33  C   UNL     1      42.292 -17.899   2.519  1.00  0.00     0.030 A 
BRANCH  31  34
HETATM   34  C   UNL     1      44.724 -20.830   2.855  1.00  0.00     0.014 C 
HETATM   35  C   UNL     1      43.951 -21.733   1.885  1.00  0.00     0.015 C 
BRANCH  34  36
HETATM   36  C   UNL     1      45.077 -21.547   4.172  1.00  0.00     0.004 C 
HETATM   37  C   UNL     1      44.557 -22.977   4.242  1.00  0.00     0.006 C 
ENDBRANCH  34  36
ENDBRANCH  31  34
ENDBRANCH  25  28
ENDBRANCH   1  24
TORSDOF 8
ENDMDL
MODEL 6
REMARK VINA RESULT:      -8.1      3.252     12.058
REMARK  8 active torsions:
REMARK  status: ('A' for Active; 'I' for Inactive)
REMARK    1  A    between atoms: C_2  and  C_3 
REMARK    2  A    between atoms: C_3  and  C_4 
REMARK    3  A    between atoms: C_7  and  N_8 
REMARK       I    between atoms: N_8  and  C_9 
REMARK    4  A    between atoms: C_9  and  C_10 
REMARK    5  A    between atoms: C_13  and  N_14 
REMARK       I    between atoms: N_14  and  C_15 
REMARK    6  A    between atoms: C_15  and  C_16 
REMARK    7  A    between atoms: C_16  and  C_17 
REMARK    8  A    between atoms: C_19  and  N_20 
ROOT
HETATM    1  C   UNL     1      43.406 -12.267   7.692  1.00  0.00     0.032 A 
HETATM    2  C   UNL     1      44.227 -13.292   7.211  1.00  0.00     0.019 A 
HETATM    3  C   UNL     1      43.926 -13.935   6.002  1.00  0.00     0.030 A 
HETATM    4  C   UNL     1      42.816 -13.555   5.243  1.00  0.00     0.034 A 
HETATM    5  C   UNL     1      42.013 -12.509   5.710  1.00  0.00     0.030 A 
HETATM    6  C   UNL     1      42.302 -11.873   6.924  1.00  0.00     0.019 A 
ENDROOT
BRANCH   4   7
HETATM    7  N   UNL     1      42.457 -14.151   4.014  1.00  0.00    -0.327 N 
HETATM    8  C   UNL     1      41.736 -15.319   3.832  1.00  0.00     0.223 C 
HETATM    9  O   UNL     1      41.284 -16.032   4.721  1.00  0.00    -0.273 OA
HETATM   10  H   UNL     1      42.725 -13.640   3.182  1.00  0.00     0.169 HD
BRANCH   8  11
HETATM   11  C   UNL     1      41.589 -15.692   2.366  1.00  0.00     0.128 C 
BRANCH  11  12
HETATM   12  C   UNL     1      42.591 -16.770   1.977  1.00  0.00     0.158 C 
HETATM   13  S   UNL     1      43.763 -17.138   3.320  1.00  0.00    -0.077 SA
HETATM   14  C   UNL     1      43.689 -18.846   2.911  1.00  0.00     0.168 C 
HETATM   15  N   UNL     1      42.742 -19.184   2.099  1.00  0.00    -0.189 NA
HETATM   16  C   UNL     1      41.955 -18.122   1.713  1.00  0.00     0.260 C 
HETATM   17  O   UNL     1      40.870 -18.250   1.159  1.00  0.00    -0.270 OA
BRANCH  14  18
HETATM   18  N   UNL     1      44.651 -19.697   3.409  1.00  0.00    -0.360 N 
HETATM   19  C   UNL     1      45.022 -19.755   4.825  1.00  0.00     0.125 C 
HETATM   20  C   UNL     1      44.335 -20.953   5.485  1.00  0.00     0.020 C 
HETATM   21  C   UNL     1      44.654 -22.253   4.746  1.00  0.00     0.003 C 
HETATM   22  C   UNL     1      44.332 -22.127   3.258  1.00  0.00     0.020 C 
HETATM   23  C   UNL     1      45.015 -20.902   2.656  1.00  0.00     0.125 C 
ENDBRANCH  14  18
ENDBRANCH  11  12
ENDBRANCH   8  11
ENDBRANCH   4   7
BRANCH   1  24
HETATM   24  C   UNL     1      43.669 -11.544   8.977  1.00  0.00     0.256 C 
HETATM   25  N   UNL     1      42.580 -11.395   9.820  1.00  0.00    -0.323 N 
HETATM   26  H   UNL     1      41.683 -11.717   9.486  1.00  0.00     0.169 HD
HETATM   27  O   UNL     1      44.802 -11.121   9.174  1.00  0.00    -0.267 OA
BRANCH  25  28
HETATM   28  C   UNL     1      42.553 -10.767  11.085  1.00  0.00     0.035 A 
HETATM   29  C   UNL     1      42.564 -11.448  12.301  1.00  0.00     0.030 A 
HETATM   30  C   UNL     1      42.550 -10.747  13.514  1.00  0.00     0.010 A 
HETATM   31  C   UNL     1      42.533  -9.347  13.540  1.00  0.00    -0.054 A 
HETATM   32  C   UNL     1      42.497  -8.666  12.316  1.00  0.00     0.010 A 
HETATM   33  C   UNL     1      42.511  -9.368  11.104  1.00  0.00     0.030 A 
BRANCH  31  34
HETATM   34  C   UNL     1      42.520  -8.555  14.840  1.00  0.00     0.014 C 
HETATM   35  C   UNL     1      42.140  -9.423  16.046  1.00  0.00     0.015 C 
BRANCH  34  36
HETATM   36  C   UNL     1      41.613  -7.319  14.695  1.00  0.00     0.004 C 
HETATM   37  C   UNL     1      40.369  -7.374  15.571  1.00  0.00     0.006 C 
ENDBRANCH  34  36
ENDBRANCH  31  34
ENDBRANCH  25  28
ENDBRANCH   1  24
TORSDOF 8
ENDMDL
MODEL 7
REMARK VINA RESULT:      -8.0      2.757     10.900
REMARK  8 active torsions:
REMARK  status: ('A' for Active; 'I' for Inactive)
REMARK    1  A    between atoms: C_2  and  C_3 
REMARK    2  A    between atoms: C_3  and  C_4 
REMARK    3  A    between atoms: C_7  and  N_8 
REMARK       I    between atoms: N_8  and  C_9 
REMARK    4  A    between atoms: C_9  and  C_10 
REMARK    5  A    between atoms: C_13  and  N_14 
REMARK       I    between atoms: N_14  and  C_15 
REMARK    6  A    between atoms: C_15  and  C_16 
REMARK    7  A    between atoms: C_16  and  C_17 
REMARK    8  A    between atoms: C_19  and  N_20 
ROOT
HETATM    1  C   UNL     1      40.005 -11.695   6.147  1.00  0.00     0.032 A 
HETATM    2  C   UNL     1      39.205 -11.592   5.004  1.00  0.00     0.019 A 
HETATM    3  C   UNL     1      39.454 -12.401   3.887  1.00  0.00     0.030 A 
HETATM    4  C   UNL     1      40.489 -13.340   3.896  1.00  0.00     0.034 A 
HETATM    5  C   UNL     1      41.269 -13.465   5.051  1.00  0.00     0.030 A 
HETATM    6  C   UNL     1      41.032 -12.649   6.165  1.00  0.00     0.019 A 
ENDROOT
BRANCH   4   7
HETATM    7  N   UNL     1      40.793 -14.194   2.813  1.00  0.00    -0.327 N 
HETATM    8  C   UNL     1      41.772 -14.007   1.852  1.00  0.00     0.223 C 
HETATM    9  O   UNL     1      42.546 -13.059   1.789  1.00  0.00    -0.273 OA
HETATM   10  H   UNL     1      40.258 -15.053   2.766  1.00  0.00     0.169 HD
BRANCH   8  11
HETATM   11  C   UNL     1      41.774 -15.103   0.799  1.00  0.00     0.128 C 
BRANCH  11  12
HETATM   12  C   UNL     1      42.321 -16.405   1.371  1.00  0.00     0.158 C 
HETATM   13  S   UNL     1      43.762 -16.132   2.448  1.00  0.00    -0.077 SA
HETATM   14  C   UNL     1      43.176 -17.379   3.540  1.00  0.00     0.168 C 
HETATM   15  N   UNL     1      41.962 -17.772   3.337  1.00  0.00    -0.189 NA
HETATM   16  C   UNL     1      41.348 -17.117   2.292  1.00  0.00     0.260 C 
HETATM   17  O   UNL     1      40.141 -17.151   2.088  1.00  0.00    -0.270 OA
BRANCH  14  18
HETATM   18  N   UNL     1      44.034 -17.901   4.482  1.00  0.00    -0.360 N 
HETATM   19  C   UNL     1      44.076 -17.448   5.875  1.00  0.00     0.125 C 
HETATM   20  C   UNL     1      43.307 -18.435   6.757  1.00  0.00     0.020 C 
HETATM   21  C   UNL     1      43.837 -19.859   6.592  1.00  0.00     0.003 C 
HETATM   22  C   UNL     1      43.857 -20.267   5.120  1.00  0.00     0.020 C 
HETATM   23  C   UNL     1      44.608 -19.236   4.281  1.00  0.00     0.125 C 
ENDBRANCH  14  18
ENDBRANCH  11  12
ENDBRANCH   8  11
ENDBRANCH   4   7
BRANCH   1  24
HETATM   24  C   UNL     1      39.795 -10.857   7.370  1.00  0.00     0.256 C 
HETATM   25  N   UNL     1      40.677 -11.081   8.414  1.00  0.00    -0.323 N 
HETATM   26  H   UNL     1      41.347 -11.829   8.307  1.00  0.00     0.169 HD
HETATM   27  O   UNL     1      38.858 -10.068   7.369  1.00  0.00    -0.267 OA
BRANCH  25  28
HETATM   28  C   UNL     1      40.709 -10.428   9.667  1.00  0.00     0.035 A 
HETATM   29  C   UNL     1      41.107  -9.106   9.853  1.00  0.00     0.030 A 
HETATM   30  C   UNL     1      41.094  -8.529  11.131  1.00  0.00     0.010 A 
HETATM   31  C   UNL     1      40.677  -9.260  12.250  1.00  0.00    -0.054 A 
HETATM   32  C   UNL     1      40.301 -10.597  12.061  1.00  0.00     0.010 A 
HETATM   33  C   UNL     1      40.314 -11.172  10.785  1.00  0.00     0.030 A 
BRANCH  31  34
HETATM   34  C   UNL     1      40.649  -8.663  13.650  1.00  0.00     0.014 C 
HETATM   35  C   UNL     1      39.588  -7.564  13.793  1.00  0.00     0.015 C 
BRANCH  34  36
HETATM   36  C   UNL     1      42.057  -8.177  14.043  1.00  0.00     0.004 C 
HETATM   37  C   UNL     1      43.054  -9.311  14.245  1.00  0.00     0.006 C 
ENDBRANCH  34  36
ENDBRANCH  31  34
ENDBRANCH  25  28
ENDBRANCH   1  24
TORSDOF 8
ENDMDL
MODEL 8
REMARK VINA RESULT:      -7.9      6.710     11.336
REMARK  8 active torsions:
REMARK  status: ('A' for Active; 'I' for Inactive)
REMARK    1  A    between atoms: C_2  and  C_3 
REMARK    2  A    between atoms: C_3  and  C_4 
REMARK    3  A    between atoms: C_7  and  N_8 
REMARK       I    between atoms: N_8  and  C_9 
REMARK    4  A    between atoms: C_9  and  C_10 
REMARK    5  A    between atoms: C_13  and  N_14 
REMARK       I    between atoms: N_14  and  C_15 
REMARK    6  A    between atoms: C_15  and  C_16 
REMARK    7  A    between atoms: C_16  and  C_17 
REMARK    8  A    between atoms: C_19  and  N_20 
ROOT
HETATM    1  C   UNL     1      40.072 -14.327  -0.600  1.00  0.00     0.032 A 
HETATM    2  C   UNL     1      41.081 -15.236  -0.269  1.00  0.00     0.019 A 
HETATM    3  C   UNL     1      41.153 -15.779   1.022  1.00  0.00     0.030 A 
HETATM    4  C   UNL     1      40.211 -15.440   1.997  1.00  0.00     0.034 A 
HETATM    5  C   UNL     1      39.183 -14.554   1.655  1.00  0.00     0.030 A 
HETATM    6  C   UNL     1      39.115 -14.000   0.371  1.00  0.00     0.019 A 
ENDROOT
BRANCH   4   7
HETATM    7  N   UNL     1      40.215 -15.953   3.313  1.00  0.00    -0.327 N 
HETATM    8  C   UNL     1      41.091 -15.623   4.334  1.00  0.00     0.223 C 
HETATM    9  O   UNL     1      42.014 -14.819   4.259  1.00  0.00    -0.273 OA
HETATM   10  H   UNL     1      39.469 -16.599   3.537  1.00  0.00     0.169 HD
BRANCH   8  11
HETATM   11  C   UNL     1      40.834 -16.418   5.603  1.00  0.00     0.128 C 
BRANCH  11  12
HETATM   12  C   UNL     1      41.509 -17.781   5.536  1.00  0.00     0.158 C 
HETATM   13  S   UNL     1      42.309 -18.075   3.927  1.00  0.00    -0.077 SA
HETATM   14  C   UNL     1      43.652 -18.864   4.744  1.00  0.00     0.168 C 
HETATM   15  N   UNL     1      43.691 -18.711   6.027  1.00  0.00    -0.189 NA
HETATM   16  C   UNL     1      42.661 -17.936   6.511  1.00  0.00     0.260 C 
HETATM   17  O   UNL     1      42.644 -17.463   7.641  1.00  0.00    -0.270 OA
BRANCH  14  18
HETATM   18  N   UNL     1      44.525 -19.633   4.008  1.00  0.00    -0.360 N 
HETATM   19  C   UNL     1      45.205 -20.817   4.541  1.00  0.00     0.125 C 
HETATM   20  C   UNL     1      44.480 -22.079   4.066  1.00  0.00     0.020 C 
HETATM   21  C   UNL     1      44.361 -22.113   2.543  1.00  0.00     0.003 C 
HETATM   22  C   UNL     1      43.725 -20.828   2.016  1.00  0.00     0.020 C 
HETATM   23  C   UNL     1      44.465 -19.601   2.542  1.00  0.00     0.125 C 
ENDBRANCH  14  18
ENDBRANCH  11  12
ENDBRANCH   8  11
ENDBRANCH   4   7
BRANCH   1  24
HETATM   24  C   UNL     1      39.942 -13.709  -1.959  1.00  0.00     0.256 C 
HETATM   25  N   UNL     1      40.618 -12.515  -2.146  1.00  0.00    -0.323 N 
HETATM   26  H   UNL     1      41.087 -12.113  -1.347  1.00  0.00     0.169 HD
HETATM   27  O   UNL     1      39.238 -14.281  -2.783  1.00  0.00    -0.267 OA
BRANCH  25  28
HETATM   28  C   UNL     1      40.671 -11.733  -3.321  1.00  0.00     0.035 A 
HETATM   29  C   UNL     1      39.553 -11.203  -3.963  1.00  0.00     0.030 A 
HETATM   30  C   UNL     1      39.695 -10.422  -5.118  1.00  0.00     0.010 A 
HETATM   31  C   UNL     1      40.959 -10.149  -5.656  1.00  0.00    -0.054 A 
HETATM   32  C   UNL     1      42.078 -10.705  -5.021  1.00  0.00     0.010 A 
HETATM   33  C   UNL     1      41.935 -11.484  -3.867  1.00  0.00     0.030 A 
BRANCH  31  34
HETATM   34  C   UNL     1      41.147  -9.304  -6.907  1.00  0.00     0.014 C 
HETATM   35  C   UNL     1      40.578  -9.982  -8.159  1.00  0.00     0.015 C 
BRANCH  34  36
HETATM   36  C   UNL     1      42.631  -8.923  -7.067  1.00  0.00     0.004 C 
HETATM   37  C   UNL     1      42.929  -7.478  -6.688  1.00  0.00     0.006 C 
ENDBRANCH  34  36
ENDBRANCH  31  34
ENDBRANCH  25  28
ENDBRANCH   1  24
TORSDOF 8
ENDMDL
MODEL 9
REMARK VINA RESULT:      -7.9      8.201     11.899
REMARK  8 active torsions:
REMARK  status: ('A' for Active; 'I' for Inactive)
REMARK    1  A    between atoms: C_2  and  C_3 
REMARK    2  A    between atoms: C_3  and  C_4 
REMARK    3  A    between atoms: C_7  and  N_8 
REMARK       I    between atoms: N_8  and  C_9 
REMARK    4  A    between atoms: C_9  and  C_10 
REMARK    5  A    between atoms: C_13  and  N_14 
REMARK       I    between atoms: N_14  and  C_15 
REMARK    6  A    between atoms: C_15  and  C_16 
REMARK    7  A    between atoms: C_16  and  C_17 
REMARK    8  A    between atoms: C_19  and  N_20 
ROOT
HETATM    1  C   UNL     1      40.378 -14.649  -1.067  1.00  0.00     0.032 A 
HETATM    2  C   UNL     1      40.631 -14.865  -2.425  1.00  0.00     0.019 A 
HETATM    3  C   UNL     1      39.726 -14.415  -3.397  1.00  0.00     0.030 A 
HETATM    4  C   UNL     1      38.565 -13.726  -3.034  1.00  0.00     0.034 A 
HETATM    5  C   UNL     1      38.328 -13.484  -1.676  1.00  0.00     0.030 A 
HETATM    6  C   UNL     1      39.223 -13.943  -0.702  1.00  0.00     0.019 A 
ENDROOT
BRANCH   4   7
HETATM    7  N   UNL     1      37.614 -13.237  -3.957  1.00  0.00    -0.327 N 
HETATM    8  C   UNL     1      36.546 -13.930  -4.499  1.00  0.00     0.223 C 
HETATM    9  O   UNL     1      36.247 -15.095  -4.261  1.00  0.00    -0.273 OA
HETATM   10  H   UNL     1      37.709 -12.262  -4.211  1.00  0.00     0.169 HD
BRANCH   8  11
HETATM   11  C   UNL     1      35.765 -13.103  -5.507  1.00  0.00     0.128 C 
BRANCH  11  12
HETATM   12  C   UNL     1      34.341 -12.861  -5.024  1.00  0.00     0.158 C 
HETATM   13  S   UNL     1      34.273 -11.673  -3.646  1.00  0.00    -0.077 SA
HETATM   14  C   UNL     1      32.808 -10.977  -4.324  1.00  0.00     0.168 C 
HETATM   15  N   UNL     1      32.524 -11.341  -5.532  1.00  0.00    -0.189 NA
HETATM   16  C   UNL     1      33.449 -12.212  -6.065  1.00  0.00     0.260 C 
HETATM   17  O   UNL     1      33.513 -12.482  -7.258  1.00  0.00    -0.270 OA
BRANCH  14  18
HETATM   18  N   UNL     1      32.028 -10.159  -3.537  1.00  0.00    -0.360 N 
HETATM   19  C   UNL     1      31.021 -10.662  -2.599  1.00  0.00     0.125 C 
HETATM   20  C   UNL     1      31.592 -10.645  -1.179  1.00  0.00     0.020 C 
HETATM   21  C   UNL     1      32.097  -9.253  -0.799  1.00  0.00     0.003 C 
HETATM   22  C   UNL     1      33.081  -8.726  -1.843  1.00  0.00     0.020 C 
HETATM   23  C   UNL     1      32.475  -8.793  -3.242  1.00  0.00     0.125 C 
ENDBRANCH  14  18
ENDBRANCH  11  12
ENDBRANCH   8  11
ENDBRANCH   4   7
BRANCH   1  24
HETATM   24  C   UNL     1      41.301 -15.108   0.020  1.00  0.00     0.256 C 
HETATM   25  N   UNL     1      41.184 -16.436   0.391  1.00  0.00    -0.323 N 
HETATM   26  H   UNL     1      40.450 -16.980  -0.040  1.00  0.00     0.169 HD
HETATM   27  O   UNL     1      42.061 -14.281   0.511  1.00  0.00    -0.267 OA
BRANCH  25  28
HETATM   28  C   UNL     1      41.932 -17.123   1.374  1.00  0.00     0.035 A 
HETATM   29  C   UNL     1      41.509 -17.320   2.687  1.00  0.00     0.030 A 
HETATM   30  C   UNL     1      42.306 -18.027   3.597  1.00  0.00     0.010 A 
HETATM   31  C   UNL     1      43.542 -18.561   3.212  1.00  0.00    -0.054 A 
HETATM   32  C   UNL     1      43.975 -18.340   1.898  1.00  0.00     0.010 A 
HETATM   33  C   UNL     1      43.177 -17.633   0.989  1.00  0.00     0.030 A 
BRANCH  31  34
HETATM   34  C   UNL     1      44.431 -19.336   4.175  1.00  0.00     0.014 C 
HETATM   35  C   UNL     1      44.677 -20.777   3.708  1.00  0.00     0.015 C 
BRANCH  34  36
HETATM   36  C   UNL     1      43.849 -19.269   5.599  1.00  0.00     0.004 C 
HETATM   37  C   UNL     1      44.720 -18.488   6.573  1.00  0.00     0.006 C 
ENDBRANCH  34  36
ENDBRANCH  31  34
ENDBRANCH  25  28
ENDBRANCH   1  24
TORSDOF 8
ENDMDL
MODEL 10
REMARK VINA RESULT:      -7.8      6.588      7.544
REMARK  8 active torsions:
REMARK  status: ('A' for Active; 'I' for Inactive)
REMARK    1  A    between atoms: C_2  and  C_3 
REMARK    2  A    between atoms: C_3  and  C_4 
REMARK    3  A    between atoms: C_7  and  N_8 
REMARK       I    between atoms: N_8  and  C_9 
REMARK    4  A    between atoms: C_9  and  C_10 
REMARK    5  A    between atoms: C_13  and  N_14 
REMARK       I    between atoms: N_14  and  C_15 
REMARK    6  A    between atoms: C_15  and  C_16 
REMARK    7  A    between atoms: C_16  and  C_17 
REMARK    8  A    between atoms: C_19  and  N_20 
ROOT
HETATM    1  C   UNL     1      39.788 -14.141   2.224  1.00  0.00     0.032 A 
HETATM    2  C   UNL     1      39.057 -14.339   1.048  1.00  0.00     0.019 A 
HETATM    3  C   UNL     1      38.328 -13.286   0.479  1.00  0.00     0.030 A 
HETATM    4  C   UNL     1      38.331 -12.014   1.058  1.00  0.00     0.034 A 
HETATM    5  C   UNL     1      39.087 -11.809   2.217  1.00  0.00     0.030 A 
HETATM    6  C   UNL     1      39.807 -12.862   2.797  1.00  0.00     0.019 A 
ENDROOT
BRANCH   4   7
HETATM    7  N   UNL     1      37.628 -10.905   0.537  1.00  0.00    -0.327 N 
HETATM    8  C   UNL     1      36.283 -10.848   0.211  1.00  0.00     0.223 C 
HETATM    9  O   UNL     1      35.475 -11.763   0.327  1.00  0.00    -0.273 OA
HETATM   10  H   UNL     1      38.164 -10.053   0.433  1.00  0.00     0.169 HD
BRANCH   8  11
HETATM   11  C   UNL     1      35.883  -9.507  -0.382  1.00  0.00     0.128 C 
BRANCH  11  12
HETATM   12  C   UNL     1      35.038  -8.709   0.602  1.00  0.00     0.158 C 
HETATM   13  S   UNL     1      33.454  -9.527   0.971  1.00  0.00    -0.077 SA
HETATM   14  C   UNL     1      33.597  -9.034   2.653  1.00  0.00     0.168 C 
HETATM   15  N   UNL     1      34.755  -8.578   3.004  1.00  0.00    -0.189 NA
HETATM   16  C   UNL     1      35.670  -8.576   1.974  1.00  0.00     0.260 C 
HETATM   17  O   UNL     1      36.874  -8.425   2.141  1.00  0.00    -0.270 OA
BRANCH  14  18
HETATM   18  N   UNL     1      32.488  -9.097   3.466  1.00  0.00    -0.360 N 
HETATM   19  C   UNL     1      32.289 -10.134   4.481  1.00  0.00     0.125 C 
HETATM   20  C   UNL     1      32.649  -9.576   5.860  1.00  0.00     0.020 C 
HETATM   21  C   UNL     1      31.862  -8.303   6.168  1.00  0.00     0.003 C 
HETATM   22  C   UNL     1      32.026  -7.276   5.049  1.00  0.00     0.020 C 
HETATM   23  C   UNL     1      31.684  -7.891   3.694  1.00  0.00     0.125 C 
ENDBRANCH  14  18
ENDBRANCH  11  12
ENDBRANCH   8  11
ENDBRANCH   4   7
BRANCH   1  24
HETATM   24  C   UNL     1      40.584 -15.224   2.884  1.00  0.00     0.256 C 
HETATM   25  N   UNL     1      41.278 -16.068   2.034  1.00  0.00    -0.323 N 
HETATM   26  H   UNL     1      41.148 -15.941   1.041  1.00  0.00     0.169 HD
HETATM   27  O   UNL     1      40.542 -15.300   4.107  1.00  0.00    -0.267 OA
BRANCH  25  28
HETATM   28  C   UNL     1      42.106 -17.156   2.390  1.00  0.00     0.035 A 
HETATM   29  C   UNL     1      42.115 -17.756   3.648  1.00  0.00     0.030 A 
HETATM   30  C   UNL     1      42.957 -18.845   3.914  1.00  0.00     0.010 A 
HETATM   31  C   UNL     1      43.805 -19.362   2.926  1.00  0.00    -0.054 A 
HETATM   32  C   UNL     1      43.810 -18.740   1.671  1.00  0.00     0.010 A 
HETATM   33  C   UNL     1      42.968 -17.652   1.406  1.00  0.00     0.030 A 
BRANCH  31  34
HETATM   34  C   UNL     1      44.730 -20.543   3.183  1.00  0.00     0.014 C 
HETATM   35  C   UNL     1      44.320 -21.788   2.385  1.00  0.00     0.015 C 
BRANCH  34  36
HETATM   36  C   UNL     1      44.826 -20.818   4.695  1.00  0.00     0.004 C 
HETATM   37  C   UNL     1      44.974 -22.295   5.034  1.00  0.00     0.006 C 
ENDBRANCH  34  36
ENDBRANCH  31  34
ENDBRANCH  25  28
ENDBRANCH   1  24
TORSDOF 8
ENDMDL
