MODEL 1
REMARK VINA RESULT:      -9.1      0.000      0.000
REMARK  5 active torsions:
REMARK  status: ('A' for Active; 'I' for Inactive)
REMARK    1  A    between atoms: C_2  and  N_3 
REMARK    2  A    between atoms: C_14  and  C_17 
REMARK       I    between atoms: C_17  and  N_19 
REMARK    3  A    between atoms: N_19  and  C_20 
REMARK    4  A    between atoms: C_20  and  C_22 
REMARK    5  A    between atoms: C_26  and  O_27 
ROOT
HETATM    1  N   UNL     1      44.075 -18.858   5.140  1.00  0.00    -0.008 N 
HETATM    2  H   UNL     1      43.229 -18.842   5.698  1.00  0.00     0.293 HD
HETATM    3  C   UNL     1      44.307 -20.170   4.705  1.00  0.00     0.169 A 
HETATM    4  C   UNL     1      44.551 -21.361   5.436  1.00  0.00     0.154 A 
HETATM    5  N   UNL     1      44.761 -22.568   4.847  1.00  0.00    -0.271 NA
HETATM    6  C   UNL     1      44.723 -22.651   3.504  1.00  0.00     0.117 A 
HETATM    7  C   UNL     1      44.480 -21.576   2.683  1.00  0.00     0.034 A 
HETATM    8  C   UNL     1      44.266 -20.324   3.284  1.00  0.00     0.014 A 
HETATM    9  C   UNL     1      43.974 -18.996   2.779  1.00  0.00     0.012 A 
HETATM   10  C   UNL     1      43.797 -18.454   1.491  1.00  0.00     0.016 A 
HETATM   11  C   UNL     1      43.508 -17.106   1.345  1.00  0.00     0.018 A 
HETATM   12  C   UNL     1      43.380 -16.295   2.478  1.00  0.00     0.034 A 
HETATM   13  C   UNL     1      43.520 -16.825   3.766  1.00  0.00     0.055 A 
HETATM   14  C   UNL     1      43.860 -18.181   3.947  1.00  0.00     0.152 A 
ENDROOT
BRANCH  12  15
HETATM   15  C   UNL     1      43.071 -14.849   2.258  1.00  0.00     0.252 C 
HETATM   16  O   UNL     1      43.586 -13.997   2.973  1.00  0.00    -0.268 OA
HETATM   17  N   UNL     1      42.177 -14.545   1.255  1.00  0.00    -0.349 N 
HETATM   18  H   UNL     1      41.666 -15.279   0.790  1.00  0.00     0.163 HD
BRANCH  17  19
HETATM   19  C   UNL     1      41.758 -13.179   0.985  1.00  0.00     0.114 C 
HETATM   20  C   UNL     1      40.347 -12.923   1.522  1.00  0.00     0.037 C 
BRANCH  19  21
HETATM   21  C   UNL     1      41.873 -12.898  -0.503  1.00  0.00    -0.033 A 
HETATM   22  C   UNL     1      42.573 -11.762  -0.939  1.00  0.00     0.009 A 
HETATM   23  C   UNL     1      42.716 -11.496  -2.299  1.00  0.00     0.003 A 
HETATM   24  C   UNL     1      42.171 -12.369  -3.239  1.00  0.00     0.037 A 
HETATM   25  C   UNL     1      41.482 -13.512  -2.832  1.00  0.00     0.068 A 
HETATM   26  C   UNL     1      41.329 -13.770  -1.467  1.00  0.00     0.046 A 
BRANCH  25  27
HETATM   27  O   UNL     1      41.013 -14.289  -3.856  1.00  0.00    -0.356 OA
HETATM   28  C   UNL     1      40.140 -15.356  -3.511  1.00  0.00     0.210 C 
ENDBRANCH  25  27
ENDBRANCH  19  21
ENDBRANCH  17  19
ENDBRANCH  12  15
BRANCH   1  29
HETATM   29  C   UNL     1      45.143 -18.304   6.009  1.00  0.00     0.244 C 
HETATM   30  C   UNL     1      44.767 -18.161   7.482  1.00  0.00     0.035 C 
ENDBRANCH   1  29
TORSDOF 5
ENDMDL
MODEL 2
REMARK VINA RESULT:      -8.9      1.204      2.018
REMARK  5 active torsions:
REMARK  status: ('A' for Active; 'I' for Inactive)
REMARK    1  A    between atoms: C_2  and  N_3 
REMARK    2  A    between atoms: C_14  and  C_17 
REMARK       I    between atoms: C_17  and  N_19 
REMARK    3  A    between atoms: N_19  and  C_20 
REMARK    4  A    between atoms: C_20  and  C_22 
REMARK    5  A    between atoms: C_26  and  O_27 
ROOT
HETATM    1  N   UNL     1      44.081 -18.893   5.062  1.00  0.00    -0.008 N 
HETATM    2  H   UNL     1      43.245 -18.894   5.633  1.00  0.00     0.293 HD
HETATM    3  C   UNL     1      44.307 -20.191   4.585  1.00  0.00     0.169 A 
HETATM    4  C   UNL     1      44.565 -21.402   5.278  1.00  0.00     0.154 A 
HETATM    5  N   UNL     1      44.766 -22.592   4.651  1.00  0.00    -0.271 NA
HETATM    6  C   UNL     1      44.706 -22.636   3.306  1.00  0.00     0.117 A 
HETATM    7  C   UNL     1      44.449 -21.538   2.521  1.00  0.00     0.034 A 
HETATM    8  C   UNL     1      44.243 -20.304   3.161  1.00  0.00     0.014 A 
HETATM    9  C   UNL     1      43.942 -18.962   2.699  1.00  0.00     0.012 A 
HETATM   10  C   UNL     1      43.743 -18.384   1.430  1.00  0.00     0.016 A 
HETATM   11  C   UNL     1      43.450 -17.033   1.328  1.00  0.00     0.018 A 
HETATM   12  C   UNL     1      43.339 -16.255   2.486  1.00  0.00     0.034 A 
HETATM   13  C   UNL     1      43.501 -16.822   3.756  1.00  0.00     0.055 A 
HETATM   14  C   UNL     1      43.846 -18.182   3.892  1.00  0.00     0.152 A 
ENDROOT
BRANCH  12  15
HETATM   15  C   UNL     1      43.025 -14.804   2.313  1.00  0.00     0.252 C 
HETATM   16  O   UNL     1      43.592 -13.967   3.008  1.00  0.00    -0.268 OA
HETATM   17  N   UNL     1      42.069 -14.477   1.377  1.00  0.00    -0.349 N 
HETATM   18  H   UNL     1      41.524 -15.200   0.934  1.00  0.00     0.163 HD
BRANCH  17  19
HETATM   19  C   UNL     1      41.641 -13.104   1.160  1.00  0.00     0.114 C 
HETATM   20  C   UNL     1      40.144 -12.947   1.439  1.00  0.00     0.037 C 
BRANCH  19  21
HETATM   21  C   UNL     1      42.018 -12.673  -0.246  1.00  0.00    -0.033 A 
HETATM   22  C   UNL     1      41.817 -13.560  -1.317  1.00  0.00     0.009 A 
HETATM   23  C   UNL     1      42.129 -13.180  -2.620  1.00  0.00     0.003 A 
HETATM   24  C   UNL     1      42.634 -11.905  -2.870  1.00  0.00     0.037 A 
HETATM   25  C   UNL     1      42.832 -11.001  -1.826  1.00  0.00     0.068 A 
HETATM   26  C   UNL     1      42.529 -11.389  -0.518  1.00  0.00     0.046 A 
BRANCH  25  27
HETATM   27  O   UNL     1      43.317  -9.781  -2.212  1.00  0.00    -0.356 OA
HETATM   28  C   UNL     1      43.927  -8.980  -1.209  1.00  0.00     0.210 C 
ENDBRANCH  25  27
ENDBRANCH  19  21
ENDBRANCH  17  19
ENDBRANCH  12  15
BRANCH   1  29
HETATM   29  C   UNL     1      45.163 -18.362   5.928  1.00  0.00     0.244 C 
HETATM   30  C   UNL     1      44.760 -18.107   7.379  1.00  0.00     0.035 C 
ENDBRANCH   1  29
TORSDOF 5
ENDMDL
MODEL 3
REMARK VINA RESULT:      -8.8      2.036      3.098
REMARK  5 active torsions:
REMARK  status: ('A' for Active; 'I' for Inactive)
REMARK    1  A    between atoms: C_2  and  N_3 
REMARK    2  A    between atoms: C_14  and  C_17 
REMARK       I    between atoms: C_17  and  N_19 
REMARK    3  A    between atoms: N_19  and  C_20 
REMARK    4  A    between atoms: C_20  and  C_22 
REMARK    5  A    between atoms: C_26  and  O_27 
ROOT
HETATM    1  N   UNL     1      41.959 -17.666   4.735  1.00  0.00    -0.008 N 
HETATM    2  H   UNL     1      41.048 -18.072   4.913  1.00  0.00     0.293 HD
HETATM    3  C   UNL     1      42.943 -18.631   4.990  1.00  0.00     0.169 A 
HETATM    4  C   UNL     1      43.283 -19.317   6.183  1.00  0.00     0.154 A 
HETATM    5  N   UNL     1      44.283 -20.236   6.257  1.00  0.00    -0.271 NA
HETATM    6  C   UNL     1      44.983 -20.525   5.144  1.00  0.00     0.117 A 
HETATM    7  C   UNL     1      44.742 -19.941   3.923  1.00  0.00     0.034 A 
HETATM    8  C   UNL     1      43.713 -18.989   3.839  1.00  0.00     0.014 A 
HETATM    9  C   UNL     1      43.161 -18.188   2.764  1.00  0.00     0.012 A 
HETATM   10  C   UNL     1      43.449 -18.058   1.391  1.00  0.00     0.016 A 
HETATM   11  C   UNL     1      42.705 -17.185   0.611  1.00  0.00     0.018 A 
HETATM   12  C   UNL     1      41.663 -16.451   1.189  1.00  0.00     0.034 A 
HETATM   13  C   UNL     1      41.343 -16.594   2.545  1.00  0.00     0.055 A 
HETATM   14  C   UNL     1      42.110 -17.437   3.374  1.00  0.00     0.152 A 
ENDROOT
BRANCH  12  15
HETATM   15  C   UNL     1      40.899 -15.524   0.300  1.00  0.00     0.252 C 
HETATM   16  O   UNL     1      39.943 -14.898   0.744  1.00  0.00    -0.268 OA
HETATM   17  N   UNL     1      41.303 -15.442  -1.015  1.00  0.00    -0.349 N 
HETATM   18  H   UNL     1      41.995 -16.080  -1.374  1.00  0.00     0.163 HD
BRANCH  17  19
HETATM   19  C   UNL     1      40.601 -14.617  -1.986  1.00  0.00     0.114 C 
HETATM   20  C   UNL     1      40.269 -15.419  -3.247  1.00  0.00     0.037 C 
BRANCH  19  21
HETATM   21  C   UNL     1      41.426 -13.378  -2.286  1.00  0.00    -0.033 A 
HETATM   22  C   UNL     1      41.454 -12.869  -3.595  1.00  0.00     0.009 A 
HETATM   23  C   UNL     1      42.181 -11.719  -3.893  1.00  0.00     0.003 A 
HETATM   24  C   UNL     1      42.878 -11.056  -2.883  1.00  0.00     0.037 A 
HETATM   25  C   UNL     1      42.856 -11.534  -1.572  1.00  0.00     0.068 A 
HETATM   26  C   UNL     1      42.136 -12.696  -1.279  1.00  0.00     0.046 A 
BRANCH  25  27
HETATM   27  O   UNL     1      43.568 -10.781  -0.679  1.00  0.00    -0.356 OA
HETATM   28  C   UNL     1      43.931  -9.468  -1.084  1.00  0.00     0.210 C 
ENDBRANCH  25  27
ENDBRANCH  19  21
ENDBRANCH  17  19
ENDBRANCH  12  15
BRANCH   1  29
HETATM   29  C   UNL     1      42.042 -16.464   5.601  1.00  0.00     0.244 C 
HETATM   30  C   UNL     1      43.349 -15.680   5.493  1.00  0.00     0.035 C 
ENDBRANCH   1  29
TORSDOF 5
ENDMDL
MODEL 4
REMARK VINA RESULT:      -8.4      7.432     11.048
REMARK  5 active torsions:
REMARK  status: ('A' for Active; 'I' for Inactive)
REMARK    1  A    between atoms: C_2  and  N_3 
REMARK    2  A    between atoms: C_14  and  C_17 
REMARK       I    between atoms: C_17  and  N_19 
REMARK    3  A    between atoms: N_19  and  C_20 
REMARK    4  A    between atoms: C_20  and  C_22 
REMARK    5  A    between atoms: C_26  and  O_27 
ROOT
HETATM    1  N   UNL     1      41.404 -10.561  10.881  1.00  0.00    -0.008 N 
HETATM    2  H   UNL     1      40.802 -11.361  11.035  1.00  0.00     0.293 HD
HETATM    3  C   UNL     1      41.600  -9.897  12.100  1.00  0.00     0.169 A 
HETATM    4  C   UNL     1      40.676  -9.261  12.968  1.00  0.00     0.154 A 
HETATM    5  N   UNL     1      41.040  -8.654  14.129  1.00  0.00    -0.271 NA
HETATM    6  C   UNL     1      42.338  -8.665  14.488  1.00  0.00     0.117 A 
HETATM    7  C   UNL     1      43.327  -9.260  13.743  1.00  0.00     0.034 A 
HETATM    8  C   UNL     1      42.960  -9.886  12.541  1.00  0.00     0.014 A 
HETATM    9  C   UNL     1      43.684 -10.613  11.516  1.00  0.00     0.012 A 
HETATM   10  C   UNL     1      45.036 -10.967  11.335  1.00  0.00     0.016 A 
HETATM   11  C   UNL     1      45.412 -11.697  10.218  1.00  0.00     0.018 A 
HETATM   12  C   UNL     1      44.446 -12.092   9.285  1.00  0.00     0.034 A 
HETATM   13  C   UNL     1      43.094 -11.777   9.469  1.00  0.00     0.055 A 
HETATM   14  C   UNL     1      42.686 -10.996  10.568  1.00  0.00     0.152 A 
ENDROOT
BRANCH  12  15
HETATM   15  C   UNL     1      44.912 -12.874   8.101  1.00  0.00     0.252 C 
HETATM   16  O   UNL     1      46.081 -12.798   7.737  1.00  0.00    -0.268 OA
HETATM   17  N   UNL     1      43.972 -13.639   7.446  1.00  0.00    -0.349 N 
HETATM   18  H   UNL     1      42.997 -13.560   7.685  1.00  0.00     0.163 HD
BRANCH  17  19
HETATM   19  C   UNL     1      44.297 -14.399   6.249  1.00  0.00     0.114 C 
HETATM   20  C   UNL     1      43.556 -13.842   5.030  1.00  0.00     0.037 C 
BRANCH  19  21
HETATM   21  C   UNL     1      43.999 -15.869   6.487  1.00  0.00    -0.033 A 
HETATM   22  C   UNL     1      43.654 -16.303   7.777  1.00  0.00     0.009 A 
HETATM   23  C   UNL     1      43.350 -17.641   8.018  1.00  0.00     0.003 A 
HETATM   24  C   UNL     1      43.376 -18.558   6.968  1.00  0.00     0.037 A 
HETATM   25  C   UNL     1      43.703 -18.151   5.675  1.00  0.00     0.068 A 
HETATM   26  C   UNL     1      44.019 -16.810   5.438  1.00  0.00     0.046 A 
BRANCH  25  27
HETATM   27  O   UNL     1      43.675 -19.149   4.739  1.00  0.00    -0.356 OA
HETATM   28  C   UNL     1      44.641 -20.182   4.866  1.00  0.00     0.210 C 
ENDBRANCH  25  27
ENDBRANCH  19  21
ENDBRANCH  17  19
ENDBRANCH  12  15
BRANCH   1  29
HETATM   29  C   UNL     1      40.733  -9.743   9.840  1.00  0.00     0.244 C 
HETATM   30  C   UNL     1      39.458 -10.354   9.262  1.00  0.00     0.035 C 
ENDBRANCH   1  29
TORSDOF 5
ENDMDL
MODEL 5
REMARK VINA RESULT:      -8.4      2.065      3.718
REMARK  5 active torsions:
REMARK  status: ('A' for Active; 'I' for Inactive)
REMARK    1  A    between atoms: C_2  and  N_3 
REMARK    2  A    between atoms: C_14  and  C_17 
REMARK       I    between atoms: C_17  and  N_19 
REMARK    3  A    between atoms: N_19  and  C_20 
REMARK    4  A    between atoms: C_20  and  C_22 
REMARK    5  A    between atoms: C_26  and  O_27 
ROOT
HETATM    1  N   UNL     1      43.372 -18.867   2.673  1.00  0.00    -0.008 N 
HETATM    2  H   UNL     1      44.247 -18.590   2.247  1.00  0.00     0.293 HD
HETATM    3  C   UNL     1      43.580 -19.078   4.043  1.00  0.00     0.169 A 
HETATM    4  C   UNL     1      44.412 -20.005   4.723  1.00  0.00     0.154 A 
HETATM    5  N   UNL     1      44.495 -20.077   6.078  1.00  0.00    -0.271 NA
HETATM    6  C   UNL     1      43.766 -19.223   6.821  1.00  0.00     0.117 A 
HETATM    7  C   UNL     1      42.935 -18.269   6.284  1.00  0.00     0.034 A 
HETATM    8  C   UNL     1      42.841 -18.190   4.885  1.00  0.00     0.014 A 
HETATM    9  C   UNL     1      42.109 -17.337   3.966  1.00  0.00     0.012 A 
HETATM   10  C   UNL     1      41.210 -16.265   4.129  1.00  0.00     0.016 A 
HETATM   11  C   UNL     1      40.679 -15.637   3.013  1.00  0.00     0.018 A 
HETATM   12  C   UNL     1      41.050 -16.062   1.732  1.00  0.00     0.034 A 
HETATM   13  C   UNL     1      41.968 -17.105   1.554  1.00  0.00     0.055 A 
HETATM   14  C   UNL     1      42.490 -17.794   2.667  1.00  0.00     0.152 A 
ENDROOT
BRANCH  12  15
HETATM   15  C   UNL     1      40.443 -15.349   0.568  1.00  0.00     0.252 C 
HETATM   16  O   UNL     1      39.415 -14.697   0.717  1.00  0.00    -0.268 OA
HETATM   17  N   UNL     1      41.070 -15.490  -0.650  1.00  0.00    -0.349 N 
HETATM   18  H   UNL     1      41.823 -16.150  -0.760  1.00  0.00     0.163 HD
BRANCH  17  19
HETATM   19  C   UNL     1      40.540 -14.888  -1.864  1.00  0.00     0.114 C 
HETATM   20  C   UNL     1      40.526 -15.899  -3.014  1.00  0.00     0.037 C 
BRANCH  19  21
HETATM   21  C   UNL     1      41.336 -13.639  -2.198  1.00  0.00    -0.033 A 
HETATM   22  C   UNL     1      41.364 -13.173  -3.522  1.00  0.00     0.009 A 
HETATM   23  C   UNL     1      42.064 -12.015  -3.852  1.00  0.00     0.003 A 
HETATM   24  C   UNL     1      42.734 -11.302  -2.859  1.00  0.00     0.037 A 
HETATM   25  C   UNL     1      42.712 -11.736  -1.533  1.00  0.00     0.068 A 
HETATM   26  C   UNL     1      42.019 -12.906  -1.208  1.00  0.00     0.046 A 
BRANCH  25  27
HETATM   27  O   UNL     1      43.396 -10.936  -0.660  1.00  0.00    -0.356 OA
HETATM   28  C   UNL     1      43.929  -9.723  -1.174  1.00  0.00     0.210 C 
ENDBRANCH  25  27
ENDBRANCH  19  21
ENDBRANCH  17  19
ENDBRANCH  12  15
BRANCH   1  29
HETATM   29  C   UNL     1      42.922 -20.071   1.930  1.00  0.00     0.244 C 
HETATM   30  C   UNL     1      43.999 -21.131   1.708  1.00  0.00     0.035 C 
ENDBRANCH   1  29
TORSDOF 5
ENDMDL
MODEL 6
REMARK VINA RESULT:      -8.3      2.856      3.274
REMARK  5 active torsions:
REMARK  status: ('A' for Active; 'I' for Inactive)
REMARK    1  A    between atoms: C_2  and  N_3 
REMARK    2  A    between atoms: C_14  and  C_17 
REMARK       I    between atoms: C_17  and  N_19 
REMARK    3  A    between atoms: N_19  and  C_20 
REMARK    4  A    between atoms: C_20  and  C_22 
REMARK    5  A    between atoms: C_26  and  O_27 
ROOT
HETATM    1  N   UNL     1      44.037 -18.906   5.196  1.00  0.00    -0.008 N 
HETATM    2  H   UNL     1      43.225 -19.004   5.793  1.00  0.00     0.293 HD
HETATM    3  C   UNL     1      44.318 -20.144   4.603  1.00  0.00     0.169 A 
HETATM    4  C   UNL     1      44.671 -21.390   5.181  1.00  0.00     0.154 A 
HETATM    5  N   UNL     1      44.915 -22.510   4.450  1.00  0.00    -0.271 NA
HETATM    6  C   UNL     1      44.806 -22.446   3.109  1.00  0.00     0.117 A 
HETATM    7  C   UNL     1      44.456 -21.304   2.429  1.00  0.00     0.034 A 
HETATM    8  C   UNL     1      44.206 -20.143   3.178  1.00  0.00     0.014 A 
HETATM    9  C   UNL     1      43.810 -18.788   2.842  1.00  0.00     0.012 A 
HETATM   10  C   UNL     1      43.530 -18.119   1.634  1.00  0.00     0.016 A 
HETATM   11  C   UNL     1      43.157 -16.784   1.658  1.00  0.00     0.018 A 
HETATM   12  C   UNL     1      43.047 -16.113   2.880  1.00  0.00     0.034 A 
HETATM   13  C   UNL     1      43.290 -16.772   4.092  1.00  0.00     0.055 A 
HETATM   14  C   UNL     1      43.716 -18.116   4.099  1.00  0.00     0.152 A 
ENDROOT
BRANCH  12  15
HETATM   15  C   UNL     1      42.645 -14.674   2.842  1.00  0.00     0.252 C 
HETATM   16  O   UNL     1      43.503 -13.798   2.820  1.00  0.00    -0.268 OA
HETATM   17  N   UNL     1      41.294 -14.400   2.863  1.00  0.00    -0.349 N 
HETATM   18  H   UNL     1      40.629 -15.139   3.029  1.00  0.00     0.163 HD
BRANCH  17  19
HETATM   19  C   UNL     1      40.785 -13.038   2.885  1.00  0.00     0.114 C 
HETATM   20  C   UNL     1      40.614 -12.541   4.323  1.00  0.00     0.037 C 
BRANCH  19  21
HETATM   21  C   UNL     1      39.494 -12.968   2.088  1.00  0.00    -0.033 A 
HETATM   22  C   UNL     1      38.964 -14.142   1.529  1.00  0.00     0.009 A 
HETATM   23  C   UNL     1      37.767 -14.111   0.817  1.00  0.00     0.003 A 
HETATM   24  C   UNL     1      37.080 -12.907   0.666  1.00  0.00     0.037 A 
HETATM   25  C   UNL     1      37.579 -11.729   1.222  1.00  0.00     0.068 A 
HETATM   26  C   UNL     1      38.786 -11.761   1.926  1.00  0.00     0.046 A 
BRANCH  25  27
HETATM   27  O   UNL     1      36.799 -10.625   1.012  1.00  0.00    -0.356 OA
HETATM   28  C   UNL     1      36.957  -9.947  -0.227  1.00  0.00     0.210 C 
ENDBRANCH  25  27
ENDBRANCH  19  21
ENDBRANCH  17  19
ENDBRANCH  12  15
BRANCH   1  29
HETATM   29  C   UNL     1      45.119 -18.385   6.068  1.00  0.00     0.244 C 
HETATM   30  C   UNL     1      44.757 -18.269   7.547  1.00  0.00     0.035 C 
ENDBRANCH   1  29
TORSDOF 5
ENDMDL
MODEL 7
REMARK VINA RESULT:      -8.3      2.060      3.052
REMARK  5 active torsions:
REMARK  status: ('A' for Active; 'I' for Inactive)
REMARK    1  A    between atoms: C_2  and  N_3 
REMARK    2  A    between atoms: C_14  and  C_17 
REMARK       I    between atoms: C_17  and  N_19 
REMARK    3  A    between atoms: N_19  and  C_20 
REMARK    4  A    between atoms: C_20  and  C_22 
REMARK    5  A    between atoms: C_26  and  O_27 
ROOT
HETATM    1  N   UNL     1      41.839 -17.424   4.814  1.00  0.00    -0.008 N 
HETATM    2  H   UNL     1      40.919 -17.798   5.010  1.00  0.00     0.293 HD
HETATM    3  C   UNL     1      42.800 -18.397   5.117  1.00  0.00     0.169 A 
HETATM    4  C   UNL     1      43.123 -19.031   6.345  1.00  0.00     0.154 A 
HETATM    5  N   UNL     1      44.101 -19.968   6.466  1.00  0.00    -0.271 NA
HETATM    6  C   UNL     1      44.793 -20.329   5.369  1.00  0.00     0.117 A 
HETATM    7  C   UNL     1      44.567 -19.802   4.121  1.00  0.00     0.034 A 
HETATM    8  C   UNL     1      43.561 -18.832   3.988  1.00  0.00     0.014 A 
HETATM    9  C   UNL     1      43.028 -18.072   2.872  1.00  0.00     0.012 A 
HETATM   10  C   UNL     1      43.320 -18.018   1.495  1.00  0.00     0.016 A 
HETATM   11  C   UNL     1      42.597 -17.168   0.672  1.00  0.00     0.018 A 
HETATM   12  C   UNL     1      41.574 -16.381   1.210  1.00  0.00     0.034 A 
HETATM   13  C   UNL     1      41.249 -16.448   2.571  1.00  0.00     0.055 A 
HETATM   14  C   UNL     1      41.996 -17.267   3.442  1.00  0.00     0.152 A 
ENDROOT
BRANCH  12  15
HETATM   15  C   UNL     1      40.832 -15.482   0.275  1.00  0.00     0.252 C 
HETATM   16  O   UNL     1      39.839 -14.876   0.664  1.00  0.00    -0.268 OA
HETATM   17  N   UNL     1      41.299 -15.402  -1.019  1.00  0.00    -0.349 N 
HETATM   18  H   UNL     1      42.024 -16.025  -1.337  1.00  0.00     0.163 HD
BRANCH  17  19
HETATM   19  C   UNL     1      40.626 -14.604  -2.032  1.00  0.00     0.114 C 
HETATM   20  C   UNL     1      40.410 -15.414  -3.313  1.00  0.00     0.037 C 
BRANCH  19  21
HETATM   21  C   UNL     1      41.415 -13.329  -2.278  1.00  0.00    -0.033 A 
HETATM   22  C   UNL     1      42.080 -12.712  -1.206  1.00  0.00     0.009 A 
HETATM   23  C   UNL     1      42.832 -11.558  -1.408  1.00  0.00     0.003 A 
HETATM   24  C   UNL     1      42.939 -11.013  -2.687  1.00  0.00     0.037 A 
HETATM   25  C   UNL     1      42.298 -11.613  -3.771  1.00  0.00     0.068 A 
HETATM   26  C   UNL     1      41.533 -12.765  -3.563  1.00  0.00     0.046 A 
BRANCH  25  27
HETATM   27  O   UNL     1      42.497 -10.985  -4.970  1.00  0.00    -0.356 OA
HETATM   28  C   UNL     1      42.443  -9.566  -4.974  1.00  0.00     0.210 C 
ENDBRANCH  25  27
ENDBRANCH  19  21
ENDBRANCH  17  19
ENDBRANCH  12  15
BRANCH   1  29
HETATM   29  C   UNL     1      41.951 -16.181   5.618  1.00  0.00     0.244 C 
HETATM   30  C   UNL     1      40.620 -15.584   6.071  1.00  0.00     0.035 C 
ENDBRANCH   1  29
TORSDOF 5
ENDMDL
MODEL 8
REMARK VINA RESULT:      -8.1      5.261      9.017
REMARK  5 active torsions:
REMARK  status: ('A' for Active; 'I' for Inactive)
REMARK    1  A    between atoms: C_2  and  N_3 
REMARK    2  A    between atoms: C_14  and  C_17 
REMARK       I    between atoms: C_17  and  N_19 
REMARK    3  A    between atoms: N_19  and  C_20 
REMARK    4  A    between atoms: C_20  and  C_22 
REMARK    5  A    between atoms: C_26  and  O_27 
ROOT
HETATM    1  N   UNL     1      42.102 -11.289   7.996  1.00  0.00    -0.008 N 
HETATM    2  H   UNL     1      41.227 -11.716   8.277  1.00  0.00     0.293 HD
HETATM    3  C   UNL     1      42.839 -10.966   9.143  1.00  0.00     0.169 A 
HETATM    4  C   UNL     1      42.546 -10.086  10.216  1.00  0.00     0.154 A 
HETATM    5  N   UNL     1      43.385  -9.885  11.267  1.00  0.00    -0.271 NA
HETATM    6  C   UNL     1      44.549 -10.560  11.306  1.00  0.00     0.117 A 
HETATM    7  C   UNL     1      44.943 -11.453  10.338  1.00  0.00     0.034 A 
HETATM    8  C   UNL     1      44.082 -11.663   9.248  1.00  0.00     0.014 A 
HETATM    9  C   UNL     1      44.131 -12.507   8.069  1.00  0.00     0.012 A 
HETATM   10  C   UNL     1      45.062 -13.436   7.566  1.00  0.00     0.016 A 
HETATM   11  C   UNL     1      44.796 -14.104   6.380  1.00  0.00     0.018 A 
HETATM   12  C   UNL     1      43.598 -13.863   5.699  1.00  0.00     0.034 A 
HETATM   13  C   UNL     1      42.647 -12.968   6.203  1.00  0.00     0.055 A 
HETATM   14  C   UNL     1      42.908 -12.238   7.381  1.00  0.00     0.152 A 
ENDROOT
BRANCH  12  15
HETATM   15  C   UNL     1      43.369 -14.611   4.425  1.00  0.00     0.252 C 
HETATM   16  O   UNL     1      43.627 -14.082   3.349  1.00  0.00    -0.268 OA
HETATM   17  N   UNL     1      42.838 -15.878   4.529  1.00  0.00    -0.349 N 
HETATM   18  H   UNL     1      42.504 -16.217   5.417  1.00  0.00     0.163 HD
BRANCH  17  19
HETATM   19  C   UNL     1      42.520 -16.678   3.357  1.00  0.00     0.114 C 
HETATM   20  C   UNL     1      41.005 -16.794   3.168  1.00  0.00     0.037 C 
BRANCH  19  21
HETATM   21  C   UNL     1      43.197 -18.033   3.471  1.00  0.00    -0.033 A 
HETATM   22  C   UNL     1      43.491 -18.757   2.304  1.00  0.00     0.009 A 
HETATM   23  C   UNL     1      44.135 -19.990   2.378  1.00  0.00     0.003 A 
HETATM   24  C   UNL     1      44.503 -20.508   3.620  1.00  0.00     0.037 A 
HETATM   25  C   UNL     1      44.234 -19.803   4.793  1.00  0.00     0.068 A 
HETATM   26  C   UNL     1      43.577 -18.571   4.716  1.00  0.00     0.046 A 
BRANCH  25  27
HETATM   27  O   UNL     1      44.663 -20.416   5.938  1.00  0.00    -0.356 OA
HETATM   28  C   UNL     1      43.664 -20.921   6.814  1.00  0.00     0.210 C 
ENDBRANCH  25  27
ENDBRANCH  19  21
ENDBRANCH  17  19
ENDBRANCH  12  15
BRANCH   1  29
HETATM   29  C   UNL     1      41.731 -10.122   7.157  1.00  0.00     0.244 C 
HETATM   30  C   UNL     1      40.270 -10.085   6.713  1.00  0.00     0.035 C 
ENDBRANCH   1  29
TORSDOF 5
ENDMDL
MODEL 9
REMARK VINA RESULT:      -8.1      2.151      2.387
REMARK  5 active torsions:
REMARK  status: ('A' for Active; 'I' for Inactive)
REMARK    1  A    between atoms: C_2  and  N_3 
REMARK    2  A    between atoms: C_14  and  C_17 
REMARK       I    between atoms: C_17  and  N_19 
REMARK    3  A    between atoms: N_19  and  C_20 
REMARK    4  A    between atoms: C_20  and  C_22 
REMARK    5  A    between atoms: C_26  and  O_27 
ROOT
HETATM    1  N   UNL     1      42.739 -18.045   5.273  1.00  0.00    -0.008 N 
HETATM    2  H   UNL     1      41.991 -18.376   5.870  1.00  0.00     0.293 HD
HETATM    3  C   UNL     1      43.515 -19.140   4.867  1.00  0.00     0.169 A 
HETATM    4  C   UNL     1      44.282 -20.064   5.622  1.00  0.00     0.154 A 
HETATM    5  N   UNL     1      44.987 -21.082   5.061  1.00  0.00    -0.271 NA
HETATM    6  C   UNL     1      44.949 -21.239   3.724  1.00  0.00     0.117 A 
HETATM    7  C   UNL     1      44.232 -20.422   2.884  1.00  0.00     0.034 A 
HETATM    8  C   UNL     1      43.504 -19.365   3.455  1.00  0.00     0.014 A 
HETATM    9  C   UNL     1      42.640 -18.328   2.924  1.00  0.00     0.012 A 
HETATM   10  C   UNL     1      42.203 -17.984   1.630  1.00  0.00     0.016 A 
HETATM   11  C   UNL     1      41.344 -16.909   1.457  1.00  0.00     0.018 A 
HETATM   12  C   UNL     1      40.904 -16.183   2.570  1.00  0.00     0.034 A 
HETATM   13  C   UNL     1      41.302 -16.534   3.866  1.00  0.00     0.055 A 
HETATM   14  C   UNL     1      42.212 -17.591   4.071  1.00  0.00     0.152 A 
ENDROOT
BRANCH  12  15
HETATM   15  C   UNL     1      39.981 -15.035   2.321  1.00  0.00     0.252 C 
HETATM   16  O   UNL     1      39.622 -14.324   3.254  1.00  0.00    -0.268 OA
HETATM   17  N   UNL     1      39.548 -14.847   1.026  1.00  0.00    -0.349 N 
HETATM   18  H   UNL     1      39.747 -15.538   0.320  1.00  0.00     0.163 HD
BRANCH  17  19
HETATM   19  C   UNL     1      38.606 -13.797   0.674  1.00  0.00     0.114 C 
HETATM   20  C   UNL     1      37.162 -14.273   0.860  1.00  0.00     0.037 C 
BRANCH  19  21
HETATM   21  C   UNL     1      38.883 -13.324  -0.742  1.00  0.00    -0.033 A 
HETATM   22  C   UNL     1      38.374 -12.086  -1.167  1.00  0.00     0.009 A 
HETATM   23  C   UNL     1      38.636 -11.615  -2.452  1.00  0.00     0.003 A 
HETATM   24  C   UNL     1      39.419 -12.371  -3.323  1.00  0.00     0.037 A 
HETATM   25  C   UNL     1      39.946 -13.599  -2.921  1.00  0.00     0.068 A 
HETATM   26  C   UNL     1      39.672 -14.075  -1.636  1.00  0.00     0.046 A 
BRANCH  25  27
HETATM   27  O   UNL     1      40.707 -14.229  -3.867  1.00  0.00    -0.356 OA
HETATM   28  C   UNL     1      41.535 -15.296  -3.426  1.00  0.00     0.210 C 
ENDBRANCH  25  27
ENDBRANCH  19  21
ENDBRANCH  17  19
ENDBRANCH  12  15
BRANCH   1  29
HETATM   29  C   UNL     1      43.478 -17.035   6.071  1.00  0.00     0.244 C 
HETATM   30  C   UNL     1      43.138 -17.016   7.560  1.00  0.00     0.035 C 
ENDBRANCH   1  29
TORSDOF 5
ENDMDL
MODEL 10
REMARK VINA RESULT:      -8.1      2.607      9.086
REMARK  5 active torsions:
REMARK  status: ('A' for Active; 'I' for Inactive)
REMARK    1  A    between atoms: C_2  and  N_3 
REMARK    2  A    between atoms: C_14  and  C_17 
REMARK       I    between atoms: C_17  and  N_19 
REMARK    3  A    between atoms: N_19  and  C_20 
REMARK    4  A    between atoms: C_20  and  C_22 
REMARK    5  A    between atoms: C_26  and  O_27 
ROOT
HETATM    1  N   UNL     1      40.607 -14.047  -2.182  1.00  0.00    -0.008 N 
HETATM    2  H   UNL     1      39.599 -13.963  -2.244  1.00  0.00     0.293 HD
HETATM    3  C   UNL     1      41.188 -12.822  -2.535  1.00  0.00     0.169 A 
HETATM    4  C   UNL     1      41.144 -12.089  -3.749  1.00  0.00     0.154 A 
HETATM    5  N   UNL     1      41.776 -10.898  -3.925  1.00  0.00    -0.271 NA
HETATM    6  C   UNL     1      42.469 -10.373  -2.897  1.00  0.00     0.117 A 
HETATM    7  C   UNL     1      42.576 -10.975  -1.667  1.00  0.00     0.034 A 
HETATM    8  C   UNL     1      41.929 -12.207  -1.478  1.00  0.00     0.014 A 
HETATM    9  C   UNL     1      41.797 -13.119  -0.358  1.00  0.00     0.012 A 
HETATM   10  C   UNL     1      42.271 -13.118   0.969  1.00  0.00     0.016 A 
HETATM   11  C   UNL     1      41.947 -14.167   1.816  1.00  0.00     0.018 A 
HETATM   12  C   UNL     1      41.140 -15.212   1.354  1.00  0.00     0.034 A 
HETATM   13  C   UNL     1      40.634 -15.211   0.048  1.00  0.00     0.055 A 
HETATM   14  C   UNL     1      40.983 -14.184  -0.852  1.00  0.00     0.152 A 
ENDROOT
BRANCH  12  15
HETATM   15  C   UNL     1      40.828 -16.316   2.311  1.00  0.00     0.252 C 
HETATM   16  O   UNL     1      39.876 -17.060   2.100  1.00  0.00    -0.268 OA
HETATM   17  N   UNL     1      41.631 -16.425   3.426  1.00  0.00    -0.349 N 
HETATM   18  H   UNL     1      42.307 -15.708   3.636  1.00  0.00     0.163 HD
BRANCH  17  19
HETATM   19  C   UNL     1      41.389 -17.424   4.454  1.00  0.00     0.114 C 
HETATM   20  C   UNL     1      41.022 -16.762   5.785  1.00  0.00     0.037 C 
BRANCH  19  21
HETATM   21  C   UNL     1      42.601 -18.332   4.572  1.00  0.00    -0.033 A 
HETATM   22  C   UNL     1      43.144 -18.596   5.839  1.00  0.00     0.009 A 
HETATM   23  C   UNL     1      44.239 -19.446   5.979  1.00  0.00     0.003 A 
HETATM   24  C   UNL     1      44.796 -20.052   4.853  1.00  0.00     0.037 A 
HETATM   25  C   UNL     1      44.267 -19.816   3.584  1.00  0.00     0.068 A 
HETATM   26  C   UNL     1      43.176 -18.953   3.446  1.00  0.00     0.046 A 
BRANCH  25  27
HETATM   27  O   UNL     1      44.898 -20.485   2.571  1.00  0.00    -0.356 OA
HETATM   28  C   UNL     1      44.258 -21.648   2.066  1.00  0.00     0.210 C 
ENDBRANCH  25  27
ENDBRANCH  19  21
ENDBRANCH  17  19
ENDBRANCH  12  15
BRANCH   1  29
HETATM   29  C   UNL     1      40.974 -15.177  -3.072  1.00  0.00     0.244 C 
HETATM   30  C   UNL     1      39.793 -15.959  -3.642  1.00  0.00     0.035 C 
ENDBRANCH   1  29
TORSDOF 5
ENDMDL
