MODEL 1
REMARK VINA RESULT:      -7.8      0.000      0.000
REMARK  7 active torsions:
REMARK  status: ('A' for Active; 'I' for Inactive)
REMARK    1  A    between atoms: C_10  and  C_11 
REMARK       I    between atoms: C_11  and  N_12 
REMARK    2  A    between atoms: N_12  and  C_13 
REMARK    3  A    between atoms: C_13  and  C_14 
REMARK    4  A    between atoms: C_14  and  O_15 
REMARK    5  A    between atoms: C_14  and  C_16 
REMARK    6  A    between atoms: C_16  and  O_17 
REMARK    7  A    between atoms: O_17  and  C_18 
ROOT
HETATM    1  C   UNL     1      41.892 -15.759   5.692  1.00  0.00     0.257 C 
HETATM    2  N   UNL     1      42.944 -16.099   6.511  1.00  0.00    -0.354 N 
HETATM    3  O   UNL     1      40.718 -15.961   5.985  1.00  0.00    -0.267 OA
HETATM    4  H   UNL     1      43.866 -15.983   6.091  1.00  0.00     0.162 HD
ENDROOT
BRANCH   2   5
HETATM    5  C   UNL     1      42.850 -16.997   7.657  1.00  0.00     0.156 C 
BRANCH   5   6
HETATM    6  C   UNL     1      44.120 -17.798   8.003  1.00  0.00     0.160 C 
BRANCH   6   7
HETATM    7  O   UNL     1      43.956 -18.422   9.287  1.00  0.00    -0.392 OA
HETATM    8  H   UNL     1      43.019 -18.272   9.543  1.00  0.00     0.210 HD
ENDBRANCH   6   7
BRANCH   6   9
HETATM    9  C   UNL     1      44.353 -18.917   6.974  1.00  0.00     0.209 C 
BRANCH   9  10
HETATM   10  O   UNL     1      44.606 -18.317   5.697  1.00  0.00    -0.349 OA
BRANCH  10  11
HETATM   11  C   UNL     1      44.421 -19.096   4.590  1.00  0.00     0.069 A 
HETATM   12  C   UNL     1      44.855 -20.417   4.729  1.00  0.00     0.038 A 
HETATM   13  C   UNL     1      44.729 -21.325   3.675  1.00  0.00     0.026 A 
HETATM   14  C   UNL     1      44.168 -20.905   2.472  1.00  0.00     0.034 A 
HETATM   15 CL   UNL     1      44.009 -22.014   1.166  1.00  0.00    -0.084 Cl
HETATM   16  C   UNL     1      43.736 -19.589   2.320  1.00  0.00     0.026 A 
HETATM   17  C   UNL     1      43.864 -18.682   3.378  1.00  0.00     0.038 A 
ENDBRANCH  10  11
ENDBRANCH   9  10
ENDBRANCH   6   9
ENDBRANCH   5   6
ENDBRANCH   2   5
BRANCH   1  18
HETATM   18  C   UNL     1      42.258 -15.141   4.434  1.00  0.00     0.098 A 
HETATM   19  C   UNL     1      41.887 -15.499   3.150  1.00  0.00     0.167 A 
HETATM   20  N   UNL     1      42.458 -14.543   2.300  1.00  0.00    -0.226 N 
HETATM   21  N   UNL     1      41.102 -16.519   2.672  1.00  0.00    -0.240 NA
HETATM   22  C   UNL     1      42.222 -14.582   0.931  1.00  0.00     0.128 A 
HETATM   23  N   UNL     1      43.198 -13.638   2.981  1.00  0.00    -0.178 NA
HETATM   24  C   UNL     1      41.444 -15.538   0.398  1.00  0.00    -0.027 A 
HETATM   25  C   UNL     1      41.087 -15.683  -1.038  1.00  0.00     0.051 C 
HETATM   26  C   UNL     1      40.903 -16.522   1.385  1.00  0.00     0.127 A 
HETATM   27  C   UNL     1      43.060 -13.995   4.259  1.00  0.00     0.160 A 
ENDBRANCH   1  18
TORSDOF 7
ENDMDL
MODEL 2
REMARK VINA RESULT:      -7.7      4.830      6.497
REMARK  7 active torsions:
REMARK  status: ('A' for Active; 'I' for Inactive)
REMARK    1  A    between atoms: C_10  and  C_11 
REMARK       I    between atoms: C_11  and  N_12 
REMARK    2  A    between atoms: N_12  and  C_13 
REMARK    3  A    between atoms: C_13  and  C_14 
REMARK    4  A    between atoms: C_14  and  O_15 
REMARK    5  A    between atoms: C_14  and  C_16 
REMARK    6  A    between atoms: C_16  and  O_17 
REMARK    7  A    between atoms: O_17  and  C_18 
ROOT
HETATM    1  C   UNL     1      45.144 -12.657   8.383  1.00  0.00     0.257 C 
HETATM    2  N   UNL     1      44.248 -13.514   7.788  1.00  0.00    -0.354 N 
HETATM    3  O   UNL     1      46.330 -12.606   8.079  1.00  0.00    -0.267 OA
HETATM    4  H   UNL     1      43.325 -13.534   8.220  1.00  0.00     0.162 HD
ENDROOT
BRANCH   2   5
HETATM    5  C   UNL     1      44.616 -14.663   6.966  1.00  0.00     0.156 C 
BRANCH   5   6
HETATM    6  C   UNL     1      43.720 -15.910   7.095  1.00  0.00     0.160 C 
BRANCH   6   7
HETATM    7  O   UNL     1      42.391 -15.592   6.650  1.00  0.00    -0.392 OA
HETATM    8  H   UNL     1      42.092 -16.364   6.121  1.00  0.00     0.210 HD
ENDBRANCH   6   7
BRANCH   6   9
HETATM    9  C   UNL     1      44.243 -17.049   6.204  1.00  0.00     0.209 C 
BRANCH   9  10
HETATM   10  O   UNL     1      43.282 -17.299   5.170  1.00  0.00    -0.349 OA
BRANCH  10  11
HETATM   11  C   UNL     1      43.532 -18.338   4.318  1.00  0.00     0.069 A 
HETATM   12  C   UNL     1      44.365 -19.331   4.841  1.00  0.00     0.038 A 
HETATM   13  C   UNL     1      44.706 -20.451   4.079  1.00  0.00     0.026 A 
HETATM   14  C   UNL     1      44.214 -20.573   2.783  1.00  0.00     0.034 A 
HETATM   15 CL   UNL     1      44.629 -21.948   1.834  1.00  0.00    -0.084 Cl
HETATM   16  C   UNL     1      43.387 -19.587   2.249  1.00  0.00     0.026 A 
HETATM   17  C   UNL     1      43.047 -18.466   3.015  1.00  0.00     0.038 A 
ENDBRANCH  10  11
ENDBRANCH   9  10
ENDBRANCH   6   9
ENDBRANCH   5   6
ENDBRANCH   2   5
BRANCH   1  18
HETATM   18  C   UNL     1      44.593 -11.804   9.416  1.00  0.00     0.098 A 
HETATM   19  C   UNL     1      43.503 -10.954   9.353  1.00  0.00     0.167 A 
HETATM   20  N   UNL     1      43.355 -10.414  10.636  1.00  0.00    -0.226 N 
HETATM   21  N   UNL     1      42.640 -10.645   8.331  1.00  0.00    -0.240 NA
HETATM   22  C   UNL     1      42.301  -9.557  10.927  1.00  0.00     0.128 A 
HETATM   23  N   UNL     1      44.319 -10.847  11.481  1.00  0.00    -0.178 NA
HETATM   24  C   UNL     1      41.405  -9.231   9.982  1.00  0.00    -0.027 A 
HETATM   25  C   UNL     1      40.219  -8.351  10.160  1.00  0.00     0.051 C 
HETATM   26  C   UNL     1      41.664  -9.840   8.642  1.00  0.00     0.127 A 
HETATM   27  C   UNL     1      45.046 -11.691  10.747  1.00  0.00     0.160 A 
ENDBRANCH   1  18
TORSDOF 7
ENDMDL
MODEL 3
REMARK VINA RESULT:      -7.6      2.021      2.881
REMARK  7 active torsions:
REMARK  status: ('A' for Active; 'I' for Inactive)
REMARK    1  A    between atoms: C_10  and  C_11 
REMARK       I    between atoms: C_11  and  N_12 
REMARK    2  A    between atoms: N_12  and  C_13 
REMARK    3  A    between atoms: C_13  and  C_14 
REMARK    4  A    between atoms: C_14  and  O_15 
REMARK    5  A    between atoms: C_14  and  C_16 
REMARK    6  A    between atoms: C_16  and  O_17 
REMARK    7  A    between atoms: O_17  and  C_18 
ROOT
HETATM    1  C   UNL     1      42.333 -13.816   3.486  1.00  0.00     0.257 C 
HETATM    2  N   UNL     1      41.390 -14.630   4.070  1.00  0.00    -0.354 N 
HETATM    3  O   UNL     1      43.331 -13.413   4.073  1.00  0.00    -0.267 OA
HETATM    4  H   UNL     1      40.556 -14.789   3.506  1.00  0.00     0.162 HD
ENDROOT
BRANCH   2   5
HETATM    5  C   UNL     1      41.271 -14.869   5.505  1.00  0.00     0.156 C 
BRANCH   5   6
HETATM    6  C   UNL     1      41.188 -16.343   5.947  1.00  0.00     0.160 C 
BRANCH   6   7
HETATM    7  O   UNL     1      39.888 -16.604   6.499  1.00  0.00    -0.392 OA
HETATM    8  H   UNL     1      39.420 -17.160   5.837  1.00  0.00     0.210 HD
ENDBRANCH   6   7
BRANCH   6   9
HETATM    9  C   UNL     1      41.375 -17.283   4.744  1.00  0.00     0.209 C 
BRANCH   9  10
HETATM   10  O   UNL     1      42.755 -17.258   4.355  1.00  0.00    -0.349 OA
BRANCH  10  11
HETATM   11  C   UNL     1      43.278 -18.403   3.825  1.00  0.00     0.069 A 
HETATM   12  C   UNL     1      42.793 -18.731   2.555  1.00  0.00     0.038 A 
HETATM   13  C   UNL     1      43.240 -19.878   1.894  1.00  0.00     0.026 A 
HETATM   14  C   UNL     1      44.176 -20.703   2.512  1.00  0.00     0.034 A 
HETATM   15 CL   UNL     1      44.733 -22.119   1.707  1.00  0.00    -0.084 Cl
HETATM   16  C   UNL     1      44.663 -20.389   3.779  1.00  0.00     0.026 A 
HETATM   17  C   UNL     1      44.212 -19.240   4.438  1.00  0.00     0.038 A 
ENDBRANCH  10  11
ENDBRANCH   9  10
ENDBRANCH   6   9
ENDBRANCH   5   6
ENDBRANCH   2   5
BRANCH   1  18
HETATM   18  C   UNL     1      42.070 -13.450   2.109  1.00  0.00     0.098 A 
HETATM   19  C   UNL     1      41.815 -14.272   1.025  1.00  0.00     0.167 A 
HETATM   20  N   UNL     1      41.564 -13.420  -0.058  1.00  0.00    -0.226 N 
HETATM   21  N   UNL     1      41.751 -15.638   0.905  1.00  0.00    -0.240 NA
HETATM   22  C   UNL     1      41.211 -13.937  -1.299  1.00  0.00     0.128 A 
HETATM   23  N   UNL     1      41.692 -12.117   0.283  1.00  0.00    -0.178 NA
HETATM   24  C   UNL     1      41.105 -15.262  -1.482  1.00  0.00    -0.027 A 
HETATM   25  C   UNL     1      40.712 -15.949  -2.741  1.00  0.00     0.051 C 
HETATM   26  C   UNL     1      41.415 -16.085  -0.272  1.00  0.00     0.127 A 
HETATM   27  C   UNL     1      41.979 -12.144   1.586  1.00  0.00     0.160 A 
ENDBRANCH   1  18
TORSDOF 7
ENDMDL
MODEL 4
REMARK VINA RESULT:      -7.3      2.281      3.509
REMARK  7 active torsions:
REMARK  status: ('A' for Active; 'I' for Inactive)
REMARK    1  A    between atoms: C_10  and  C_11 
REMARK       I    between atoms: C_11  and  N_12 
REMARK    2  A    between atoms: N_12  and  C_13 
REMARK    3  A    between atoms: C_13  and  C_14 
REMARK    4  A    between atoms: C_14  and  O_15 
REMARK    5  A    between atoms: C_14  and  C_16 
REMARK    6  A    between atoms: C_16  and  O_17 
REMARK    7  A    between atoms: O_17  and  C_18 
ROOT
HETATM    1  C   UNL     1      42.561 -14.333   2.785  1.00  0.00     0.257 C 
HETATM    2  N   UNL     1      41.815 -15.003   3.727  1.00  0.00    -0.354 N 
HETATM    3  O   UNL     1      43.579 -13.705   3.054  1.00  0.00    -0.267 OA
HETATM    4  H   UNL     1      40.933 -15.380   3.384  1.00  0.00     0.162 HD
ENDROOT
BRANCH   2   5
HETATM    5  C   UNL     1      41.936 -14.816   5.170  1.00  0.00     0.156 C 
BRANCH   5   6
HETATM    6  C   UNL     1      41.278 -15.892   6.055  1.00  0.00     0.160 C 
BRANCH   6   7
HETATM    7  O   UNL     1      39.853 -15.712   6.046  1.00  0.00    -0.392 OA
HETATM    8  H   UNL     1      39.689 -14.834   6.454  1.00  0.00     0.210 HD
ENDBRANCH   6   7
BRANCH   6   9
HETATM    9  C   UNL     1      41.568 -17.299   5.506  1.00  0.00     0.209 C 
BRANCH   9  10
HETATM   10  O   UNL     1      42.907 -17.322   4.994  1.00  0.00    -0.349 OA
BRANCH  10  11
HETATM   11  C   UNL     1      43.241 -18.347   4.155  1.00  0.00     0.069 A 
HETATM   12  C   UNL     1      44.162 -19.256   4.684  1.00  0.00     0.038 A 
HETATM   13  C   UNL     1      44.594 -20.352   3.934  1.00  0.00     0.026 A 
HETATM   14  C   UNL     1      44.103 -20.536   2.644  1.00  0.00     0.034 A 
HETATM   15 CL   UNL     1      44.630 -21.883   1.711  1.00  0.00    -0.084 Cl
HETATM   16  C   UNL     1      43.189 -19.634   2.104  1.00  0.00     0.026 A 
HETATM   17  C   UNL     1      42.758 -18.536   2.859  1.00  0.00     0.038 A 
ENDBRANCH  10  11
ENDBRANCH   9  10
ENDBRANCH   6   9
ENDBRANCH   5   6
ENDBRANCH   2   5
BRANCH   1  18
HETATM   18  C   UNL     1      42.060 -14.409   1.428  1.00  0.00     0.098 A 
HETATM   19  C   UNL     1      42.037 -13.427   0.454  1.00  0.00     0.167 A 
HETATM   20  N   UNL     1      41.510 -14.030  -0.695  1.00  0.00    -0.226 N 
HETATM   21  N   UNL     1      42.446 -12.116   0.463  1.00  0.00    -0.240 NA
HETATM   22  C   UNL     1      41.409 -13.320  -1.885  1.00  0.00     0.128 A 
HETATM   23  N   UNL     1      41.165 -15.320  -0.476  1.00  0.00    -0.178 NA
HETATM   24  C   UNL     1      41.814 -12.042  -1.955  1.00  0.00    -0.027 A 
HETATM   25  C   UNL     1      41.789 -11.175  -3.163  1.00  0.00     0.051 C 
HETATM   26  C   UNL     1      42.338 -11.484  -0.671  1.00  0.00     0.127 A 
HETATM   27  C   UNL     1      41.512 -15.542   0.793  1.00  0.00     0.160 A 
ENDBRANCH   1  18
TORSDOF 7
ENDMDL
MODEL 5
REMARK VINA RESULT:      -7.2      3.201      6.512
REMARK  7 active torsions:
REMARK  status: ('A' for Active; 'I' for Inactive)
REMARK    1  A    between atoms: C_10  and  C_11 
REMARK       I    between atoms: C_11  and  N_12 
REMARK    2  A    between atoms: N_12  and  C_13 
REMARK    3  A    between atoms: C_13  and  C_14 
REMARK    4  A    between atoms: C_14  and  O_15 
REMARK    5  A    between atoms: C_14  and  C_16 
REMARK    6  A    between atoms: C_16  and  O_17 
REMARK    7  A    between atoms: O_17  and  C_18 
ROOT
HETATM    1  C   UNL     1      43.299 -15.865   3.732  1.00  0.00     0.257 C 
HETATM    2  N   UNL     1      42.652 -15.877   4.947  1.00  0.00    -0.354 N 
HETATM    3  O   UNL     1      43.578 -14.835   3.129  1.00  0.00    -0.267 OA
HETATM    4  H   UNL     1      42.378 -16.802   5.275  1.00  0.00     0.162 HD
ENDROOT
BRANCH   2   5
HETATM    5  C   UNL     1      41.949 -14.736   5.526  1.00  0.00     0.156 C 
BRANCH   5   6
HETATM    6  C   UNL     1      40.410 -14.806   5.515  1.00  0.00     0.160 C 
BRANCH   6   7
HETATM    7  O   UNL     1      39.887 -13.974   6.564  1.00  0.00    -0.392 OA
HETATM    8  H   UNL     1      39.296 -14.551   7.096  1.00  0.00     0.210 HD
ENDBRANCH   6   7
BRANCH   6   9
HETATM    9  C   UNL     1      39.851 -14.274   4.185  1.00  0.00     0.209 C 
BRANCH   9  10
HETATM   10  O   UNL     1      40.127 -15.236   3.157  1.00  0.00    -0.349 OA
BRANCH  10  11
HETATM   11  C   UNL     1      39.890 -14.859   1.865  1.00  0.00     0.069 A 
HETATM   12  C   UNL     1      38.600 -14.377   1.628  1.00  0.00     0.038 A 
HETATM   13  C   UNL     1      38.218 -13.958   0.351  1.00  0.00     0.026 A 
HETATM   14  C   UNL     1      39.133 -14.028  -0.695  1.00  0.00     0.034 A 
HETATM   15 CL   UNL     1      38.673 -13.516  -2.272  1.00  0.00    -0.084 Cl
HETATM   16  C   UNL     1      40.420 -14.512  -0.472  1.00  0.00     0.026 A 
HETATM   17  C   UNL     1      40.800 -14.931   0.809  1.00  0.00     0.038 A 
ENDBRANCH  10  11
ENDBRANCH   9  10
ENDBRANCH   6   9
ENDBRANCH   5   6
ENDBRANCH   2   5
BRANCH   1  18
HETATM   18  C   UNL     1      43.631 -17.167   3.193  1.00  0.00     0.098 A 
HETATM   19  C   UNL     1      44.042 -18.306   3.864  1.00  0.00     0.167 A 
HETATM   20  N   UNL     1      44.169 -19.306   2.891  1.00  0.00    -0.226 N 
HETATM   21  N   UNL     1      44.275 -18.553   5.194  1.00  0.00    -0.240 NA
HETATM   22  C   UNL     1      44.513 -20.604   3.250  1.00  0.00     0.128 A 
HETATM   23  N   UNL     1      43.902 -18.840   1.649  1.00  0.00    -0.178 NA
HETATM   24  C   UNL     1      44.730 -20.922   4.535  1.00  0.00    -0.027 A 
HETATM   25  C   UNL     1      45.076 -22.269   5.062  1.00  0.00     0.051 C 
HETATM   26  C   UNL     1      44.593 -19.781   5.492  1.00  0.00     0.127 A 
HETATM   27  C   UNL     1      43.566 -17.563   1.842  1.00  0.00     0.160 A 
ENDBRANCH   1  18
TORSDOF 7
ENDMDL
MODEL 6
REMARK VINA RESULT:      -7.2      3.359      6.793
REMARK  7 active torsions:
REMARK  status: ('A' for Active; 'I' for Inactive)
REMARK    1  A    between atoms: C_10  and  C_11 
REMARK       I    between atoms: C_11  and  N_12 
REMARK    2  A    between atoms: N_12  and  C_13 
REMARK    3  A    between atoms: C_13  and  C_14 
REMARK    4  A    between atoms: C_14  and  O_15 
REMARK    5  A    between atoms: C_14  and  C_16 
REMARK    6  A    between atoms: C_16  and  O_17 
REMARK    7  A    between atoms: O_17  and  C_18 
ROOT
HETATM    1  C   UNL     1      42.949 -15.987   4.647  1.00  0.00     0.257 C 
HETATM    2  N   UNL     1      41.762 -15.950   3.953  1.00  0.00    -0.354 N 
HETATM    3  O   UNL     1      43.458 -14.999   5.164  1.00  0.00    -0.267 OA
HETATM    4  H   UNL     1      41.519 -16.818   3.476  1.00  0.00     0.162 HD
ENDROOT
BRANCH   2   5
HETATM    5  C   UNL     1      41.114 -14.732   3.477  1.00  0.00     0.156 C 
BRANCH   5   6
HETATM    6  C   UNL     1      41.633 -14.160   2.143  1.00  0.00     0.160 C 
BRANCH   6   7
HETATM    7  O   UNL     1      42.974 -13.677   2.319  1.00  0.00    -0.392 OA
HETATM    8  H   UNL     1      43.523 -14.469   2.509  1.00  0.00     0.210 HD
ENDBRANCH   6   7
BRANCH   6   9
HETATM    9  C   UNL     1      41.675 -15.254   1.063  1.00  0.00     0.209 C 
BRANCH   9  10
HETATM   10  O   UNL     1      41.864 -14.629  -0.214  1.00  0.00    -0.349 OA
BRANCH  10  11
HETATM   11  C   UNL     1      40.811 -14.647  -1.084  1.00  0.00     0.069 A 
HETATM   12  C   UNL     1      41.007 -15.441  -2.217  1.00  0.00     0.038 A 
HETATM   13  C   UNL     1      40.014 -15.550  -3.193  1.00  0.00     0.026 A 
HETATM   14  C   UNL     1      38.818 -14.856  -3.034  1.00  0.00     0.034 A 
HETATM   15 CL   UNL     1      37.587 -14.982  -4.230  1.00  0.00    -0.084 Cl
HETATM   16  C   UNL     1      38.613 -14.057  -1.910  1.00  0.00     0.026 A 
HETATM   17  C   UNL     1      39.611 -13.950  -0.935  1.00  0.00     0.038 A 
ENDBRANCH  10  11
ENDBRANCH   9  10
ENDBRANCH   6   9
ENDBRANCH   5   6
ENDBRANCH   2   5
BRANCH   1  18
HETATM   18  C   UNL     1      43.581 -17.288   4.726  1.00  0.00     0.098 A 
HETATM   19  C   UNL     1      43.536 -18.333   3.820  1.00  0.00     0.167 A 
HETATM   20  N   UNL     1      44.365 -19.335   4.339  1.00  0.00    -0.226 N 
HETATM   21  N   UNL     1      42.890 -18.476   2.616  1.00  0.00    -0.240 NA
HETATM   22  C   UNL     1      44.587 -20.509   3.629  1.00  0.00     0.128 A 
HETATM   23  N   UNL     1      44.889 -18.987   5.537  1.00  0.00    -0.178 NA
HETATM   24  C   UNL     1      44.008 -20.705   2.434  1.00  0.00    -0.027 A 
HETATM   25  C   UNL     1      44.177 -21.896   1.559  1.00  0.00     0.051 C 
HETATM   26  C   UNL     1      43.123 -19.589   1.980  1.00  0.00     0.127 A 
HETATM   27  C   UNL     1      44.427 -17.755   5.753  1.00  0.00     0.160 A 
ENDBRANCH   1  18
TORSDOF 7
ENDMDL
MODEL 7
REMARK VINA RESULT:      -7.2      1.130      2.115
REMARK  7 active torsions:
REMARK  status: ('A' for Active; 'I' for Inactive)
REMARK    1  A    between atoms: C_10  and  C_11 
REMARK       I    between atoms: C_11  and  N_12 
REMARK    2  A    between atoms: N_12  and  C_13 
REMARK    3  A    between atoms: C_13  and  C_14 
REMARK    4  A    between atoms: C_14  and  O_15 
REMARK    5  A    between atoms: C_14  and  C_16 
REMARK    6  A    between atoms: C_16  and  O_17 
REMARK    7  A    between atoms: O_17  and  C_18 
ROOT
HETATM    1  C   UNL     1      41.993 -15.379   5.076  1.00  0.00     0.257 C 
HETATM    2  N   UNL     1      43.273 -15.781   5.381  1.00  0.00    -0.354 N 
HETATM    3  O   UNL     1      41.251 -14.826   5.880  1.00  0.00    -0.267 OA
HETATM    4  H   UNL     1      43.731 -16.332   4.657  1.00  0.00     0.162 HD
ENDROOT
BRANCH   2   5
HETATM    5  C   UNL     1      43.809 -15.894   6.734  1.00  0.00     0.156 C 
BRANCH   5   6
HETATM    6  C   UNL     1      43.349 -17.117   7.551  1.00  0.00     0.160 C 
BRANCH   6   7
HETATM    7  O   UNL     1      41.950 -17.346   7.321  1.00  0.00    -0.392 OA
HETATM    8  H   UNL     1      41.900 -17.978   6.571  1.00  0.00     0.210 HD
ENDBRANCH   6   7
BRANCH   6   9
HETATM    9  C   UNL     1      44.102 -18.381   7.107  1.00  0.00     0.209 C 
BRANCH   9  10
HETATM   10  O   UNL     1      44.713 -18.127   5.835  1.00  0.00    -0.349 OA
BRANCH  10  11
HETATM   11  C   UNL     1      44.601 -19.096   4.879  1.00  0.00     0.069 A 
HETATM   12  C   UNL     1      44.077 -18.653   3.661  1.00  0.00     0.038 A 
HETATM   13  C   UNL     1      43.905 -19.538   2.594  1.00  0.00     0.026 A 
HETATM   14  C   UNL     1      44.256 -20.876   2.750  1.00  0.00     0.034 A 
HETATM   15 CL   UNL     1      44.047 -21.976   1.443  1.00  0.00    -0.084 Cl
HETATM   16  C   UNL     1      44.774 -21.330   3.961  1.00  0.00     0.026 A 
HETATM   17  C   UNL     1      44.945 -20.440   5.028  1.00  0.00     0.038 A 
ENDBRANCH  10  11
ENDBRANCH   9  10
ENDBRANCH   6   9
ENDBRANCH   5   6
ENDBRANCH   2   5
BRANCH   1  18
HETATM   18  C   UNL     1      41.561 -15.658   3.722  1.00  0.00     0.098 A 
HETATM   19  C   UNL     1      41.632 -14.849   2.602  1.00  0.00     0.167 A 
HETATM   20  N   UNL     1      41.142 -15.614   1.537  1.00  0.00    -0.226 N 
HETATM   21  N   UNL     1      42.097 -13.569   2.424  1.00  0.00    -0.240 NA
HETATM   22  C   UNL     1      41.134 -15.105   0.244  1.00  0.00     0.128 A 
HETATM   23  N   UNL     1      40.729 -16.838   1.941  1.00  0.00    -0.178 NA
HETATM   24  C   UNL     1      41.597 -13.870  -0.008  1.00  0.00    -0.027 A 
HETATM   25  C   UNL     1      41.674 -13.213  -1.339  1.00  0.00     0.051 C 
HETATM   26  C   UNL     1      42.076 -13.128   1.198  1.00  0.00     0.127 A 
HETATM   27  C   UNL     1      40.999 -16.861   3.247  1.00  0.00     0.160 A 
ENDBRANCH   1  18
TORSDOF 7
ENDMDL
MODEL 8
REMARK VINA RESULT:      -7.1      2.621      5.220
REMARK  7 active torsions:
REMARK  status: ('A' for Active; 'I' for Inactive)
REMARK    1  A    between atoms: C_10  and  C_11 
REMARK       I    between atoms: C_11  and  N_12 
REMARK    2  A    between atoms: N_12  and  C_13 
REMARK    3  A    between atoms: C_13  and  C_14 
REMARK    4  A    between atoms: C_14  and  O_15 
REMARK    5  A    between atoms: C_14  and  C_16 
REMARK    6  A    between atoms: C_16  and  O_17 
REMARK    7  A    between atoms: O_17  and  C_18 
ROOT
HETATM    1  C   UNL     1      41.446 -14.149   4.897  1.00  0.00     0.257 C 
HETATM    2  N   UNL     1      40.654 -14.885   4.045  1.00  0.00    -0.354 N 
HETATM    3  O   UNL     1      41.293 -12.947   5.089  1.00  0.00    -0.267 OA
HETATM    4  H   UNL     1      40.969 -15.842   3.891  1.00  0.00     0.162 HD
ENDROOT
BRANCH   2   5
HETATM    5  C   UNL     1      39.756 -14.317   3.045  1.00  0.00     0.156 C 
BRANCH   5   6
HETATM    6  C   UNL     1      39.345 -15.248   1.888  1.00  0.00     0.160 C 
BRANCH   6   7
HETATM    7  O   UNL     1      38.148 -14.747   1.273  1.00  0.00    -0.392 OA
HETATM    8  H   UNL     1      37.912 -15.394   0.573  1.00  0.00     0.210 HD
ENDBRANCH   6   7
BRANCH   6   9
HETATM    9  C   UNL     1      40.438 -15.285   0.807  1.00  0.00     0.209 C 
BRANCH   9  10
HETATM   10  O   UNL     1      41.716 -15.364   1.451  1.00  0.00    -0.349 OA
BRANCH  10  11
HETATM   11  C   UNL     1      42.255 -16.608   1.626  1.00  0.00     0.069 A 
HETATM   12  C   UNL     1      43.615 -16.612   1.948  1.00  0.00     0.038 A 
HETATM   13  C   UNL     1      44.297 -17.814   2.153  1.00  0.00     0.026 A 
HETATM   14  C   UNL     1      43.612 -19.019   2.030  1.00  0.00     0.034 A 
HETATM   15 CL   UNL     1      44.441 -20.506   2.279  1.00  0.00    -0.084 Cl
HETATM   16  C   UNL     1      42.257 -19.028   1.705  1.00  0.00     0.026 A 
HETATM   17  C   UNL     1      41.577 -17.821   1.500  1.00  0.00     0.038 A 
ENDBRANCH  10  11
ENDBRANCH   9  10
ENDBRANCH   6   9
ENDBRANCH   5   6
ENDBRANCH   2   5
BRANCH   1  18
HETATM   18  C   UNL     1      42.498 -14.889   5.562  1.00  0.00     0.098 A 
HETATM   19  C   UNL     1      42.685 -16.259   5.633  1.00  0.00     0.167 A 
HETATM   20  N   UNL     1      43.882 -16.452   6.335  1.00  0.00    -0.226 N 
HETATM   21  N   UNL     1      41.958 -17.311   5.135  1.00  0.00    -0.240 NA
HETATM   22  C   UNL     1      44.391 -17.730   6.529  1.00  0.00     0.128 A 
HETATM   23  N   UNL     1      44.424 -15.281   6.742  1.00  0.00    -0.178 NA
HETATM   24  C   UNL     1      43.745 -18.803   6.047  1.00  0.00    -0.027 A 
HETATM   25  C   UNL     1      44.186 -20.219   6.156  1.00  0.00     0.051 C 
HETATM   26  C   UNL     1      42.468 -18.493   5.334  1.00  0.00     0.127 A 
HETATM   27  C   UNL     1      43.598 -14.351   6.260  1.00  0.00     0.160 A 
ENDBRANCH   1  18
TORSDOF 7
ENDMDL
MODEL 9
REMARK VINA RESULT:      -6.9      2.059      2.148
REMARK  7 active torsions:
REMARK  status: ('A' for Active; 'I' for Inactive)
REMARK    1  A    between atoms: C_10  and  C_11 
REMARK       I    between atoms: C_11  and  N_12 
REMARK    2  A    between atoms: N_12  and  C_13 
REMARK    3  A    between atoms: C_13  and  C_14 
REMARK    4  A    between atoms: C_14  and  O_15 
REMARK    5  A    between atoms: C_14  and  C_16 
REMARK    6  A    between atoms: C_16  and  O_17 
REMARK    7  A    between atoms: O_17  and  C_18 
ROOT
HETATM    1  C   UNL     1      42.886 -14.260   5.398  1.00  0.00     0.257 C 
HETATM    2  N   UNL     1      42.738 -15.191   6.401  1.00  0.00    -0.354 N 
HETATM    3  O   UNL     1      43.977 -13.879   4.989  1.00  0.00    -0.267 OA
HETATM    4  H   UNL     1      41.780 -15.324   6.721  1.00  0.00     0.162 HD
ENDROOT
BRANCH   2   5
HETATM    5  C   UNL     1      43.802 -15.613   7.307  1.00  0.00     0.156 C 
BRANCH   5   6
HETATM    6  C   UNL     1      43.936 -17.130   7.542  1.00  0.00     0.160 C 
BRANCH   6   7
HETATM    7  O   UNL     1      42.630 -17.725   7.582  1.00  0.00    -0.392 OA
HETATM    8  H   UNL     1      42.031 -17.037   7.947  1.00  0.00     0.210 HD
ENDBRANCH   6   7
BRANCH   6   9
HETATM    9  C   UNL     1      44.709 -17.792   6.388  1.00  0.00     0.209 C 
BRANCH   9  10
HETATM   10  O   UNL     1      44.011 -17.531   5.163  1.00  0.00    -0.349 OA
BRANCH  10  11
HETATM   11  C   UNL     1      43.999 -18.524   4.224  1.00  0.00     0.069 A 
HETATM   12  C   UNL     1      44.657 -19.696   4.609  1.00  0.00     0.038 A 
HETATM   13  C   UNL     1      44.725 -20.793   3.747  1.00  0.00     0.026 A 
HETATM   14  C   UNL     1      44.133 -20.713   2.489  1.00  0.00     0.034 A 
HETATM   15 CL   UNL     1      44.212 -22.057   1.418  1.00  0.00    -0.084 Cl
HETATM   16  C   UNL     1      43.480 -19.548   2.092  1.00  0.00     0.026 A 
HETATM   17  C   UNL     1      43.414 -18.451   2.959  1.00  0.00     0.038 A 
ENDBRANCH  10  11
ENDBRANCH   9  10
ENDBRANCH   6   9
ENDBRANCH   5   6
ENDBRANCH   2   5
BRANCH   1  18
HETATM   18  C   UNL     1      41.651 -13.740   4.847  1.00  0.00     0.098 A 
HETATM   19  C   UNL     1      41.164 -13.843   3.556  1.00  0.00     0.167 A 
HETATM   20  N   UNL     1      39.906 -13.228   3.565  1.00  0.00    -0.226 N 
HETATM   21  N   UNL     1      41.680 -14.428   2.426  1.00  0.00    -0.240 NA
HETATM   22  C   UNL     1      39.117 -13.214   2.421  1.00  0.00     0.128 A 
HETATM   23  N   UNL     1      39.604 -12.711   4.778  1.00  0.00    -0.178 NA
HETATM   24  C   UNL     1      39.547 -13.789   1.287  1.00  0.00    -0.027 A 
HETATM   25  C   UNL     1      38.800 -13.872   0.003  1.00  0.00     0.051 C 
HETATM   26  C   UNL     1      40.910 -14.396   1.375  1.00  0.00     0.127 A 
HETATM   27  C   UNL     1      40.647 -13.037   5.543  1.00  0.00     0.160 A 
ENDBRANCH   1  18
TORSDOF 7
ENDMDL
MODEL 10
REMARK VINA RESULT:      -6.7      4.565      6.527
REMARK  7 active torsions:
REMARK  status: ('A' for Active; 'I' for Inactive)
REMARK    1  A    between atoms: C_10  and  C_11 
REMARK       I    between atoms: C_11  and  N_12 
REMARK    2  A    between atoms: N_12  and  C_13 
REMARK    3  A    between atoms: C_13  and  C_14 
REMARK    4  A    between atoms: C_14  and  O_15 
REMARK    5  A    between atoms: C_14  and  C_16 
REMARK    6  A    between atoms: C_16  and  O_17 
REMARK    7  A    between atoms: O_17  and  C_18 
ROOT
HETATM    1  C   UNL     1      41.263 -11.795   6.198  1.00  0.00     0.257 C 
HETATM    2  N   UNL     1      41.121 -13.155   6.045  1.00  0.00    -0.354 N 
HETATM    3  O   UNL     1      41.674 -11.058   5.309  1.00  0.00    -0.267 OA
HETATM    4  H   UNL     1      40.884 -13.658   6.900  1.00  0.00     0.162 HD
ENDROOT
BRANCH   2   5
HETATM    5  C   UNL     1      41.709 -13.937   4.962  1.00  0.00     0.156 C 
BRANCH   5   6
HETATM    6  C   UNL     1      42.896 -14.844   5.341  1.00  0.00     0.160 C 
BRANCH   6   7
HETATM    7  O   UNL     1      42.993 -14.932   6.771  1.00  0.00    -0.392 OA
HETATM    8  H   UNL     1      43.719 -15.568   6.954  1.00  0.00     0.210 HD
ENDBRANCH   6   7
BRANCH   6   9
HETATM    9  C   UNL     1      42.684 -16.269   4.804  1.00  0.00     0.209 C 
BRANCH   9  10
HETATM   10  O   UNL     1      43.774 -17.090   5.245  1.00  0.00    -0.349 OA
BRANCH  10  11
HETATM   11  C   UNL     1      44.016 -18.240   4.548  1.00  0.00     0.069 A 
HETATM   12  C   UNL     1      43.457 -18.271   3.267  1.00  0.00     0.038 A 
HETATM   13  C   UNL     1      43.623 -19.387   2.443  1.00  0.00     0.026 A 
HETATM   14  C   UNL     1      44.350 -20.479   2.907  1.00  0.00     0.034 A 
HETATM   15 CL   UNL     1      44.560 -21.859   1.900  1.00  0.00    -0.084 Cl
HETATM   16  C   UNL     1      44.907 -20.461   4.184  1.00  0.00     0.026 A 
HETATM   17  C   UNL     1      44.739 -19.342   5.007  1.00  0.00     0.038 A 
ENDBRANCH  10  11
ENDBRANCH   9  10
ENDBRANCH   6   9
ENDBRANCH   5   6
ENDBRANCH   2   5
BRANCH   1  18
HETATM   18  C   UNL     1      40.897 -11.275   7.499  1.00  0.00     0.098 A 
HETATM   19  C   UNL     1      41.715 -10.941   8.563  1.00  0.00     0.167 A 
HETATM   20  N   UNL     1      40.872 -10.427   9.556  1.00  0.00    -0.226 N 
HETATM   21  N   UNL     1      43.076 -11.010   8.730  1.00  0.00    -0.240 NA
HETATM   22  C   UNL     1      41.396  -9.938  10.747  1.00  0.00     0.128 A 
HETATM   23  N   UNL     1      39.572 -10.464   9.185  1.00  0.00    -0.178 NA
HETATM   24  C   UNL     1      42.720  -9.950  10.967  1.00  0.00    -0.027 A 
HETATM   25  C   UNL     1      43.417  -9.438  12.177  1.00  0.00     0.051 C 
HETATM   26  C   UNL     1      43.530 -10.540   9.857  1.00  0.00     0.127 A 
HETATM   27  C   UNL     1      39.598 -10.958   7.946  1.00  0.00     0.160 A 
ENDBRANCH   1  18
TORSDOF 7
ENDMDL
