MODEL 1
REMARK VINA RESULT:      -8.4      0.000      0.000
REMARK  6 active torsions:
REMARK  status: ('A' for Active; 'I' for Inactive)
REMARK    1  A    between atoms: C_3  and  N_4 
REMARK       I    between atoms: N_4  and  C_5 
REMARK    2  A    between atoms: C_5  and  C_6 
REMARK    3  A    between atoms: C_6  and  C_7 
REMARK    4  A    between atoms: C_7  and  N_8 
REMARK    5  A    between atoms: C_13  and  C_14 
REMARK    6  A    between atoms: C_17  and  O_18 
ROOT
HETATM    1  N   UNL     1      41.285 -14.487   0.877  1.00  0.00    -0.305 N 
HETATM    2  C   UNL     1      42.100 -13.696   1.654  1.00  0.00     0.196 A 
HETATM    3  S   UNL     1      42.820 -14.012   3.110  1.00  0.00    -0.039 SA
HETATM    4  N   UNL     1      42.265 -12.508   0.965  1.00  0.00    -0.251 N 
HETATM    5  N   UNL     1      41.576 -12.537  -0.206  1.00  0.00    -0.153 NA
HETATM    6  C   UNL     1      40.999 -13.706  -0.217  1.00  0.00     0.162 A 
HETATM    7  H   UNL     1      42.814 -11.705   1.249  1.00  0.00     0.191 HD
ENDROOT
BRANCH   1   8
HETATM    8  C   UNL     1      40.891 -15.877   1.151  1.00  0.00     0.142 C 
BRANCH   8   9
HETATM    9  C   UNL     1      41.729 -16.892   0.384  1.00  0.00     0.123 C 
BRANCH   9  10
HETATM   10  C   UNL     1      42.882 -17.462   1.184  1.00  0.00     0.223 C 
HETATM   11  N   UNL     1      42.560 -18.589   1.914  1.00  0.00    -0.327 N 
HETATM   12  H   UNL     1      41.874 -19.207   1.495  1.00  0.00     0.169 HD
HETATM   13  O   UNL     1      43.979 -16.911   1.160  1.00  0.00    -0.273 OA
BRANCH  11  14
HETATM   14  C   UNL     1      43.377 -19.177   2.909  1.00  0.00     0.042 A 
HETATM   15  C   UNL     1      43.961 -20.455   2.809  1.00  0.00    -0.035 A 
HETATM   16  C   UNL     1      43.860 -21.341   1.596  1.00  0.00     0.050 C 
HETATM   17  C   UNL     1      44.734 -20.937   3.886  1.00  0.00     0.010 A 
HETATM   18  C   UNL     1      44.974 -20.152   5.012  1.00  0.00     0.020 A 
HETATM   19  C   UNL     1      44.447 -18.870   5.072  1.00  0.00     0.013 A 
HETATM   20  C   UNL     1      43.664 -18.379   4.028  1.00  0.00     0.049 A 
HETATM   21 BR   UNL     1      44.780 -17.787   6.584  1.00  0.00    -0.051 Br
ENDBRANCH  11  14
ENDBRANCH   9  10
ENDBRANCH   8   9
ENDBRANCH   1   8
BRANCH   6  22
HETATM   22  C   UNL     1      40.153 -14.144  -1.341  1.00  0.00     0.012 A 
HETATM   23  C   UNL     1      38.783 -13.875  -1.275  1.00  0.00     0.018 A 
HETATM   24  C   UNL     1      37.942 -14.290  -2.310  1.00  0.00     0.037 A 
HETATM   25  C   UNL     1      38.455 -14.980  -3.411  1.00  0.00     0.068 A 
HETATM   26  C   UNL     1      39.819 -15.272  -3.460  1.00  0.00     0.037 A 
HETATM   27  C   UNL     1      40.666 -14.867  -2.420  1.00  0.00     0.018 A 
BRANCH  25  28
HETATM   28  O   UNL     1      37.524 -15.325  -4.350  1.00  0.00    -0.356 OA
HETATM   29  C   UNL     1      36.439 -14.427  -4.547  1.00  0.00     0.210 C 
ENDBRANCH  25  28
ENDBRANCH   6  22
TORSDOF 6
ENDMDL
MODEL 2
REMARK VINA RESULT:      -8.2      3.162      7.323
REMARK  6 active torsions:
REMARK  status: ('A' for Active; 'I' for Inactive)
REMARK    1  A    between atoms: C_3  and  N_4 
REMARK       I    between atoms: N_4  and  C_5 
REMARK    2  A    between atoms: C_5  and  C_6 
REMARK    3  A    between atoms: C_6  and  C_7 
REMARK    4  A    between atoms: C_7  and  N_8 
REMARK    5  A    between atoms: C_13  and  C_14 
REMARK    6  A    between atoms: C_17  and  O_18 
ROOT
HETATM    1  N   UNL     1      41.521 -14.564   3.172  1.00  0.00    -0.305 N 
HETATM    2  C   UNL     1      41.562 -13.190   3.218  1.00  0.00     0.196 A 
HETATM    3  S   UNL     1      40.330 -12.087   3.311  1.00  0.00    -0.039 SA
HETATM    4  N   UNL     1      42.899 -12.837   3.203  1.00  0.00    -0.251 N 
HETATM    5  N   UNL     1      43.683 -13.946   3.144  1.00  0.00    -0.153 NA
HETATM    6  C   UNL     1      42.840 -14.940   3.109  1.00  0.00     0.162 A 
HETATM    7  H   UNL     1      43.288 -11.902   3.236  1.00  0.00     0.191 HD
ENDROOT
BRANCH   1   8
HETATM    8  C   UNL     1      40.319 -15.409   3.249  1.00  0.00     0.142 C 
BRANCH   8   9
HETATM    9  C   UNL     1      39.978 -16.078   1.924  1.00  0.00     0.123 C 
BRANCH   9  10
HETATM   10  C   UNL     1      39.977 -15.129   0.743  1.00  0.00     0.223 C 
HETATM   11  N   UNL     1      41.018 -15.328  -0.142  1.00  0.00    -0.327 N 
HETATM   12  H   UNL     1      41.323 -16.289  -0.258  1.00  0.00     0.169 HD
HETATM   13  O   UNL     1      39.109 -14.265   0.649  1.00  0.00    -0.273 OA
BRANCH  11  14
HETATM   14  C   UNL     1      41.376 -14.449  -1.191  1.00  0.00     0.042 A 
HETATM   15  C   UNL     1      41.140 -14.698  -2.558  1.00  0.00    -0.035 A 
HETATM   16  C   UNL     1      40.406 -15.901  -3.086  1.00  0.00     0.050 C 
HETATM   17  C   UNL     1      41.572 -13.749  -3.508  1.00  0.00     0.010 A 
HETATM   18  C   UNL     1      42.171 -12.554  -3.115  1.00  0.00     0.020 A 
HETATM   19  C   UNL     1      42.339 -12.290  -1.763  1.00  0.00     0.013 A 
HETATM   20  C   UNL     1      41.938 -13.221  -0.806  1.00  0.00     0.049 A 
HETATM   21 BR   UNL     1      43.132 -10.663  -1.216  1.00  0.00    -0.051 Br
ENDBRANCH  11  14
ENDBRANCH   9  10
ENDBRANCH   8   9
ENDBRANCH   1   8
BRANCH   6  22
HETATM   22  C   UNL     1      43.294 -16.341   3.053  1.00  0.00     0.012 A 
HETATM   23  C   UNL     1      43.606 -16.880   1.801  1.00  0.00     0.018 A 
HETATM   24  C   UNL     1      44.020 -18.210   1.701  1.00  0.00     0.037 A 
HETATM   25  C   UNL     1      44.122 -19.012   2.839  1.00  0.00     0.068 A 
HETATM   26  C   UNL     1      43.783 -18.479   4.084  1.00  0.00     0.037 A 
HETATM   27  C   UNL     1      43.356 -17.148   4.190  1.00  0.00     0.018 A 
BRANCH  25  28
HETATM   28  O   UNL     1      44.541 -20.291   2.599  1.00  0.00    -0.356 OA
HETATM   29  C   UNL     1      43.675 -21.123   1.836  1.00  0.00     0.210 C 
ENDBRANCH  25  28
ENDBRANCH   6  22
TORSDOF 6
ENDMDL
MODEL 3
REMARK VINA RESULT:      -8.1      3.315      5.597
REMARK  6 active torsions:
REMARK  status: ('A' for Active; 'I' for Inactive)
REMARK    1  A    between atoms: C_3  and  N_4 
REMARK       I    between atoms: N_4  and  C_5 
REMARK    2  A    between atoms: C_5  and  C_6 
REMARK    3  A    between atoms: C_6  and  C_7 
REMARK    4  A    between atoms: C_7  and  N_8 
REMARK    5  A    between atoms: C_13  and  C_14 
REMARK    6  A    between atoms: C_17  and  O_18 
ROOT
HETATM    1  N   UNL     1      40.835 -14.881   1.103  1.00  0.00    -0.305 N 
HETATM    2  C   UNL     1      40.086 -14.180   0.187  1.00  0.00     0.196 A 
HETATM    3  S   UNL     1      39.199 -12.794   0.369  1.00  0.00    -0.039 SA
HETATM    4  N   UNL     1      40.221 -14.844  -1.018  1.00  0.00    -0.251 N 
HETATM    5  N   UNL     1      41.021 -15.933  -0.875  1.00  0.00    -0.153 NA
HETATM    6  C   UNL     1      41.349 -15.934   0.387  1.00  0.00     0.162 A 
HETATM    7  H   UNL     1      39.807 -14.592  -1.908  1.00  0.00     0.191 HD
ENDROOT
BRANCH   1   8
HETATM    8  C   UNL     1      41.070 -14.515   2.509  1.00  0.00     0.142 C 
BRANCH   8   9
HETATM    9  C   UNL     1      40.244 -15.344   3.483  1.00  0.00     0.123 C 
BRANCH   9  10
HETATM   10  C   UNL     1      41.005 -15.771   4.721  1.00  0.00     0.223 C 
HETATM   11  N   UNL     1      42.303 -16.174   4.476  1.00  0.00    -0.327 N 
HETATM   12  H   UNL     1      42.781 -15.691   3.722  1.00  0.00     0.169 HD
HETATM   13  O   UNL     1      40.453 -15.757   5.818  1.00  0.00    -0.273 OA
BRANCH  11  14
HETATM   14  C   UNL     1      43.145 -16.826   5.406  1.00  0.00     0.042 A 
HETATM   15  C   UNL     1      43.986 -16.164   6.323  1.00  0.00    -0.035 A 
HETATM   16  C   UNL     1      44.047 -14.670   6.490  1.00  0.00     0.050 C 
HETATM   17  C   UNL     1      44.797 -16.934   7.182  1.00  0.00     0.010 A 
HETATM   18  C   UNL     1      44.738 -18.326   7.177  1.00  0.00     0.020 A 
HETATM   19  C   UNL     1      43.859 -18.966   6.315  1.00  0.00     0.013 A 
HETATM   20  C   UNL     1      43.060 -18.227   5.444  1.00  0.00     0.049 A 
HETATM   21 BR   UNL     1      43.753 -20.854   6.313  1.00  0.00    -0.051 Br
ENDBRANCH  11  14
ENDBRANCH   9  10
ENDBRANCH   8   9
ENDBRANCH   1   8
BRANCH   6  22
HETATM   22  C   UNL     1      42.234 -16.963   0.958  1.00  0.00     0.012 A 
HETATM   23  C   UNL     1      41.655 -18.159   1.394  1.00  0.00     0.018 A 
HETATM   24  C   UNL     1      42.455 -19.154   1.960  1.00  0.00     0.037 A 
HETATM   25  C   UNL     1      43.831 -18.965   2.103  1.00  0.00     0.068 A 
HETATM   26  C   UNL     1      44.402 -17.759   1.693  1.00  0.00     0.037 A 
HETATM   27  C   UNL     1      43.603 -16.753   1.134  1.00  0.00     0.018 A 
BRANCH  25  28
HETATM   28  O   UNL     1      44.494 -20.017   2.671  1.00  0.00    -0.356 OA
HETATM   29  C   UNL     1      44.111 -21.323   2.256  1.00  0.00     0.210 C 
ENDBRANCH  25  28
ENDBRANCH   6  22
TORSDOF 6
ENDMDL
MODEL 4
REMARK VINA RESULT:      -8.1      2.753      5.334
REMARK  6 active torsions:
REMARK  status: ('A' for Active; 'I' for Inactive)
REMARK    1  A    between atoms: C_3  and  N_4 
REMARK       I    between atoms: N_4  and  C_5 
REMARK    2  A    between atoms: C_5  and  C_6 
REMARK    3  A    between atoms: C_6  and  C_7 
REMARK    4  A    between atoms: C_7  and  N_8 
REMARK    5  A    between atoms: C_13  and  C_14 
REMARK    6  A    between atoms: C_17  and  O_18 
ROOT
HETATM    1  N   UNL     1      40.808 -14.522   0.684  1.00  0.00    -0.305 N 
HETATM    2  C   UNL     1      39.806 -14.067  -0.142  1.00  0.00     0.196 A 
HETATM    3  S   UNL     1      39.616 -14.229  -1.778  1.00  0.00    -0.039 SA
HETATM    4  N   UNL     1      38.891 -13.424   0.671  1.00  0.00    -0.251 N 
HETATM    5  N   UNL     1      39.295 -13.463   1.968  1.00  0.00    -0.153 NA
HETATM    6  C   UNL     1      40.433 -14.099   1.936  1.00  0.00     0.162 A 
HETATM    7  H   UNL     1      38.026 -12.978   0.389  1.00  0.00     0.191 HD
ENDROOT
BRANCH   1   8
HETATM    8  C   UNL     1      41.966 -15.340   0.291  1.00  0.00     0.142 C 
BRANCH   8   9
HETATM    9  C   UNL     1      41.760 -16.825   0.558  1.00  0.00     0.123 C 
BRANCH   9  10
HETATM   10  C   UNL     1      42.923 -17.485   1.270  1.00  0.00     0.223 C 
HETATM   11  N   UNL     1      42.577 -18.605   1.999  1.00  0.00    -0.327 N 
HETATM   12  H   UNL     1      41.826 -19.169   1.615  1.00  0.00     0.169 HD
HETATM   13  O   UNL     1      44.051 -17.004   1.183  1.00  0.00    -0.273 OA
BRANCH  11  14
HETATM   14  C   UNL     1      43.416 -19.266   2.927  1.00  0.00     0.042 A 
HETATM   15  C   UNL     1      43.926 -20.569   2.755  1.00  0.00    -0.035 A 
HETATM   16  C   UNL     1      43.711 -21.408   1.524  1.00  0.00     0.050 C 
HETATM   17  C   UNL     1      44.732 -21.124   3.770  1.00  0.00     0.010 A 
HETATM   18  C   UNL     1      45.076 -20.390   4.903  1.00  0.00     0.020 A 
HETATM   19  C   UNL     1      44.621 -19.085   5.032  1.00  0.00     0.013 A 
HETATM   20  C   UNL     1      43.808 -18.520   4.050  1.00  0.00     0.049 A 
HETATM   21 BR   UNL     1      45.096 -18.070   6.554  1.00  0.00    -0.051 Br
ENDBRANCH  11  14
ENDBRANCH   9  10
ENDBRANCH   8   9
ENDBRANCH   1   8
BRANCH   6  22
HETATM   22  C   UNL     1      41.207 -14.368   3.160  1.00  0.00     0.012 A 
HETATM   23  C   UNL     1      42.266 -13.509   3.469  1.00  0.00     0.018 A 
HETATM   24  C   UNL     1      43.038 -13.739   4.610  1.00  0.00     0.037 A 
HETATM   25  C   UNL     1      42.768 -14.824   5.446  1.00  0.00     0.068 A 
HETATM   26  C   UNL     1      41.727 -15.696   5.120  1.00  0.00     0.037 A 
HETATM   27  C   UNL     1      40.955 -15.477   3.971  1.00  0.00     0.018 A 
BRANCH  25  28
HETATM   28  O   UNL     1      43.598 -14.931   6.527  1.00  0.00    -0.356 OA
HETATM   29  C   UNL     1      44.672 -14.003   6.612  1.00  0.00     0.210 C 
ENDBRANCH  25  28
ENDBRANCH   6  22
TORSDOF 6
ENDMDL
MODEL 5
REMARK VINA RESULT:      -8.0      3.948      6.871
REMARK  6 active torsions:
REMARK  status: ('A' for Active; 'I' for Inactive)
REMARK    1  A    between atoms: C_3  and  N_4 
REMARK       I    between atoms: N_4  and  C_5 
REMARK    2  A    between atoms: C_5  and  C_6 
REMARK    3  A    between atoms: C_6  and  C_7 
REMARK    4  A    between atoms: C_7  and  N_8 
REMARK    5  A    between atoms: C_13  and  C_14 
REMARK    6  A    between atoms: C_17  and  O_18 
ROOT
HETATM    1  N   UNL     1      44.331 -20.201   3.784  1.00  0.00    -0.305 N 
HETATM    2  C   UNL     1      44.599 -21.550   3.827  1.00  0.00     0.196 A 
HETATM    3  S   UNL     1      45.231 -22.474   5.046  1.00  0.00    -0.039 SA
HETATM    4  N   UNL     1      44.202 -22.067   2.607  1.00  0.00    -0.251 N 
HETATM    5  N   UNL     1      43.703 -21.083   1.813  1.00  0.00    -0.153 NA
HETATM    6  C   UNL     1      43.811 -19.999   2.529  1.00  0.00     0.162 A 
HETATM    7  H   UNL     1      44.250 -23.033   2.305  1.00  0.00     0.191 HD
ENDROOT
BRANCH   1   8
HETATM    8  C   UNL     1      44.504 -19.236   4.881  1.00  0.00     0.142 C 
BRANCH   8   9
HETATM    9  C   UNL     1      43.263 -19.104   5.755  1.00  0.00     0.123 C 
BRANCH   9  10
HETATM   10  C   UNL     1      42.456 -17.851   5.485  1.00  0.00     0.223 C 
HETATM   11  N   UNL     1      43.221 -16.721   5.276  1.00  0.00    -0.327 N 
HETATM   12  H   UNL     1      44.109 -16.867   4.809  1.00  0.00     0.169 HD
HETATM   13  O   UNL     1      41.229 -17.898   5.486  1.00  0.00    -0.273 OA
BRANCH  11  14
HETATM   14  C   UNL     1      42.724 -15.397   5.230  1.00  0.00     0.042 A 
HETATM   15  C   UNL     1      43.208 -14.335   6.020  1.00  0.00    -0.035 A 
HETATM   16  C   UNL     1      44.372 -14.445   6.967  1.00  0.00     0.050 C 
HETATM   17  C   UNL     1      42.607 -13.065   5.896  1.00  0.00     0.010 A 
HETATM   18  C   UNL     1      41.590 -12.834   4.973  1.00  0.00     0.020 A 
HETATM   19  C   UNL     1      41.165 -13.871   4.155  1.00  0.00     0.013 A 
HETATM   20  C   UNL     1      41.732 -15.140   4.271  1.00  0.00     0.049 A 
HETATM   21 BR   UNL     1      39.800 -13.566   2.883  1.00  0.00    -0.051 Br
ENDBRANCH  11  14
ENDBRANCH   9  10
ENDBRANCH   8   9
ENDBRANCH   1   8
BRANCH   6  22
HETATM   22  C   UNL     1      43.362 -18.689   2.026  1.00  0.00     0.012 A 
HETATM   23  C   UNL     1      42.020 -18.551   1.660  1.00  0.00     0.018 A 
HETATM   24  C   UNL     1      41.558 -17.332   1.159  1.00  0.00     0.037 A 
HETATM   25  C   UNL     1      42.424 -16.247   1.013  1.00  0.00     0.068 A 
HETATM   26  C   UNL     1      43.770 -16.397   1.353  1.00  0.00     0.037 A 
HETATM   27  C   UNL     1      44.243 -17.620   1.846  1.00  0.00     0.018 A 
BRANCH  25  28
HETATM   28  O   UNL     1      41.841 -15.116   0.514  1.00  0.00    -0.356 OA
HETATM   29  C   UNL     1      40.995 -15.269  -0.619  1.00  0.00     0.210 C 
ENDBRANCH  25  28
ENDBRANCH   6  22
TORSDOF 6
ENDMDL
MODEL 6
REMARK VINA RESULT:      -8.0      3.948      6.818
REMARK  6 active torsions:
REMARK  status: ('A' for Active; 'I' for Inactive)
REMARK    1  A    between atoms: C_3  and  N_4 
REMARK       I    between atoms: N_4  and  C_5 
REMARK    2  A    between atoms: C_5  and  C_6 
REMARK    3  A    between atoms: C_6  and  C_7 
REMARK    4  A    between atoms: C_7  and  N_8 
REMARK    5  A    between atoms: C_13  and  C_14 
REMARK    6  A    between atoms: C_17  and  O_18 
ROOT
HETATM    1  N   UNL     1      44.420 -20.317   3.807  1.00  0.00    -0.305 N 
HETATM    2  C   UNL     1      44.644 -21.673   3.810  1.00  0.00     0.196 A 
HETATM    3  S   UNL     1      45.314 -22.642   4.975  1.00  0.00    -0.039 SA
HETATM    4  N   UNL     1      44.161 -22.153   2.607  1.00  0.00    -0.251 N 
HETATM    5  N   UNL     1      43.651 -21.139   1.860  1.00  0.00    -0.153 NA
HETATM    6  C   UNL     1      43.836 -20.072   2.588  1.00  0.00     0.162 A 
HETATM    7  H   UNL     1      44.159 -23.114   2.285  1.00  0.00     0.191 HD
ENDROOT
BRANCH   1   8
HETATM    8  C   UNL     1      44.688 -19.379   4.909  1.00  0.00     0.142 C 
BRANCH   8   9
HETATM    9  C   UNL     1      43.627 -19.429   6.001  1.00  0.00     0.123 C 
BRANCH   9  10
HETATM   10  C   UNL     1      43.106 -18.067   6.409  1.00  0.00     0.223 C 
HETATM   11  N   UNL     1      43.373 -17.063   5.499  1.00  0.00    -0.327 N 
HETATM   12  H   UNL     1      43.372 -17.340   4.523  1.00  0.00     0.169 HD
HETATM   13  O   UNL     1      42.522 -17.927   7.481  1.00  0.00    -0.273 OA
BRANCH  11  14
HETATM   14  C   UNL     1      43.201 -15.679   5.736  1.00  0.00     0.042 A 
HETATM   15  C   UNL     1      42.127 -14.912   5.243  1.00  0.00    -0.035 A 
HETATM   16  C   UNL     1      40.972 -15.476   4.460  1.00  0.00     0.050 C 
HETATM   17  C   UNL     1      42.087 -13.532   5.531  1.00  0.00     0.010 A 
HETATM   18  C   UNL     1      43.054 -12.933   6.334  1.00  0.00     0.020 A 
HETATM   19  C   UNL     1      44.072 -13.710   6.867  1.00  0.00     0.013 A 
HETATM   20  C   UNL     1      44.143 -15.074   6.582  1.00  0.00     0.049 A 
HETATM   21 BR   UNL     1      45.380 -12.915   7.977  1.00  0.00    -0.051 Br
ENDBRANCH  11  14
ENDBRANCH   9  10
ENDBRANCH   8   9
ENDBRANCH   1   8
BRANCH   6  22
HETATM   22  C   UNL     1      43.404 -18.739   2.135  1.00  0.00     0.012 A 
HETATM   23  C   UNL     1      42.065 -18.572   1.769  1.00  0.00     0.018 A 
HETATM   24  C   UNL     1      41.618 -17.330   1.315  1.00  0.00     0.037 A 
HETATM   25  C   UNL     1      42.496 -16.249   1.215  1.00  0.00     0.068 A 
HETATM   26  C   UNL     1      43.839 -16.427   1.555  1.00  0.00     0.037 A 
HETATM   27  C   UNL     1      44.296 -17.674   2.002  1.00  0.00     0.018 A 
BRANCH  25  28
HETATM   28  O   UNL     1      41.928 -15.093   0.759  1.00  0.00    -0.356 OA
HETATM   29  C   UNL     1      41.001 -15.207  -0.314  1.00  0.00     0.210 C 
ENDBRANCH  25  28
ENDBRANCH   6  22
TORSDOF 6
ENDMDL
MODEL 7
REMARK VINA RESULT:      -7.8      3.509      7.954
REMARK  6 active torsions:
REMARK  status: ('A' for Active; 'I' for Inactive)
REMARK    1  A    between atoms: C_3  and  N_4 
REMARK       I    between atoms: N_4  and  C_5 
REMARK    2  A    between atoms: C_5  and  C_6 
REMARK    3  A    between atoms: C_6  and  C_7 
REMARK    4  A    between atoms: C_7  and  N_8 
REMARK    5  A    between atoms: C_13  and  C_14 
REMARK    6  A    between atoms: C_17  and  O_18 
ROOT
HETATM    1  N   UNL     1      42.123 -15.090   5.110  1.00  0.00    -0.305 N 
HETATM    2  C   UNL     1      41.007 -14.452   5.599  1.00  0.00     0.196 A 
HETATM    3  S   UNL     1      40.725 -12.841   5.856  1.00  0.00    -0.039 SA
HETATM    4  N   UNL     1      40.066 -15.436   5.836  1.00  0.00    -0.251 N 
HETATM    5  N   UNL     1      40.565 -16.659   5.515  1.00  0.00    -0.153 NA
HETATM    6  C   UNL     1      41.781 -16.420   5.110  1.00  0.00     0.162 A 
HETATM    7  H   UNL     1      39.125 -15.313   6.191  1.00  0.00     0.191 HD
ENDROOT
BRANCH   1   8
HETATM    8  C   UNL     1      43.361 -14.453   4.634  1.00  0.00     0.142 C 
BRANCH   8   9
HETATM    9  C   UNL     1      43.547 -14.571   3.127  1.00  0.00     0.123 C 
BRANCH   9  10
HETATM   10  C   UNL     1      42.442 -13.917   2.323  1.00  0.00     0.223 C 
HETATM   11  N   UNL     1      41.842 -14.754   1.403  1.00  0.00    -0.327 N 
HETATM   12  H   UNL     1      41.770 -15.730   1.673  1.00  0.00     0.169 HD
HETATM   13  O   UNL     1      42.165 -12.735   2.505  1.00  0.00    -0.273 OA
BRANCH  11  14
HETATM   14  C   UNL     1      40.954 -14.342   0.382  1.00  0.00     0.042 A 
HETATM   15  C   UNL     1      39.549 -14.342   0.498  1.00  0.00    -0.035 A 
HETATM   16  C   UNL     1      38.802 -14.708   1.752  1.00  0.00     0.050 C 
HETATM   17  C   UNL     1      38.775 -13.930  -0.607  1.00  0.00     0.010 A 
HETATM   18  C   UNL     1      39.373 -13.475  -1.779  1.00  0.00     0.020 A 
HETATM   19  C   UNL     1      40.757 -13.418  -1.859  1.00  0.00     0.013 A 
HETATM   20  C   UNL     1      41.545 -13.837  -0.787  1.00  0.00     0.049 A 
HETATM   21 BR   UNL     1      41.582 -12.782  -3.437  1.00  0.00    -0.051 Br
ENDBRANCH  11  14
ENDBRANCH   9  10
ENDBRANCH   8   9
ENDBRANCH   1   8
BRANCH   6  22
HETATM   22  C   UNL     1      42.673 -17.499   4.653  1.00  0.00     0.012 A 
HETATM   23  C   UNL     1      42.425 -18.071   3.402  1.00  0.00     0.018 A 
HETATM   24  C   UNL     1      43.234 -19.110   2.939  1.00  0.00     0.037 A 
HETATM   25  C   UNL     1      44.289 -19.592   3.717  1.00  0.00     0.068 A 
HETATM   26  C   UNL     1      44.517 -19.038   4.978  1.00  0.00     0.037 A 
HETATM   27  C   UNL     1      43.702 -18.002   5.452  1.00  0.00     0.018 A 
BRANCH  25  28
HETATM   28  O   UNL     1      45.001 -20.609   3.144  1.00  0.00    -0.356 OA
HETATM   29  C   UNL     1      44.320 -21.422   2.197  1.00  0.00     0.210 C 
ENDBRANCH  25  28
ENDBRANCH   6  22
TORSDOF 6
ENDMDL
MODEL 8
REMARK VINA RESULT:      -7.8      3.796      7.993
REMARK  6 active torsions:
REMARK  status: ('A' for Active; 'I' for Inactive)
REMARK    1  A    between atoms: C_3  and  N_4 
REMARK       I    between atoms: N_4  and  C_5 
REMARK    2  A    between atoms: C_5  and  C_6 
REMARK    3  A    between atoms: C_6  and  C_7 
REMARK    4  A    between atoms: C_7  and  N_8 
REMARK    5  A    between atoms: C_13  and  C_14 
REMARK    6  A    between atoms: C_17  and  O_18 
ROOT
HETATM    1  N   UNL     1      43.534 -19.582   3.152  1.00  0.00    -0.305 N 
HETATM    2  C   UNL     1      44.329 -20.702   3.214  1.00  0.00     0.196 A 
HETATM    3  S   UNL     1      44.676 -21.830   2.053  1.00  0.00    -0.039 SA
HETATM    4  N   UNL     1      44.864 -20.733   4.488  1.00  0.00    -0.251 N 
HETATM    5  N   UNL     1      44.422 -19.674   5.216  1.00  0.00    -0.153 NA
HETATM    6  C   UNL     1      43.629 -19.029   4.406  1.00  0.00     0.162 A 
HETATM    7  H   UNL     1      45.502 -21.421   4.870  1.00  0.00     0.191 HD
ENDROOT
BRANCH   1   8
HETATM    8  C   UNL     1      42.816 -19.078   1.971  1.00  0.00     0.142 C 
BRANCH   8   9
HETATM    9  C   UNL     1      43.560 -17.954   1.261  1.00  0.00     0.123 C 
BRANCH   9  10
HETATM   10  C   UNL     1      42.795 -16.648   1.215  1.00  0.00     0.223 C 
HETATM   11  N   UNL     1      41.681 -16.674   0.400  1.00  0.00    -0.327 N 
HETATM   12  H   UNL     1      41.187 -17.558   0.354  1.00  0.00     0.169 HD
HETATM   13  O   UNL     1      43.194 -15.679   1.856  1.00  0.00    -0.273 OA
BRANCH  11  14
HETATM   14  C   UNL     1      40.932 -15.540   0.006  1.00  0.00     0.042 A 
HETATM   15  C   UNL     1      39.953 -14.914   0.802  1.00  0.00    -0.035 A 
HETATM   16  C   UNL     1      39.622 -15.319   2.214  1.00  0.00     0.050 C 
HETATM   17  C   UNL     1      39.257 -13.804   0.279  1.00  0.00     0.010 A 
HETATM   18  C   UNL     1      39.561 -13.288  -0.978  1.00  0.00     0.020 A 
HETATM   19  C   UNL     1      40.571 -13.872  -1.727  1.00  0.00     0.013 A 
HETATM   20  C   UNL     1      41.261 -14.982  -1.240  1.00  0.00     0.049 A 
HETATM   21 BR   UNL     1      41.008 -13.169  -3.427  1.00  0.00    -0.051 Br
ENDBRANCH  11  14
ENDBRANCH   9  10
ENDBRANCH   8   9
ENDBRANCH   1   8
BRANCH   6  22
HETATM   22  C   UNL     1      42.943 -17.791   4.814  1.00  0.00     0.012 A 
HETATM   23  C   UNL     1      43.721 -16.648   5.021  1.00  0.00     0.018 A 
HETATM   24  C   UNL     1      43.113 -15.458   5.427  1.00  0.00     0.037 A 
HETATM   25  C   UNL     1      41.734 -15.397   5.636  1.00  0.00     0.068 A 
HETATM   26  C   UNL     1      40.964 -16.548   5.456  1.00  0.00     0.037 A 
HETATM   27  C   UNL     1      41.569 -17.748   5.058  1.00  0.00     0.018 A 
BRANCH  25  28
HETATM   28  O   UNL     1      41.271 -14.173   6.030  1.00  0.00    -0.356 OA
HETATM   29  C   UNL     1      39.943 -13.831   5.651  1.00  0.00     0.210 C 
ENDBRANCH  25  28
ENDBRANCH   6  22
TORSDOF 6
ENDMDL
MODEL 9
REMARK VINA RESULT:      -7.8      3.456      7.978
REMARK  6 active torsions:
REMARK  status: ('A' for Active; 'I' for Inactive)
REMARK    1  A    between atoms: C_3  and  N_4 
REMARK       I    between atoms: N_4  and  C_5 
REMARK    2  A    between atoms: C_5  and  C_6 
REMARK    3  A    between atoms: C_6  and  C_7 
REMARK    4  A    between atoms: C_7  and  N_8 
REMARK    5  A    between atoms: C_13  and  C_14 
REMARK    6  A    between atoms: C_17  and  O_18 
ROOT
HETATM    1  N   UNL     1      41.050 -15.627   4.157  1.00  0.00    -0.305 N 
HETATM    2  C   UNL     1      40.288 -15.002   5.117  1.00  0.00     0.196 A 
HETATM    3  S   UNL     1      39.486 -13.555   5.067  1.00  0.00    -0.039 SA
HETATM    4  N   UNL     1      40.266 -15.848   6.211  1.00  0.00    -0.251 N 
HETATM    5  N   UNL     1      40.993 -16.969   5.961  1.00  0.00    -0.153 NA
HETATM    6  C   UNL     1      41.453 -16.797   4.753  1.00  0.00     0.162 A 
HETATM    7  H   UNL     1      39.788 -15.700   7.092  1.00  0.00     0.191 HD
ENDROOT
BRANCH   1   8
HETATM    8  C   UNL     1      41.296 -15.154   2.786  1.00  0.00     0.142 C 
BRANCH   8   9
HETATM    9  C   UNL     1      40.138 -15.450   1.841  1.00  0.00     0.123 C 
BRANCH   9  10
HETATM   10  C   UNL     1      40.161 -14.626   0.570  1.00  0.00     0.223 C 
HETATM   11  N   UNL     1      41.379 -14.622  -0.079  1.00  0.00    -0.327 N 
HETATM   12  H   UNL     1      41.917 -15.480  -0.015  1.00  0.00     0.169 HD
HETATM   13  O   UNL     1      39.154 -14.020   0.212  1.00  0.00    -0.273 OA
BRANCH  11  14
HETATM   14  C   UNL     1      41.732 -13.764  -1.147  1.00  0.00     0.042 A 
HETATM   15  C   UNL     1      41.503 -14.048  -2.508  1.00  0.00    -0.035 A 
HETATM   16  C   UNL     1      40.781 -15.270  -3.010  1.00  0.00     0.050 C 
HETATM   17  C   UNL     1      41.929 -13.117  -3.479  1.00  0.00     0.010 A 
HETATM   18  C   UNL     1      42.514 -11.908  -3.113  1.00  0.00     0.020 A 
HETATM   19  C   UNL     1      42.676 -11.610  -1.767  1.00  0.00     0.013 A 
HETATM   20  C   UNL     1      42.281 -12.522  -0.789  1.00  0.00     0.049 A 
HETATM   21 BR   UNL     1      43.451  -9.964  -1.255  1.00  0.00    -0.051 Br
ENDBRANCH  11  14
ENDBRANCH   9  10
ENDBRANCH   8   9
ENDBRANCH   1   8
BRANCH   6  22
HETATM   22  C   UNL     1      42.294 -17.810   4.092  1.00  0.00     0.012 A 
HETATM   23  C   UNL     1      43.305 -18.417   4.844  1.00  0.00     0.018 A 
HETATM   24  C   UNL     1      44.137 -19.368   4.250  1.00  0.00     0.037 A 
HETATM   25  C   UNL     1      43.977 -19.717   2.908  1.00  0.00     0.068 A 
HETATM   26  C   UNL     1      42.985 -19.088   2.152  1.00  0.00     0.037 A 
HETATM   27  C   UNL     1      42.153 -18.126   2.739  1.00  0.00     0.018 A 
BRANCH  25  28
HETATM   28  O   UNL     1      44.857 -20.660   2.455  1.00  0.00    -0.356 OA
HETATM   29  C   UNL     1      44.383 -21.998   2.368  1.00  0.00     0.210 C 
ENDBRANCH  25  28
ENDBRANCH   6  22
TORSDOF 6
ENDMDL
MODEL 10
REMARK VINA RESULT:      -7.8      5.473      8.219
REMARK  6 active torsions:
REMARK  status: ('A' for Active; 'I' for Inactive)
REMARK    1  A    between atoms: C_3  and  N_4 
REMARK       I    between atoms: N_4  and  C_5 
REMARK    2  A    between atoms: C_5  and  C_6 
REMARK    3  A    between atoms: C_6  and  C_7 
REMARK    4  A    between atoms: C_7  and  N_8 
REMARK    5  A    between atoms: C_13  and  C_14 
REMARK    6  A    between atoms: C_17  and  O_18 
ROOT
HETATM    1  N   UNL     1      41.382 -15.803   4.908  1.00  0.00    -0.305 N 
HETATM    2  C   UNL     1      40.380 -14.894   4.660  1.00  0.00     0.196 A 
HETATM    3  S   UNL     1      39.824 -13.639   5.586  1.00  0.00    -0.039 SA
HETATM    4  N   UNL     1      39.884 -15.190   3.404  1.00  0.00    -0.251 N 
HETATM    5  N   UNL     1      40.542 -16.254   2.871  1.00  0.00    -0.153 NA
HETATM    6  C   UNL     1      41.402 -16.599   3.789  1.00  0.00     0.162 A 
HETATM    7  H   UNL     1      39.143 -14.710   2.907  1.00  0.00     0.191 HD
ENDROOT
BRANCH   1   8
HETATM    8  C   UNL     1      42.264 -15.839   6.085  1.00  0.00     0.142 C 
BRANCH   8   9
HETATM    9  C   UNL     1      43.610 -15.169   5.838  1.00  0.00     0.123 C 
BRANCH   9  10
HETATM   10  C   UNL     1      43.761 -13.828   6.525  1.00  0.00     0.223 C 
HETATM   11  N   UNL     1      44.716 -13.809   7.522  1.00  0.00    -0.327 N 
HETATM   12  H   UNL     1      45.526 -14.401   7.371  1.00  0.00     0.169 HD
HETATM   13  O   UNL     1      43.051 -12.883   6.193  1.00  0.00    -0.273 OA
BRANCH  11  14
HETATM   14  C   UNL     1      44.896 -12.765   8.460  1.00  0.00     0.042 A 
HETATM   15  C   UNL     1      46.072 -11.999   8.585  1.00  0.00    -0.035 A 
HETATM   16  C   UNL     1      47.272 -12.135   7.688  1.00  0.00     0.050 C 
HETATM   17  C   UNL     1      46.132 -11.002   9.582  1.00  0.00     0.010 A 
HETATM   18  C   UNL     1      45.037 -10.728  10.397  1.00  0.00     0.020 A 
HETATM   19  C   UNL     1      43.862 -11.445  10.221  1.00  0.00     0.013 A 
HETATM   20  C   UNL     1      43.784 -12.448   9.256  1.00  0.00     0.049 A 
HETATM   21 BR   UNL     1      42.361 -11.069  11.307  1.00  0.00    -0.051 Br
ENDBRANCH  11  14
ENDBRANCH   9  10
ENDBRANCH   8   9
ENDBRANCH   1   8
BRANCH   6  22
HETATM   22  C   UNL     1      42.334 -17.723   3.595  1.00  0.00     0.012 A 
HETATM   23  C   UNL     1      42.537 -18.191   2.293  1.00  0.00     0.018 A 
HETATM   24  C   UNL     1      43.397 -19.267   2.067  1.00  0.00     0.037 A 
HETATM   25  C   UNL     1      44.055 -19.889   3.131  1.00  0.00     0.068 A 
HETATM   26  C   UNL     1      43.829 -19.437   4.432  1.00  0.00     0.037 A 
HETATM   27  C   UNL     1      42.959 -18.364   4.667  1.00  0.00     0.018 A 
BRANCH  25  28
HETATM   28  O   UNL     1      44.868 -20.927   2.769  1.00  0.00    -0.356 OA
HETATM   29  C   UNL     1      44.339 -21.872   1.848  1.00  0.00     0.210 C 
ENDBRANCH  25  28
ENDBRANCH   6  22
TORSDOF 6
ENDMDL
