MODEL 1
REMARK VINA RESULT:      -7.4      0.000      0.000
REMARK  5 active torsions:
REMARK  status: ('A' for Active; 'I' for Inactive)
REMARK    1  A    between atoms: C_2  and  O_3 
REMARK    2  A    between atoms: O_3  and  C_4 
REMARK    3  A    between atoms: C_6  and  C_7 
REMARK    4  A    between atoms: C_7  and  N_8 
REMARK       I    between atoms: N_8  and  C_9 
REMARK       I    between atoms: C_9  and  N_10 
REMARK    5  A    between atoms: N_10  and  C_11 
ROOT
HETATM    1  N   UNL     1      43.466 -16.736   5.568  1.00  0.00    -0.335 N 
HETATM    2  C   UNL     1      42.877 -15.976   4.604  1.00  0.00     0.321 C 
HETATM    3  N   UNL     1      41.518 -16.078   4.502  1.00  0.00    -0.307 N 
HETATM    4  O   UNL     1      43.608 -15.282   3.904  1.00  0.00    -0.247 OA
HETATM    5  H   UNL     1      44.476 -16.673   5.515  1.00  0.00     0.165 HD
HETATM    6  H   UNL     1      41.158 -16.972   4.790  1.00  0.00     0.170 HD
ENDROOT
BRANCH   1   7
HETATM    7  C   UNL     1      42.925 -17.739   6.478  1.00  0.00     0.115 C 
HETATM    8  C   UNL     1      43.167 -17.283   7.919  1.00  0.00     0.037 C 
BRANCH   7   9
HETATM    9  C   UNL     1      43.499 -19.102   6.120  1.00  0.00    -0.033 A 
HETATM   10  C   UNL     1      44.015 -19.306   4.827  1.00  0.00     0.046 A 
HETATM   11  C   UNL     1      44.605 -20.515   4.450  1.00  0.00     0.069 A 
HETATM   12  C   UNL     1      44.654 -21.566   5.359  1.00  0.00     0.037 A 
HETATM   13  C   UNL     1      44.145 -21.390   6.646  1.00  0.00     0.003 A 
HETATM   14  C   UNL     1      43.581 -20.168   7.027  1.00  0.00     0.009 A 
BRANCH  11  15
HETATM   15  O   UNL     1      45.077 -20.545   3.167  1.00  0.00    -0.352 OA
BRANCH  15  16
HETATM   16  C   UNL     1      44.095 -20.511   2.134  1.00  0.00     0.171 C 
HETATM   17  C   UNL     1      44.002 -21.904   1.538  1.00  0.00     0.034 C 
ENDBRANCH  15  16
ENDBRANCH  11  15
ENDBRANCH   7   9
ENDBRANCH   1   7
BRANCH   3  18
HETATM   18  C   UNL     1      40.690 -15.378   3.590  1.00  0.00     0.059 A 
HETATM   19  C   UNL     1      40.253 -15.837   2.340  1.00  0.00    -0.032 A 
HETATM   20  C   UNL     1      40.674 -17.133   1.708  1.00  0.00     0.050 C 
HETATM   21  C   UNL     1      39.379 -15.019   1.600  1.00  0.00     0.028 A 
HETATM   22  C   UNL     1      39.033 -13.769   2.085  1.00  0.00     0.117 A 
HETATM   23  N   UNL     1      39.494 -13.268   3.245  1.00  0.00    -0.271 NA
HETATM   24  C   UNL     1      40.306 -14.081   3.960  1.00  0.00     0.146 A 
ENDBRANCH   3  18
TORSDOF 5
ENDMDL
MODEL 2
REMARK VINA RESULT:      -7.3      1.952      3.690
REMARK  5 active torsions:
REMARK  status: ('A' for Active; 'I' for Inactive)
REMARK    1  A    between atoms: C_2  and  O_3 
REMARK    2  A    between atoms: O_3  and  C_4 
REMARK    3  A    between atoms: C_6  and  C_7 
REMARK    4  A    between atoms: C_7  and  N_8 
REMARK       I    between atoms: N_8  and  C_9 
REMARK       I    between atoms: C_9  and  N_10 
REMARK    5  A    between atoms: N_10  and  C_11 
ROOT
HETATM    1  N   UNL     1      42.094 -17.859   2.059  1.00  0.00    -0.335 N 
HETATM    2  C   UNL     1      41.169 -16.960   2.498  1.00  0.00     0.321 C 
HETATM    3  N   UNL     1      41.643 -15.927   3.256  1.00  0.00    -0.307 N 
HETATM    4  O   UNL     1      39.997 -17.160   2.193  1.00  0.00    -0.247 OA
HETATM    5  H   UNL     1      41.650 -18.637   1.588  1.00  0.00     0.165 HD
HETATM    6  H   UNL     1      42.473 -16.156   3.776  1.00  0.00     0.170 HD
ENDROOT
BRANCH   1   7
HETATM    7  C   UNL     1      43.522 -17.989   2.327  1.00  0.00     0.115 C 
HETATM    8  C   UNL     1      44.302 -17.345   1.178  1.00  0.00     0.037 C 
BRANCH   7   9
HETATM    9  C   UNL     1      43.850 -19.450   2.600  1.00  0.00    -0.033 A 
HETATM   10  C   UNL     1      44.197 -19.838   3.908  1.00  0.00     0.046 A 
HETATM   11  C   UNL     1      44.457 -21.171   4.238  1.00  0.00     0.069 A 
HETATM   12  C   UNL     1      44.411 -22.143   3.245  1.00  0.00     0.037 A 
HETATM   13  C   UNL     1      44.075 -21.783   1.940  1.00  0.00     0.003 A 
HETATM   14  C   UNL     1      43.787 -20.452   1.621  1.00  0.00     0.009 A 
BRANCH  11  15
HETATM   15  O   UNL     1      44.757 -21.385   5.554  1.00  0.00    -0.352 OA
BRANCH  15  16
HETATM   16  C   UNL     1      44.269 -20.413   6.478  1.00  0.00     0.171 C 
HETATM   17  C   UNL     1      43.484 -21.148   7.550  1.00  0.00     0.034 C 
ENDBRANCH  15  16
ENDBRANCH  11  15
ENDBRANCH   7   9
ENDBRANCH   1   7
BRANCH   3  18
HETATM   18  C   UNL     1      40.878 -14.870   3.807  1.00  0.00     0.059 A 
HETATM   19  C   UNL     1      40.404 -14.784   5.123  1.00  0.00    -0.032 A 
HETATM   20  C   UNL     1      40.552 -15.861   6.160  1.00  0.00     0.050 C 
HETATM   21  C   UNL     1      39.710 -13.621   5.504  1.00  0.00     0.028 A 
HETATM   22  C   UNL     1      39.455 -12.634   4.565  1.00  0.00     0.117 A 
HETATM   23  N   UNL     1      39.830 -12.720   3.277  1.00  0.00    -0.271 NA
HETATM   24  C   UNL     1      40.526 -13.830   2.936  1.00  0.00     0.146 A 
ENDBRANCH   3  18
TORSDOF 5
ENDMDL
MODEL 3
REMARK VINA RESULT:      -7.1      2.229      4.117
REMARK  5 active torsions:
REMARK  status: ('A' for Active; 'I' for Inactive)
REMARK    1  A    between atoms: C_2  and  O_3 
REMARK    2  A    between atoms: O_3  and  C_4 
REMARK    3  A    between atoms: C_6  and  C_7 
REMARK    4  A    between atoms: C_7  and  N_8 
REMARK       I    between atoms: N_8  and  C_9 
REMARK       I    between atoms: C_9  and  N_10 
REMARK    5  A    between atoms: N_10  and  C_11 
ROOT
HETATM    1  N   UNL     1      41.031 -17.091   4.351  1.00  0.00    -0.335 N 
HETATM    2  C   UNL     1      40.765 -16.045   5.181  1.00  0.00     0.321 C 
HETATM    3  N   UNL     1      41.030 -14.799   4.686  1.00  0.00    -0.307 N 
HETATM    4  O   UNL     1      40.329 -16.305   6.298  1.00  0.00    -0.247 OA
HETATM    5  H   UNL     1      40.896 -17.975   4.825  1.00  0.00     0.165 HD
HETATM    6  H   UNL     1      41.772 -14.784   4.007  1.00  0.00     0.170 HD
ENDROOT
BRANCH   1   7
HETATM    7  C   UNL     1      41.651 -17.149   3.032  1.00  0.00     0.115 C 
HETATM    8  C   UNL     1      40.549 -17.184   1.969  1.00  0.00     0.037 C 
BRANCH   7   9
HETATM    9  C   UNL     1      42.635 -18.308   2.990  1.00  0.00    -0.033 A 
HETATM   10  C   UNL     1      43.351 -18.637   4.156  1.00  0.00     0.046 A 
HETATM   11  C   UNL     1      44.229 -19.723   4.203  1.00  0.00     0.069 A 
HETATM   12  C   UNL     1      44.438 -20.484   3.058  1.00  0.00     0.037 A 
HETATM   13  C   UNL     1      43.744 -20.175   1.888  1.00  0.00     0.003 A 
HETATM   14  C   UNL     1      42.844 -19.105   1.855  1.00  0.00     0.009 A 
BRANCH  11  15
HETATM   15  O   UNL     1      44.828 -19.922   5.415  1.00  0.00    -0.352 OA
BRANCH  15  16
HETATM   16  C   UNL     1      44.001 -19.742   6.563  1.00  0.00     0.171 C 
HETATM   17  C   UNL     1      43.675 -21.117   7.117  1.00  0.00     0.034 C 
ENDBRANCH  15  16
ENDBRANCH  11  15
ENDBRANCH   7   9
ENDBRANCH   1   7
BRANCH   3  18
HETATM   18  C   UNL     1      40.821 -13.568   5.356  1.00  0.00     0.059 A 
HETATM   19  C   UNL     1      41.789 -12.815   6.034  1.00  0.00    -0.032 A 
HETATM   20  C   UNL     1      43.214 -13.243   6.248  1.00  0.00     0.050 C 
HETATM   21  C   UNL     1      41.403 -11.580   6.587  1.00  0.00     0.028 A 
HETATM   22  C   UNL     1      40.080 -11.176   6.509  1.00  0.00     0.117 A 
HETATM   23  N   UNL     1      39.113 -11.910   5.931  1.00  0.00    -0.271 NA
HETATM   24  C   UNL     1      39.508 -13.079   5.375  1.00  0.00     0.146 A 
ENDBRANCH   3  18
TORSDOF 5
ENDMDL
MODEL 4
REMARK VINA RESULT:      -7.1      1.971      2.651
REMARK  5 active torsions:
REMARK  status: ('A' for Active; 'I' for Inactive)
REMARK    1  A    between atoms: C_2  and  O_3 
REMARK    2  A    between atoms: O_3  and  C_4 
REMARK    3  A    between atoms: C_6  and  C_7 
REMARK    4  A    between atoms: C_7  and  N_8 
REMARK       I    between atoms: N_8  and  C_9 
REMARK       I    between atoms: C_9  and  N_10 
REMARK    5  A    between atoms: N_10  and  C_11 
ROOT
HETATM    1  N   UNL     1      41.888 -15.686   4.400  1.00  0.00    -0.335 N 
HETATM    2  C   UNL     1      41.738 -15.088   3.186  1.00  0.00     0.321 C 
HETATM    3  N   UNL     1      40.891 -15.705   2.310  1.00  0.00    -0.307 N 
HETATM    4  O   UNL     1      42.380 -14.063   2.976  1.00  0.00    -0.247 OA
HETATM    5  H   UNL     1      42.599 -15.219   4.950  1.00  0.00     0.165 HD
HETATM    6  H   UNL     1      40.831 -16.700   2.440  1.00  0.00     0.170 HD
ENDROOT
BRANCH   1   7
HETATM    7  C   UNL     1      41.379 -16.946   4.929  1.00  0.00     0.115 C 
HETATM    8  C   UNL     1      40.648 -16.671   6.246  1.00  0.00     0.037 C 
BRANCH   7   9
HETATM    9  C   UNL     1      42.519 -17.951   5.014  1.00  0.00    -0.033 A 
HETATM   10  C   UNL     1      43.056 -18.474   3.823  1.00  0.00     0.046 A 
HETATM   11  C   UNL     1      44.139 -19.358   3.827  1.00  0.00     0.069 A 
HETATM   12  C   UNL     1      44.682 -19.769   5.039  1.00  0.00     0.037 A 
HETATM   13  C   UNL     1      44.163 -19.269   6.234  1.00  0.00     0.003 A 
HETATM   14  C   UNL     1      43.099 -18.362   6.223  1.00  0.00     0.009 A 
BRANCH  11  15
HETATM   15  O   UNL     1      44.556 -19.756   2.588  1.00  0.00    -0.352 OA
BRANCH  15  16
HETATM   16  C   UNL     1      43.599 -20.459   1.797  1.00  0.00     0.171 C 
HETATM   17  C   UNL     1      43.983 -21.928   1.805  1.00  0.00     0.034 C 
ENDBRANCH  15  16
ENDBRANCH  11  15
ENDBRANCH   7   9
ENDBRANCH   1   7
BRANCH   3  18
HETATM   18  C   UNL     1      40.567 -15.263   1.003  1.00  0.00     0.059 A 
HETATM   19  C   UNL     1      39.559 -14.352   0.658  1.00  0.00    -0.032 A 
HETATM   20  C   UNL     1      38.575 -13.755   1.625  1.00  0.00     0.050 C 
HETATM   21  C   UNL     1      39.428 -13.986  -0.694  1.00  0.00     0.028 A 
HETATM   22  C   UNL     1      40.241 -14.578  -1.647  1.00  0.00     0.117 A 
HETATM   23  N   UNL     1      41.166 -15.509  -1.359  1.00  0.00    -0.271 NA
HETATM   24  C   UNL     1      41.302 -15.825  -0.050  1.00  0.00     0.146 A 
ENDBRANCH   3  18
TORSDOF 5
ENDMDL
MODEL 5
REMARK VINA RESULT:      -6.9      2.423      3.821
REMARK  5 active torsions:
REMARK  status: ('A' for Active; 'I' for Inactive)
REMARK    1  A    between atoms: C_2  and  O_3 
REMARK    2  A    between atoms: O_3  and  C_4 
REMARK    3  A    between atoms: C_6  and  C_7 
REMARK    4  A    between atoms: C_7  and  N_8 
REMARK       I    between atoms: N_8  and  C_9 
REMARK       I    between atoms: C_9  and  N_10 
REMARK    5  A    between atoms: N_10  and  C_11 
ROOT
HETATM    1  N   UNL     1      41.859 -15.608   3.361  1.00  0.00    -0.335 N 
HETATM    2  C   UNL     1      41.604 -14.866   2.249  1.00  0.00     0.321 C 
HETATM    3  N   UNL     1      40.674 -15.372   1.386  1.00  0.00    -0.307 N 
HETATM    4  O   UNL     1      42.235 -13.823   2.108  1.00  0.00    -0.247 OA
HETATM    5  H   UNL     1      42.622 -15.212   3.897  1.00  0.00     0.165 HD
HETATM    6  H   UNL     1      40.616 -16.376   1.398  1.00  0.00     0.170 HD
ENDROOT
BRANCH   1   7
HETATM    7  C   UNL     1      41.388 -16.925   3.777  1.00  0.00     0.115 C 
HETATM    8  C   UNL     1      40.993 -16.866   5.255  1.00  0.00     0.037 C 
BRANCH   7   9
HETATM    9  C   UNL     1      42.439 -17.968   3.425  1.00  0.00    -0.033 A 
HETATM   10  C   UNL     1      43.136 -18.611   4.465  1.00  0.00     0.046 A 
HETATM   11  C   UNL     1      44.074 -19.616   4.214  1.00  0.00     0.069 A 
HETATM   12  C   UNL     1      44.361 -19.972   2.901  1.00  0.00     0.037 A 
HETATM   13  C   UNL     1      43.687 -19.345   1.853  1.00  0.00     0.003 A 
HETATM   14  C   UNL     1      42.728 -18.360   2.111  1.00  0.00     0.009 A 
BRANCH  11  15
HETATM   15  O   UNL     1      44.646 -20.155   5.332  1.00  0.00    -0.352 OA
BRANCH  15  16
HETATM   16  C   UNL     1      44.014 -19.847   6.574  1.00  0.00     0.171 C 
HETATM   17  C   UNL     1      43.644 -21.159   7.242  1.00  0.00     0.034 C 
ENDBRANCH  15  16
ENDBRANCH  11  15
ENDBRANCH   7   9
ENDBRANCH   1   7
BRANCH   3  18
HETATM   18  C   UNL     1      40.236 -14.773   0.179  1.00  0.00     0.059 A 
HETATM   19  C   UNL     1      39.035 -14.077  -0.018  1.00  0.00    -0.032 A 
HETATM   20  C   UNL     1      37.952 -13.928   1.013  1.00  0.00     0.050 C 
HETATM   21  C   UNL     1      38.802 -13.496  -1.278  1.00  0.00     0.028 A 
HETATM   22  C   UNL     1      39.719 -13.682  -2.300  1.00  0.00     0.117 A 
HETATM   23  N   UNL     1      40.843 -14.407  -2.166  1.00  0.00    -0.271 NA
HETATM   24  C   UNL     1      41.068 -14.930  -0.938  1.00  0.00     0.146 A 
ENDBRANCH   3  18
TORSDOF 5
ENDMDL
MODEL 6
REMARK VINA RESULT:      -6.9      1.866      2.473
REMARK  5 active torsions:
REMARK  status: ('A' for Active; 'I' for Inactive)
REMARK    1  A    between atoms: C_2  and  O_3 
REMARK    2  A    between atoms: O_3  and  C_4 
REMARK    3  A    between atoms: C_6  and  C_7 
REMARK    4  A    between atoms: C_7  and  N_8 
REMARK       I    between atoms: N_8  and  C_9 
REMARK       I    between atoms: C_9  and  N_10 
REMARK    5  A    between atoms: N_10  and  C_11 
ROOT
HETATM    1  N   UNL     1      43.417 -15.762   6.264  1.00  0.00    -0.335 N 
HETATM    2  C   UNL     1      42.784 -14.672   5.750  1.00  0.00     0.321 C 
HETATM    3  N   UNL     1      41.425 -14.759   5.638  1.00  0.00    -0.307 N 
HETATM    4  O   UNL     1      43.480 -13.717   5.419  1.00  0.00    -0.247 OA
HETATM    5  H   UNL     1      44.423 -15.651   6.227  1.00  0.00     0.165 HD
HETATM    6  H   UNL     1      41.091 -15.699   5.506  1.00  0.00     0.170 HD
ENDROOT
BRANCH   1   7
HETATM    7  C   UNL     1      42.922 -17.081   6.643  1.00  0.00     0.115 C 
HETATM    8  C   UNL     1      43.269 -17.338   8.112  1.00  0.00     0.037 C 
BRANCH   7   9
HETATM    9  C   UNL     1      43.449 -18.116   5.659  1.00  0.00    -0.033 A 
HETATM   10  C   UNL     1      42.846 -18.218   4.391  1.00  0.00     0.046 A 
HETATM   11  C   UNL     1      43.314 -19.108   3.420  1.00  0.00     0.069 A 
HETATM   12  C   UNL     1      44.381 -19.948   3.720  1.00  0.00     0.037 A 
HETATM   13  C   UNL     1      44.992 -19.869   4.971  1.00  0.00     0.003 A 
HETATM   14  C   UNL     1      44.538 -18.956   5.928  1.00  0.00     0.009 A 
BRANCH  11  15
HETATM   15  O   UNL     1      42.635 -19.070   2.235  1.00  0.00    -0.352 OA
BRANCH  15  16
HETATM   16  C   UNL     1      42.458 -17.780   1.652  1.00  0.00     0.171 C 
HETATM   17  C   UNL     1      43.772 -17.382   1.004  1.00  0.00     0.034 C 
ENDBRANCH  15  16
ENDBRANCH  11  15
ENDBRANCH   7   9
ENDBRANCH   1   7
BRANCH   3  18
HETATM   18  C   UNL     1      40.557 -13.752   5.149  1.00  0.00     0.059 A 
HETATM   19  C   UNL     1      40.302 -13.455   3.804  1.00  0.00    -0.032 A 
HETATM   20  C   UNL     1      40.992 -14.103   2.637  1.00  0.00     0.050 C 
HETATM   21  C   UNL     1      39.356 -12.455   3.512  1.00  0.00     0.028 A 
HETATM   22  C   UNL     1      38.758 -11.752   4.545  1.00  0.00     0.117 A 
HETATM   23  N   UNL     1      39.036 -11.962   5.844  1.00  0.00    -0.271 NA
HETATM   24  C   UNL     1      39.923 -12.950   6.108  1.00  0.00     0.146 A 
ENDBRANCH   3  18
TORSDOF 5
ENDMDL
MODEL 7
REMARK VINA RESULT:      -6.9      2.200      4.011
REMARK  5 active torsions:
REMARK  status: ('A' for Active; 'I' for Inactive)
REMARK    1  A    between atoms: C_2  and  O_3 
REMARK    2  A    between atoms: O_3  and  C_4 
REMARK    3  A    between atoms: C_6  and  C_7 
REMARK    4  A    between atoms: C_7  and  N_8 
REMARK       I    between atoms: N_8  and  C_9 
REMARK       I    between atoms: C_9  and  N_10 
REMARK    5  A    between atoms: N_10  and  C_11 
ROOT
HETATM    1  N   UNL     1      41.060 -16.812   4.137  1.00  0.00    -0.335 N 
HETATM    2  C   UNL     1      40.809 -15.690   4.868  1.00  0.00     0.321 C 
HETATM    3  N   UNL     1      41.143 -14.502   4.283  1.00  0.00    -0.307 N 
HETATM    4  O   UNL     1      40.323 -15.840   5.985  1.00  0.00    -0.247 OA
HETATM    5  H   UNL     1      40.872 -17.648   4.676  1.00  0.00     0.165 HD
HETATM    6  H   UNL     1      41.909 -14.572   3.635  1.00  0.00     0.170 HD
ENDROOT
BRANCH   1   7
HETATM    7  C   UNL     1      41.724 -17.003   2.852  1.00  0.00     0.115 C 
HETATM    8  C   UNL     1      40.659 -17.125   1.759  1.00  0.00     0.037 C 
BRANCH   7   9
HETATM    9  C   UNL     1      42.689 -18.174   2.955  1.00  0.00    -0.033 A 
HETATM   10  C   UNL     1      43.374 -18.388   4.167  1.00  0.00     0.046 A 
HETATM   11  C   UNL     1      44.233 -19.476   4.347  1.00  0.00     0.069 A 
HETATM   12  C   UNL     1      44.454 -20.356   3.293  1.00  0.00     0.037 A 
HETATM   13  C   UNL     1      43.791 -20.162   2.081  1.00  0.00     0.003 A 
HETATM   14  C   UNL     1      42.910 -19.089   1.916  1.00  0.00     0.009 A 
BRANCH  11  15
HETATM   15  O   UNL     1      44.802 -19.555   5.588  1.00  0.00    -0.352 OA
BRANCH  15  16
HETATM   16  C   UNL     1      43.901 -19.653   6.689  1.00  0.00     0.171 C 
HETATM   17  C   UNL     1      43.702 -21.128   6.993  1.00  0.00     0.034 C 
ENDBRANCH  15  16
ENDBRANCH  11  15
ENDBRANCH   7   9
ENDBRANCH   1   7
BRANCH   3  18
HETATM   18  C   UNL     1      40.961 -13.212   4.841  1.00  0.00     0.059 A 
HETATM   19  C   UNL     1      40.037 -12.245   4.421  1.00  0.00    -0.032 A 
HETATM   20  C   UNL     1      39.134 -12.384   3.228  1.00  0.00     0.050 C 
HETATM   21  C   UNL     1      39.962 -11.040   5.143  1.00  0.00     0.028 A 
HETATM   22  C   UNL     1      40.837 -10.812   6.193  1.00  0.00     0.117 A 
HETATM   23  N   UNL     1      41.784 -11.687   6.573  1.00  0.00    -0.271 NA
HETATM   24  C   UNL     1      41.820 -12.855   5.890  1.00  0.00     0.146 A 
ENDBRANCH   3  18
TORSDOF 5
ENDMDL
MODEL 8
REMARK VINA RESULT:      -6.7      1.837      2.687
REMARK  5 active torsions:
REMARK  status: ('A' for Active; 'I' for Inactive)
REMARK    1  A    between atoms: C_2  and  O_3 
REMARK    2  A    between atoms: O_3  and  C_4 
REMARK    3  A    between atoms: C_6  and  C_7 
REMARK    4  A    between atoms: C_7  and  N_8 
REMARK       I    between atoms: N_8  and  C_9 
REMARK       I    between atoms: C_9  and  N_10 
REMARK    5  A    between atoms: N_10  and  C_11 
ROOT
HETATM    1  N   UNL     1      43.639 -14.322   4.719  1.00  0.00    -0.335 N 
HETATM    2  C   UNL     1      42.751 -13.932   3.762  1.00  0.00     0.321 C 
HETATM    3  N   UNL     1      41.434 -14.181   4.024  1.00  0.00    -0.307 N 
HETATM    4  O   UNL     1      43.204 -13.408   2.750  1.00  0.00    -0.247 OA
HETATM    5  H   UNL     1      44.593 -14.186   4.407  1.00  0.00     0.165 HD
HETATM    6  H   UNL     1      41.284 -14.980   4.615  1.00  0.00     0.170 HD
ENDROOT
BRANCH   1   7
HETATM    7  C   UNL     1      43.460 -15.062   5.963  1.00  0.00     0.115 C 
HETATM    8  C   UNL     1      44.253 -14.365   7.072  1.00  0.00     0.037 C 
BRANCH   7   9
HETATM    9  C   UNL     1      43.810 -16.525   5.732  1.00  0.00    -0.033 A 
HETATM   10  C   UNL     1      43.238 -17.197   4.635  1.00  0.00     0.046 A 
HETATM   11  C   UNL     1      43.558 -18.523   4.333  1.00  0.00     0.069 A 
HETATM   12  C   UNL     1      44.436 -19.220   5.156  1.00  0.00     0.037 A 
HETATM   13  C   UNL     1      45.012 -18.577   6.252  1.00  0.00     0.003 A 
HETATM   14  C   UNL     1      44.711 -17.240   6.532  1.00  0.00     0.009 A 
BRANCH  11  15
HETATM   15  O   UNL     1      42.935 -19.023   3.224  1.00  0.00    -0.352 OA
BRANCH  15  16
HETATM   16  C   UNL     1      43.782 -19.372   2.130  1.00  0.00     0.171 C 
HETATM   17  C   UNL     1      43.668 -20.871   1.918  1.00  0.00     0.034 C 
ENDBRANCH  15  16
ENDBRANCH  11  15
ENDBRANCH   7   9
ENDBRANCH   1   7
BRANCH   3  18
HETATM   18  C   UNL     1      40.336 -13.853   3.190  1.00  0.00     0.059 A 
HETATM   19  C   UNL     1      39.756 -12.586   3.038  1.00  0.00    -0.032 A 
HETATM   20  C   UNL     1      40.148 -11.364   3.818  1.00  0.00     0.050 C 
HETATM   21  C   UNL     1      38.707 -12.443   2.111  1.00  0.00     0.028 A 
HETATM   22  C   UNL     1      38.233 -13.555   1.433  1.00  0.00     0.117 A 
HETATM   23  N   UNL     1      38.718 -14.796   1.612  1.00  0.00    -0.271 NA
HETATM   24  C   UNL     1      39.749 -14.910   2.481  1.00  0.00     0.146 A 
ENDBRANCH   3  18
TORSDOF 5
ENDMDL
MODEL 9
REMARK VINA RESULT:      -6.7      1.978      2.777
REMARK  5 active torsions:
REMARK  status: ('A' for Active; 'I' for Inactive)
REMARK    1  A    between atoms: C_2  and  O_3 
REMARK    2  A    between atoms: O_3  and  C_4 
REMARK    3  A    between atoms: C_6  and  C_7 
REMARK    4  A    between atoms: C_7  and  N_8 
REMARK       I    between atoms: N_8  and  C_9 
REMARK       I    between atoms: C_9  and  N_10 
REMARK    5  A    between atoms: N_10  and  C_11 
ROOT
HETATM    1  N   UNL     1      42.025 -17.222   2.751  1.00  0.00    -0.335 N 
HETATM    2  C   UNL     1      41.203 -16.743   1.777  1.00  0.00     0.321 C 
HETATM    3  N   UNL     1      40.665 -15.506   1.996  1.00  0.00    -0.307 N 
HETATM    4  O   UNL     1      41.003 -17.460   0.801  1.00  0.00    -0.247 OA
HETATM    5  H   UNL     1      42.305 -18.176   2.555  1.00  0.00     0.165 HD
HETATM    6  H   UNL     1      40.547 -15.284   2.969  1.00  0.00     0.170 HD
ENDROOT
BRANCH   1   7
HETATM    7  C   UNL     1      42.380 -16.697   4.065  1.00  0.00     0.115 C 
HETATM    8  C   UNL     1      43.272 -15.467   3.882  1.00  0.00     0.037 C 
BRANCH   7   9
HETATM    9  C   UNL     1      42.976 -17.816   4.907  1.00  0.00    -0.033 A 
HETATM   10  C   UNL     1      43.613 -18.891   4.259  1.00  0.00     0.046 A 
HETATM   11  C   UNL     1      44.229 -19.923   4.973  1.00  0.00     0.069 A 
HETATM   12  C   UNL     1      44.183 -19.915   6.363  1.00  0.00     0.037 A 
HETATM   13  C   UNL     1      43.554 -18.863   7.028  1.00  0.00     0.003 A 
HETATM   14  C   UNL     1      42.965 -17.818   6.309  1.00  0.00     0.009 A 
BRANCH  11  15
HETATM   15  O   UNL     1      44.821 -20.879   4.197  1.00  0.00    -0.352 OA
BRANCH  15  16
HETATM   16  C   UNL     1      44.822 -20.639   2.791  1.00  0.00     0.171 C 
HETATM   17  C   UNL     1      44.310 -21.894   2.107  1.00  0.00     0.034 C 
ENDBRANCH  15  16
ENDBRANCH  11  15
ENDBRANCH   7   9
ENDBRANCH   1   7
BRANCH   3  18
HETATM   18  C   UNL     1      39.799 -14.802   1.123  1.00  0.00     0.059 A 
HETATM   19  C   UNL     1      40.164 -14.143  -0.059  1.00  0.00    -0.032 A 
HETATM   20  C   UNL     1      41.574 -13.993  -0.557  1.00  0.00     0.050 C 
HETATM   21  C   UNL     1      39.148 -13.548  -0.829  1.00  0.00     0.028 A 
HETATM   22  C   UNL     1      37.840 -13.567  -0.373  1.00  0.00     0.117 A 
HETATM   23  N   UNL     1      37.468 -14.125   0.792  1.00  0.00    -0.271 NA
HETATM   24  C   UNL     1      38.452 -14.722   1.504  1.00  0.00     0.146 A 
ENDBRANCH   3  18
TORSDOF 5
ENDMDL
MODEL 10
REMARK VINA RESULT:      -6.7      3.017      7.263
REMARK  5 active torsions:
REMARK  status: ('A' for Active; 'I' for Inactive)
REMARK    1  A    between atoms: C_2  and  O_3 
REMARK    2  A    between atoms: O_3  and  C_4 
REMARK    3  A    between atoms: C_6  and  C_7 
REMARK    4  A    between atoms: C_7  and  N_8 
REMARK       I    between atoms: N_8  and  C_9 
REMARK       I    between atoms: C_9  and  N_10 
REMARK    5  A    between atoms: N_10  and  C_11 
ROOT
HETATM    1  N   UNL     1      42.136 -15.824   3.537  1.00  0.00    -0.335 N 
HETATM    2  C   UNL     1      42.326 -17.151   3.777  1.00  0.00     0.321 C 
HETATM    3  N   UNL     1      43.498 -17.686   3.323  1.00  0.00    -0.307 N 
HETATM    4  O   UNL     1      41.430 -17.754   4.362  1.00  0.00    -0.247 OA
HETATM    5  H   UNL     1      41.210 -15.531   3.821  1.00  0.00     0.165 HD
HETATM    6  H   UNL     1      43.867 -17.219   2.512  1.00  0.00     0.170 HD
ENDROOT
BRANCH   1   7
HETATM    7  C   UNL     1      42.923 -14.854   2.783  1.00  0.00     0.115 C 
HETATM    8  C   UNL     1      43.392 -13.750   3.735  1.00  0.00     0.037 C 
BRANCH   7   9
HETATM    9  C   UNL     1      42.117 -14.380   1.582  1.00  0.00    -0.033 A 
HETATM   10  C   UNL     1      41.897 -15.270   0.514  1.00  0.00     0.046 A 
HETATM   11  C   UNL     1      41.121 -14.918  -0.593  1.00  0.00     0.069 A 
HETATM   12  C   UNL     1      40.578 -13.640  -0.670  1.00  0.00     0.037 A 
HETATM   13  C   UNL     1      40.787 -12.738   0.373  1.00  0.00     0.003 A 
HETATM   14  C   UNL     1      41.540 -13.105   1.493  1.00  0.00     0.009 A 
BRANCH  11  15
HETATM   15  O   UNL     1      40.985 -15.902  -1.532  1.00  0.00    -0.352 OA
BRANCH  15  16
HETATM   16  C   UNL     1      41.051 -15.486  -2.895  1.00  0.00     0.171 C 
HETATM   17  C   UNL     1      39.738 -15.865  -3.557  1.00  0.00     0.034 C 
ENDBRANCH  15  16
ENDBRANCH  11  15
ENDBRANCH   7   9
ENDBRANCH   1   7
BRANCH   3  18
HETATM   18  C   UNL     1      43.919 -19.031   3.469  1.00  0.00     0.059 A 
HETATM   19  C   UNL     1      44.522 -19.596   4.600  1.00  0.00    -0.032 A 
HETATM   20  C   UNL     1      44.914 -18.834   5.834  1.00  0.00     0.050 C 
HETATM   21  C   UNL     1      44.814 -20.972   4.580  1.00  0.00     0.028 A 
HETATM   22  C   UNL     1      44.567 -21.710   3.434  1.00  0.00     0.117 A 
HETATM   23  N   UNL     1      44.059 -21.182   2.306  1.00  0.00    -0.271 NA
HETATM   24  C   UNL     1      43.752 -19.865   2.354  1.00  0.00     0.146 A 
ENDBRANCH   3  18
TORSDOF 5
ENDMDL
