MODEL 1
REMARK VINA RESULT:      -8.4      0.000      0.000
REMARK  3 active torsions:
REMARK  status: ('A' for Active; 'I' for Inactive)
REMARK    1  A    between atoms: C_2  and  N_3 
REMARK    2  A    between atoms: N_3  and  C_4 
REMARK    3  A    between atoms: C_12  and  C_13 
ROOT
HETATM    1  C   UNL     1      42.592 -15.715   3.503  1.00  0.00     0.139 A 
HETATM    2  N   UNL     1      42.335 -14.648   2.716  1.00  0.00    -0.224 NA
HETATM    3  C   UNL     1      42.619 -13.416   3.154  1.00  0.00     0.236 A 
HETATM    4  N   UNL     1      43.156 -13.080   4.323  1.00  0.00    -0.234 NA
HETATM    5  C   UNL     1      43.436 -14.152   5.080  1.00  0.00     0.113 A 
HETATM    6  C   UNL     1      43.209 -15.486   4.760  1.00  0.00     0.055 A 
HETATM    7  S   UNL     1      44.147 -13.937   6.609  1.00  0.00    -0.081 SA
HETATM    8  C   UNL     1      44.215 -15.616   6.876  1.00  0.00     0.062 A 
HETATM    9  C   UNL     1      43.705 -16.357   5.821  1.00  0.00    -0.003 A 
ENDROOT
BRANCH   9  10
HETATM   10  C   UNL     1      43.713 -17.869   5.836  1.00  0.00     0.188 C 
HETATM   11  O   UNL     1      44.524 -18.403   4.772  1.00  0.00    -0.336 OA
HETATM   12  C   UNL     1      44.558 -19.775   4.845  1.00  0.00     0.103 A 
HETATM   13  C   UNL     1      44.256 -20.483   6.015  1.00  0.00     0.102 A 
HETATM   14  C   UNL     1      44.905 -20.457   3.682  1.00  0.00     0.040 A 
HETATM   15  O   UNL     1      43.916 -19.881   7.200  1.00  0.00    -0.345 OA
HETATM   16  C   UNL     1      44.262 -21.876   6.004  1.00  0.00     0.039 A 
HETATM   17  C   UNL     1      44.157 -18.465   7.174  1.00  0.00     0.213 C 
HETATM   18  C   UNL     1      44.591 -22.562   4.834  1.00  0.00     0.003 A 
HETATM   19  C   UNL     1      44.916 -21.853   3.675  1.00  0.00     0.003 A 
ENDBRANCH   9  10
BRANCH   1  20
HETATM   20  N   UNL     1      42.264 -16.993   3.072  1.00  0.00    -0.366 N 
HETATM   21  H   UNL     1      41.307 -17.228   3.335  1.00  0.00     0.162 HD
BRANCH  20  22
HETATM   22  C   UNL     1      42.669 -17.547   1.771  1.00  0.00     0.021 C 
HETATM   23  C   UNL     1      44.159 -17.299   1.495  1.00  0.00     0.037 C 
HETATM   24  C   UNL     1      41.790 -17.020   0.629  1.00  0.00     0.037 C 
HETATM   25  C   UNL     1      42.463 -19.074   1.867  1.00  0.00     0.037 C 
ENDBRANCH  20  22
ENDBRANCH   1  20
TORSDOF 3
ENDMDL
MODEL 2
REMARK VINA RESULT:      -7.7      2.801      4.481
REMARK  3 active torsions:
REMARK  status: ('A' for Active; 'I' for Inactive)
REMARK    1  A    between atoms: C_2  and  N_3 
REMARK    2  A    between atoms: N_3  and  C_4 
REMARK    3  A    between atoms: C_12  and  C_13 
ROOT
HETATM    1  C   UNL     1      40.086 -15.114   2.865  1.00  0.00     0.139 A 
HETATM    2  N   UNL     1      39.108 -14.184   2.831  1.00  0.00    -0.224 NA
HETATM    3  C   UNL     1      38.779 -13.608   1.669  1.00  0.00     0.236 A 
HETATM    4  N   UNL     1      39.310 -13.843   0.473  1.00  0.00    -0.234 NA
HETATM    5  C   UNL     1      40.258 -14.792   0.517  1.00  0.00     0.113 A 
HETATM    6  C   UNL     1      40.700 -15.485   1.640  1.00  0.00     0.055 A 
HETATM    7  S   UNL     1      41.050 -15.255  -0.914  1.00  0.00    -0.081 SA
HETATM    8  C   UNL     1      41.975 -16.421  -0.093  1.00  0.00     0.062 A 
HETATM    9  C   UNL     1      41.701 -16.478   1.266  1.00  0.00    -0.003 A 
ENDROOT
BRANCH   9  10
HETATM   10  C   UNL     1      42.381 -17.479   2.172  1.00  0.00     0.188 C 
HETATM   11  O   UNL     1      42.835 -18.632   1.439  1.00  0.00    -0.336 OA
HETATM   12  C   UNL     1      43.498 -19.496   2.278  1.00  0.00     0.103 A 
HETATM   13  C   UNL     1      44.043 -19.098   3.504  1.00  0.00     0.102 A 
HETATM   14  C   UNL     1      43.606 -20.819   1.859  1.00  0.00     0.040 A 
HETATM   15  O   UNL     1      43.986 -17.812   3.979  1.00  0.00    -0.345 OA
HETATM   16  C   UNL     1      44.660 -20.038   4.328  1.00  0.00     0.039 A 
HETATM   17  C   UNL     1      43.543 -16.885   2.974  1.00  0.00     0.213 C 
HETATM   18  C   UNL     1      44.752 -21.368   3.918  1.00  0.00     0.003 A 
HETATM   19  C   UNL     1      44.229 -21.758   2.683  1.00  0.00     0.003 A 
ENDBRANCH   9  10
BRANCH   1  20
HETATM   20  N   UNL     1      40.460 -15.688   4.072  1.00  0.00    -0.366 N 
HETATM   21  H   UNL     1      40.855 -16.617   3.923  1.00  0.00     0.162 HD
BRANCH  20  22
HETATM   22  C   UNL     1      41.099 -14.945   5.168  1.00  0.00     0.021 C 
HETATM   23  C   UNL     1      40.073 -14.129   5.967  1.00  0.00     0.037 C 
HETATM   24  C   UNL     1      42.249 -14.064   4.663  1.00  0.00     0.037 C 
HETATM   25  C   UNL     1      41.693 -16.005   6.121  1.00  0.00     0.037 C 
ENDBRANCH  20  22
ENDBRANCH   1  20
TORSDOF 3
ENDMDL
MODEL 3
REMARK VINA RESULT:      -7.4      2.742      5.887
REMARK  3 active torsions:
REMARK  status: ('A' for Active; 'I' for Inactive)
REMARK    1  A    between atoms: C_2  and  N_3 
REMARK    2  A    between atoms: N_3  and  C_4 
REMARK    3  A    between atoms: C_12  and  C_13 
ROOT
HETATM    1  C   UNL     1      43.451 -17.823   2.493  1.00  0.00     0.139 A 
HETATM    2  N   UNL     1      43.594 -18.861   1.641  1.00  0.00    -0.224 NA
HETATM    3  C   UNL     1      43.984 -20.053   2.105  1.00  0.00     0.236 A 
HETATM    4  N   UNL     1      44.259 -20.377   3.365  1.00  0.00    -0.234 NA
HETATM    5  C   UNL     1      44.081 -19.346   4.205  1.00  0.00     0.113 A 
HETATM    6  C   UNL     1      43.673 -18.057   3.875  1.00  0.00     0.055 A 
HETATM    7  S   UNL     1      44.364 -19.558   5.868  1.00  0.00    -0.081 SA
HETATM    8  C   UNL     1      43.911 -17.954   6.207  1.00  0.00     0.062 A 
HETATM    9  C   UNL     1      43.541 -17.240   5.077  1.00  0.00    -0.003 A 
ENDROOT
BRANCH   9  10
HETATM   10  C   UNL     1      43.060 -15.809   5.163  1.00  0.00     0.188 C 
HETATM   11  O   UNL     1      41.649 -15.743   5.440  1.00  0.00    -0.336 OA
HETATM   12  C   UNL     1      41.253 -14.433   5.569  1.00  0.00     0.103 A 
HETATM   13  C   UNL     1      42.144 -13.392   5.854  1.00  0.00     0.102 A 
HETATM   14  C   UNL     1      39.897 -14.167   5.394  1.00  0.00     0.040 A 
HETATM   15  O   UNL     1      43.490 -13.578   6.049  1.00  0.00    -0.345 OA
HETATM   16  C   UNL     1      41.681 -12.080   5.922  1.00  0.00     0.039 A 
HETATM   17  C   UNL     1      43.829 -14.967   6.186  1.00  0.00     0.213 C 
HETATM   18  C   UNL     1      40.326 -11.809   5.728  1.00  0.00     0.003 A 
HETATM   19  C   UNL     1      39.434 -12.852   5.467  1.00  0.00     0.003 A 
ENDBRANCH   9  10
BRANCH   1  20
HETATM   20  N   UNL     1      43.084 -16.574   2.013  1.00  0.00    -0.366 N 
HETATM   21  H   UNL     1      43.817 -16.186   1.419  1.00  0.00     0.162 HD
BRANCH  20  22
HETATM   22  C   UNL     1      41.724 -16.234   1.567  1.00  0.00     0.021 C 
HETATM   23  C   UNL     1      40.663 -17.016   2.354  1.00  0.00     0.037 C 
HETATM   24  C   UNL     1      41.558 -16.427   0.054  1.00  0.00     0.037 C 
HETATM   25  C   UNL     1      41.526 -14.736   1.882  1.00  0.00     0.037 C 
ENDBRANCH  20  22
ENDBRANCH   1  20
TORSDOF 3
ENDMDL
MODEL 4
REMARK VINA RESULT:      -7.3      2.873      6.103
REMARK  3 active torsions:
REMARK  status: ('A' for Active; 'I' for Inactive)
REMARK    1  A    between atoms: C_2  and  N_3 
REMARK    2  A    between atoms: N_3  and  C_4 
REMARK    3  A    between atoms: C_12  and  C_13 
ROOT
HETATM    1  C   UNL     1      42.809 -17.468   4.589  1.00  0.00     0.139 A 
HETATM    2  N   UNL     1      43.101 -18.609   5.250  1.00  0.00    -0.224 NA
HETATM    3  C   UNL     1      43.809 -18.558   6.384  1.00  0.00     0.236 A 
HETATM    4  N   UNL     1      44.286 -17.473   6.988  1.00  0.00    -0.234 NA
HETATM    5  C   UNL     1      43.960 -16.346   6.338  1.00  0.00     0.113 A 
HETATM    6  C   UNL     1      43.227 -16.238   5.161  1.00  0.00     0.055 A 
HETATM    7  S   UNL     1      44.460 -14.844   6.959  1.00  0.00    -0.081 SA
HETATM    8  C   UNL     1      43.681 -14.002   5.704  1.00  0.00     0.062 A 
HETATM    9  C   UNL     1      43.035 -14.836   4.805  1.00  0.00    -0.003 A 
ENDROOT
BRANCH   9  10
HETATM   10  C   UNL     1      42.242 -14.288   3.640  1.00  0.00     0.188 C 
HETATM   11  O   UNL     1      40.900 -14.811   3.623  1.00  0.00    -0.336 OA
HETATM   12  C   UNL     1      40.188 -14.252   2.589  1.00  0.00     0.103 A 
HETATM   13  C   UNL     1      40.555 -13.049   1.973  1.00  0.00     0.102 A 
HETATM   14  C   UNL     1      39.060 -14.945   2.157  1.00  0.00     0.040 A 
HETATM   15  O   UNL     1      41.645 -12.306   2.350  1.00  0.00    -0.345 OA
HETATM   16  C   UNL     1      39.814 -12.565   0.897  1.00  0.00     0.039 A 
HETATM   17  C   UNL     1      42.202 -12.758   3.595  1.00  0.00     0.213 C 
HETATM   18  C   UNL     1      38.695 -13.269   0.450  1.00  0.00     0.003 A 
HETATM   19  C   UNL     1      38.316 -14.455   1.081  1.00  0.00     0.003 A 
ENDBRANCH   9  10
BRANCH   1  20
HETATM   20  N   UNL     1      42.109 -17.517   3.392  1.00  0.00    -0.366 N 
HETATM   21  H   UNL     1      41.422 -16.765   3.344  1.00  0.00     0.162 HD
BRANCH  20  22
HETATM   22  C   UNL     1      42.727 -17.832   2.095  1.00  0.00     0.021 C 
HETATM   23  C   UNL     1      42.917 -19.345   1.915  1.00  0.00     0.037 C 
HETATM   24  C   UNL     1      44.045 -17.072   1.893  1.00  0.00     0.037 C 
HETATM   25  C   UNL     1      41.732 -17.358   1.014  1.00  0.00     0.037 C 
ENDBRANCH  20  22
ENDBRANCH   1  20
TORSDOF 3
ENDMDL
MODEL 5
REMARK VINA RESULT:      -7.3      2.209      4.174
REMARK  3 active torsions:
REMARK  status: ('A' for Active; 'I' for Inactive)
REMARK    1  A    between atoms: C_2  and  N_3 
REMARK    2  A    between atoms: N_3  and  C_4 
REMARK    3  A    between atoms: C_12  and  C_13 
ROOT
HETATM    1  C   UNL     1      42.281 -14.469   4.729  1.00  0.00     0.139 A 
HETATM    2  N   UNL     1      41.903 -13.344   5.374  1.00  0.00    -0.224 NA
HETATM    3  C   UNL     1      40.782 -12.712   5.006  1.00  0.00     0.236 A 
HETATM    4  N   UNL     1      39.938 -13.064   4.040  1.00  0.00    -0.234 NA
HETATM    5  C   UNL     1      40.309 -14.200   3.431  1.00  0.00     0.113 A 
HETATM    6  C   UNL     1      41.434 -14.970   3.706  1.00  0.00     0.055 A 
HETATM    7  S   UNL     1      39.351 -14.832   2.177  1.00  0.00    -0.081 SA
HETATM    8  C   UNL     1      40.381 -16.173   1.989  1.00  0.00     0.062 A 
HETATM    9  C   UNL     1      41.455 -16.164   2.866  1.00  0.00    -0.003 A 
ENDROOT
BRANCH   9  10
HETATM   10  C   UNL     1      42.466 -17.288   2.897  1.00  0.00     0.188 C 
HETATM   11  O   UNL     1      42.391 -18.031   4.128  1.00  0.00    -0.336 OA
HETATM   12  C   UNL     1      43.280 -19.078   4.103  1.00  0.00     0.103 A 
HETATM   13  C   UNL     1      43.807 -19.603   2.917  1.00  0.00     0.102 A 
HETATM   14  C   UNL     1      43.655 -19.612   5.333  1.00  0.00     0.040 A 
HETATM   15  O   UNL     1      43.477 -19.137   1.669  1.00  0.00    -0.345 OA
HETATM   16  C   UNL     1      44.742 -20.634   2.968  1.00  0.00     0.039 A 
HETATM   17  C   UNL     1      42.351 -18.244   1.707  1.00  0.00     0.213 C 
HETATM   18  C   UNL     1      45.134 -21.157   4.201  1.00  0.00     0.003 A 
HETATM   19  C   UNL     1      44.589 -20.649   5.382  1.00  0.00     0.003 A 
ENDBRANCH   9  10
BRANCH   1  20
HETATM   20  N   UNL     1      43.462 -15.108   5.079  1.00  0.00    -0.366 N 
HETATM   21  H   UNL     1      44.262 -14.658   4.633  1.00  0.00     0.162 HD
BRANCH  20  22
HETATM   22  C   UNL     1      43.750 -15.614   6.430  1.00  0.00     0.021 C 
HETATM   23  C   UNL     1      42.541 -16.354   7.022  1.00  0.00     0.037 C 
HETATM   24  C   UNL     1      44.239 -14.499   7.363  1.00  0.00     0.037 C 
HETATM   25  C   UNL     1      44.892 -16.641   6.273  1.00  0.00     0.037 C 
ENDBRANCH  20  22
ENDBRANCH   1  20
TORSDOF 3
ENDMDL
MODEL 6
REMARK VINA RESULT:      -7.3      3.158      6.631
REMARK  3 active torsions:
REMARK  status: ('A' for Active; 'I' for Inactive)
REMARK    1  A    between atoms: C_2  and  N_3 
REMARK    2  A    between atoms: N_3  and  C_4 
REMARK    3  A    between atoms: C_12  and  C_13 
ROOT
HETATM    1  C   UNL     1      43.612 -17.475   4.587  1.00  0.00     0.139 A 
HETATM    2  N   UNL     1      44.379 -17.665   5.683  1.00  0.00    -0.224 NA
HETATM    3  C   UNL     1      44.998 -18.837   5.865  1.00  0.00     0.236 A 
HETATM    4  N   UNL     1      44.964 -19.899   5.066  1.00  0.00    -0.234 NA
HETATM    5  C   UNL     1      44.225 -19.685   3.967  1.00  0.00     0.113 A 
HETATM    6  C   UNL     1      43.535 -18.524   3.635  1.00  0.00     0.055 A 
HETATM    7  S   UNL     1      44.070 -20.916   2.806  1.00  0.00    -0.081 SA
HETATM    8  C   UNL     1      43.113 -19.929   1.804  1.00  0.00     0.062 A 
HETATM    9  C   UNL     1      42.899 -18.663   2.328  1.00  0.00    -0.003 A 
ENDROOT
BRANCH   9  10
HETATM   10  C   UNL     1      42.113 -17.614   1.576  1.00  0.00     0.188 C 
HETATM   11  O   UNL     1      41.098 -17.020   2.406  1.00  0.00    -0.336 OA
HETATM   12  C   UNL     1      40.439 -16.032   1.713  1.00  0.00     0.103 A 
HETATM   13  C   UNL     1      40.978 -15.403   0.584  1.00  0.00     0.102 A 
HETATM   14  C   UNL     1      39.178 -15.672   2.181  1.00  0.00     0.040 A 
HETATM   15  O   UNL     1      42.216 -15.697   0.072  1.00  0.00    -0.345 OA
HETATM   16  C   UNL     1      40.234 -14.444  -0.098  1.00  0.00     0.039 A 
HETATM   17  C   UNL     1      42.989 -16.518   0.963  1.00  0.00     0.213 C 
HETATM   18  C   UNL     1      38.962 -14.096   0.358  1.00  0.00     0.003 A 
HETATM   19  C   UNL     1      38.435 -14.706   1.498  1.00  0.00     0.003 A 
ENDBRANCH   9  10
BRANCH   1  20
HETATM   20  N   UNL     1      42.936 -16.276   4.411  1.00  0.00    -0.366 N 
HETATM   21  H   UNL     1      42.418 -16.279   3.532  1.00  0.00     0.162 HD
BRANCH  20  22
HETATM   22  C   UNL     1      42.251 -15.555   5.495  1.00  0.00     0.021 C 
HETATM   23  C   UNL     1      43.254 -14.889   6.448  1.00  0.00     0.037 C 
HETATM   24  C   UNL     1      41.273 -16.462   6.252  1.00  0.00     0.037 C 
HETATM   25  C   UNL     1      41.436 -14.431   4.820  1.00  0.00     0.037 C 
ENDBRANCH  20  22
ENDBRANCH   1  20
TORSDOF 3
ENDMDL
MODEL 7
REMARK VINA RESULT:      -7.2      2.527      5.952
REMARK  3 active torsions:
REMARK  status: ('A' for Active; 'I' for Inactive)
REMARK    1  A    between atoms: C_2  and  N_3 
REMARK    2  A    between atoms: N_3  and  C_4 
REMARK    3  A    between atoms: C_12  and  C_13 
ROOT
HETATM    1  C   UNL     1      44.055 -18.578   4.449  1.00  0.00     0.139 A 
HETATM    2  N   UNL     1      44.351 -19.864   4.737  1.00  0.00    -0.224 NA
HETATM    3  C   UNL     1      44.316 -20.285   6.006  1.00  0.00     0.236 A 
HETATM    4  N   UNL     1      44.006 -19.571   7.084  1.00  0.00    -0.234 NA
HETATM    5  C   UNL     1      43.683 -18.305   6.779  1.00  0.00     0.113 A 
HETATM    6  C   UNL     1      43.663 -17.727   5.514  1.00  0.00     0.055 A 
HETATM    7  S   UNL     1      43.236 -17.231   8.018  1.00  0.00    -0.081 SA
HETATM    8  C   UNL     1      42.962 -15.974   6.906  1.00  0.00     0.062 A 
HETATM    9  C   UNL     1      43.201 -16.345   5.592  1.00  0.00    -0.003 A 
ENDROOT
BRANCH   9  10
HETATM   10  C   UNL     1      42.973 -15.390   4.442  1.00  0.00     0.188 C 
HETATM   11  O   UNL     1      41.570 -15.171   4.208  1.00  0.00    -0.336 OA
HETATM   12  C   UNL     1      41.395 -14.257   3.197  1.00  0.00     0.103 A 
HETATM   13  C   UNL     1      42.392 -13.356   2.804  1.00  0.00     0.102 A 
HETATM   14  C   UNL     1      40.161 -14.262   2.552  1.00  0.00     0.040 A 
HETATM   15  O   UNL     1      43.627 -13.285   3.398  1.00  0.00    -0.345 OA
HETATM   16  C   UNL     1      42.163 -12.489   1.738  1.00  0.00     0.039 A 
HETATM   17  C   UNL     1      43.685 -14.045   4.616  1.00  0.00     0.213 C 
HETATM   18  C   UNL     1      40.934 -12.506   1.078  1.00  0.00     0.003 A 
HETATM   19  C   UNL     1      39.932 -13.389   1.486  1.00  0.00     0.003 A 
ENDBRANCH   9  10
BRANCH   1  20
HETATM   20  N   UNL     1      44.127 -18.124   3.139  1.00  0.00    -0.366 N 
HETATM   21  H   UNL     1      45.097 -18.069   2.829  1.00  0.00     0.162 HD
BRANCH  20  22
HETATM   22  C   UNL     1      43.192 -18.532   2.079  1.00  0.00     0.021 C 
HETATM   23  C   UNL     1      41.754 -18.104   2.404  1.00  0.00     0.037 C 
HETATM   24  C   UNL     1      43.280 -20.036   1.790  1.00  0.00     0.037 C 
HETATM   25  C   UNL     1      43.625 -17.774   0.805  1.00  0.00     0.037 C 
ENDBRANCH  20  22
ENDBRANCH   1  20
TORSDOF 3
ENDMDL
MODEL 8
REMARK VINA RESULT:      -7.1      3.087      4.315
REMARK  3 active torsions:
REMARK  status: ('A' for Active; 'I' for Inactive)
REMARK    1  A    between atoms: C_2  and  N_3 
REMARK    2  A    between atoms: N_3  and  C_4 
REMARK    3  A    between atoms: C_12  and  C_13 
ROOT
HETATM    1  C   UNL     1      39.323 -13.460   2.364  1.00  0.00     0.139 A 
HETATM    2  N   UNL     1      38.723 -12.339   1.910  1.00  0.00    -0.224 NA
HETATM    3  C   UNL     1      38.390 -11.369   2.769  1.00  0.00     0.236 A 
HETATM    4  N   UNL     1      38.587 -11.354   4.084  1.00  0.00    -0.234 NA
HETATM    5  C   UNL     1      39.213 -12.459   4.516  1.00  0.00     0.113 A 
HETATM    6  C   UNL     1      39.628 -13.542   3.748  1.00  0.00     0.055 A 
HETATM    7  S   UNL     1      39.576 -12.627   6.169  1.00  0.00    -0.081 SA
HETATM    8  C   UNL     1      40.334 -14.127   5.908  1.00  0.00     0.062 A 
HETATM    9  C   UNL     1      40.325 -14.520   4.578  1.00  0.00    -0.003 A 
ENDROOT
BRANCH   9  10
HETATM   10  C   UNL     1      40.986 -15.801   4.123  1.00  0.00     0.188 C 
HETATM   11  O   UNL     1      42.191 -15.537   3.380  1.00  0.00    -0.336 OA
HETATM   12  C   UNL     1      42.799 -16.719   3.030  1.00  0.00     0.103 A 
HETATM   13  C   UNL     1      42.547 -17.929   3.686  1.00  0.00     0.102 A 
HETATM   14  C   UNL     1      43.695 -16.672   1.964  1.00  0.00     0.040 A 
HETATM   15  O   UNL     1      41.688 -18.051   4.748  1.00  0.00    -0.345 OA
HETATM   16  C   UNL     1      43.163 -19.099   3.246  1.00  0.00     0.039 A 
HETATM   17  C   UNL     1      41.285 -16.773   5.267  1.00  0.00     0.213 C 
HETATM   18  C   UNL     1      44.046 -19.058   2.166  1.00  0.00     0.003 A 
HETATM   19  C   UNL     1      44.314 -17.845   1.528  1.00  0.00     0.003 A 
ENDBRANCH   9  10
BRANCH   1  20
HETATM   20  N   UNL     1      39.636 -14.487   1.485  1.00  0.00    -0.366 N 
HETATM   21  H   UNL     1      38.804 -15.028   1.252  1.00  0.00     0.162 HD
BRANCH  20  22
HETATM   22  C   UNL     1      40.580 -14.348   0.366  1.00  0.00     0.021 C 
HETATM   23  C   UNL     1      41.099 -15.714  -0.104  1.00  0.00     0.037 C 
HETATM   24  C   UNL     1      41.733 -13.396   0.710  1.00  0.00     0.037 C 
HETATM   25  C   UNL     1      39.781 -13.728  -0.801  1.00  0.00     0.037 C 
ENDBRANCH  20  22
ENDBRANCH   1  20
TORSDOF 3
ENDMDL
MODEL 9
REMARK VINA RESULT:      -7.0      3.111      6.590
REMARK  3 active torsions:
REMARK  status: ('A' for Active; 'I' for Inactive)
REMARK    1  A    between atoms: C_2  and  N_3 
REMARK    2  A    between atoms: N_3  and  C_4 
REMARK    3  A    between atoms: C_12  and  C_13 
ROOT
HETATM    1  C   UNL     1      43.504 -16.881   5.227  1.00  0.00     0.139 A 
HETATM    2  N   UNL     1      44.301 -17.180   6.275  1.00  0.00    -0.224 NA
HETATM    3  C   UNL     1      45.015 -18.312   6.266  1.00  0.00     0.236 A 
HETATM    4  N   UNL     1      45.053 -19.233   5.307  1.00  0.00    -0.234 NA
HETATM    5  C   UNL     1      44.281 -18.907   4.259  1.00  0.00     0.113 A 
HETATM    6  C   UNL     1      43.494 -17.768   4.119  1.00  0.00     0.055 A 
HETATM    7  S   UNL     1      44.205 -19.947   2.916  1.00  0.00    -0.081 SA
HETATM    8  C   UNL     1      43.156 -18.894   2.089  1.00  0.00     0.062 A 
HETATM    9  C   UNL     1      42.851 -17.750   2.809  1.00  0.00    -0.003 A 
ENDROOT
BRANCH   9  10
HETATM   10  C   UNL     1      41.971 -16.662   2.237  1.00  0.00     0.188 C 
HETATM   11  O   UNL     1      41.916 -16.729   0.800  1.00  0.00    -0.336 OA
HETATM   12  C   UNL     1      41.065 -15.766   0.313  1.00  0.00     0.103 A 
HETATM   13  C   UNL     1      40.077 -15.156   1.095  1.00  0.00     0.102 A 
HETATM   14  C   UNL     1      41.229 -15.399  -1.020  1.00  0.00     0.040 A 
HETATM   15  O   UNL     1      39.849 -15.471   2.411  1.00  0.00    -0.345 OA
HETATM   16  C   UNL     1      39.281 -14.151   0.550  1.00  0.00     0.039 A 
HETATM   17  C   UNL     1      40.551 -16.660   2.811  1.00  0.00     0.213 C 
HETATM   18  C   UNL     1      39.457 -13.769  -0.781  1.00  0.00     0.003 A 
HETATM   19  C   UNL     1      40.427 -14.395  -1.566  1.00  0.00     0.003 A 
ENDBRANCH   9  10
BRANCH   1  20
HETATM   20  N   UNL     1      42.731 -15.729   5.247  1.00  0.00    -0.366 N 
HETATM   21  H   UNL     1      41.958 -15.823   5.906  1.00  0.00     0.162 HD
BRANCH  20  22
HETATM   22  C   UNL     1      43.288 -14.369   5.186  1.00  0.00     0.021 C 
HETATM   23  C   UNL     1      43.828 -14.046   3.785  1.00  0.00     0.037 C 
HETATM   24  C   UNL     1      44.354 -14.141   6.266  1.00  0.00     0.037 C 
HETATM   25  C   UNL     1      42.113 -13.406   5.463  1.00  0.00     0.037 C 
ENDBRANCH  20  22
ENDBRANCH   1  20
TORSDOF 3
ENDMDL
MODEL 10
REMARK VINA RESULT:      -6.9      3.266      6.770
REMARK  3 active torsions:
REMARK  status: ('A' for Active; 'I' for Inactive)
REMARK    1  A    between atoms: C_2  and  N_3 
REMARK    2  A    between atoms: N_3  and  C_4 
REMARK    3  A    between atoms: C_12  and  C_13 
ROOT
HETATM    1  C   UNL     1      42.741 -16.252   4.680  1.00  0.00     0.139 A 
HETATM    2  N   UNL     1      43.386 -16.298   5.866  1.00  0.00    -0.224 NA
HETATM    3  C   UNL     1      44.141 -17.360   6.171  1.00  0.00     0.236 A 
HETATM    4  N   UNL     1      44.361 -18.435   5.420  1.00  0.00    -0.234 NA
HETATM    5  C   UNL     1      43.741 -18.361   4.232  1.00  0.00     0.113 A 
HETATM    6  C   UNL     1      42.936 -17.324   3.771  1.00  0.00     0.055 A 
HETATM    7  S   UNL     1      43.911 -19.630   3.115  1.00  0.00    -0.081 SA
HETATM    8  C   UNL     1      42.953 -18.822   1.965  1.00  0.00     0.062 A 
HETATM    9  C   UNL     1      42.494 -17.590   2.405  1.00  0.00    -0.003 A 
ENDROOT
BRANCH   9  10
HETATM   10  C   UNL     1      41.664 -16.689   1.520  1.00  0.00     0.188 C 
HETATM   11  O   UNL     1      40.515 -16.176   2.220  1.00  0.00    -0.336 OA
HETATM   12  C   UNL     1      39.811 -15.317   1.410  1.00  0.00     0.103 A 
HETATM   13  C   UNL     1      40.375 -14.692   0.290  1.00  0.00     0.102 A 
HETATM   14  C   UNL     1      38.479 -15.086   1.744  1.00  0.00     0.040 A 
HETATM   15  O   UNL     1      41.681 -14.862  -0.096  1.00  0.00    -0.345 OA
HETATM   16  C   UNL     1      39.590 -13.871  -0.516  1.00  0.00     0.039 A 
HETATM   17  C   UNL     1      42.458 -15.531   0.911  1.00  0.00     0.213 C 
HETATM   18  C   UNL     1      38.249 -13.655  -0.193  1.00  0.00     0.003 A 
HETATM   19  C   UNL     1      37.695 -14.259   0.938  1.00  0.00     0.003 A 
ENDBRANCH   9  10
BRANCH   1  20
HETATM   20  N   UNL     1      41.925 -15.172   4.373  1.00  0.00    -0.366 N 
HETATM   21  H   UNL     1      41.004 -15.285   4.795  1.00  0.00     0.162 HD
BRANCH  20  22
HETATM   22  C   UNL     1      42.391 -13.778   4.341  1.00  0.00     0.021 C 
HETATM   23  C   UNL     1      42.417 -13.162   5.748  1.00  0.00     0.037 C 
HETATM   24  C   UNL     1      41.566 -12.925   3.369  1.00  0.00     0.037 C 
HETATM   25  C   UNL     1      43.846 -13.818   3.825  1.00  0.00     0.037 C 
ENDBRANCH  20  22
ENDBRANCH   1  20
TORSDOF 3
ENDMDL
