MODEL 1
REMARK VINA RESULT:      -9.8      0.000      0.000
REMARK  8 active torsions:
REMARK  status: ('A' for Active; 'I' for Inactive)
REMARK    1  A    between atoms: O_2  and  C_3 
REMARK    2  A    between atoms: C_5  and  C_6 
REMARK    3  A    between atoms: N_7  and  N_8 
REMARK    4  A    between atoms: C_19  and  C_20 
REMARK       I    between atoms: C_20  and  N_21 
REMARK    5  A    between atoms: N_21  and  C_22 
REMARK    6  A    between atoms: C_22  and  C_23 
REMARK    7  A    between atoms: C_23  and  C_24 
REMARK    8  A    between atoms: C_31  and  N_32 
ROOT
HETATM    1  N   UNL     1      41.106 -16.383   2.261  1.00  0.00    -0.197 N 
HETATM    2  C   UNL     1      41.931 -17.382   2.759  1.00  0.00     0.183 A 
HETATM    3  C   UNL     1      42.232 -17.042   4.074  1.00  0.00     0.125 A 
HETATM    4  N   UNL     1      43.114 -17.765   4.813  1.00  0.00    -0.242 NA
HETATM    5  C   UNL     1      43.612 -18.844   4.192  1.00  0.00     0.086 A 
HETATM    6  C   UNL     1      43.275 -19.187   2.855  1.00  0.00     0.088 A 
HETATM    7  N   UNL     1      42.436 -18.454   2.102  1.00  0.00    -0.225 NA
HETATM    8  C   UNL     1      44.504 -19.647   4.890  1.00  0.00     0.034 A 
HETATM    9  C   UNL     1      45.074 -20.780   4.309  1.00  0.00     0.002 A 
HETATM   10  C   UNL     1      44.744 -21.119   3.005  1.00  0.00     0.002 A 
HETATM   11  C   UNL     1      43.849 -20.320   2.292  1.00  0.00     0.034 A 
HETATM   12  C   UNL     1      41.545 -15.849   4.405  1.00  0.00     0.110 C 
HETATM   13  C   UNL     1      40.728 -15.567   3.323  1.00  0.00     0.143 C 
ENDROOT
BRANCH  12  14
HETATM   14  C   UNL     1      41.724 -14.974   5.550  1.00  0.00     0.257 C 
HETATM   15  N   UNL     1      43.021 -14.950   6.024  1.00  0.00    -0.356 N 
HETATM   16  H   UNL     1      43.639 -15.667   5.652  1.00  0.00     0.162 HD
HETATM   17  O   UNL     1      40.857 -14.202   5.948  1.00  0.00    -0.267 OA
BRANCH  15  18
HETATM   18  C   UNL     1      43.631 -13.661   6.291  1.00  0.00     0.127 C 
BRANCH  18  19
HETATM   19  C   UNL     1      44.676 -13.739   7.420  1.00  0.00     0.053 C 
BRANCH  19  20
HETATM   20  C   UNL     1      44.664 -12.572   8.394  1.00  0.00    -0.082 C 
HETATM   21  C   UNL     1      43.328 -11.926   8.692  1.00  0.00     0.034 C 
HETATM   22  C   UNL     1      43.440 -10.589   9.438  1.00  0.00     0.005 C 
HETATM   23  C   UNL     1      44.482 -10.655  10.549  1.00  0.00     0.004 C 
HETATM   24  C   UNL     1      45.853 -11.032   9.992  1.00  0.00     0.027 C 
HETATM   25  C   UNL     1      45.796 -12.144   8.985  1.00  0.00    -0.024 C 
ENDBRANCH  19  20
ENDBRANCH  18  19
ENDBRANCH  15  18
ENDBRANCH  12  14
BRANCH  13  26
HETATM   26  N   UNL     1      39.827 -14.568   3.145  1.00  0.00    -0.383 N 
HETATM   27  H   UNL     1      38.971 -14.535   3.700  1.00  0.00     0.157 HD
HETATM   28  H   UNL     1      39.829 -14.016   2.291  1.00  0.00     0.157 HD
ENDBRANCH  13  26
BRANCH   1  29
HETATM   29  N   UNL     1      40.778 -16.030   0.975  1.00  0.00    -0.176 NA
HETATM   30  C   UNL     1      41.691 -15.410   0.302  1.00  0.00     0.150 C 
BRANCH  30  31
HETATM   31  C   UNL     1      41.353 -14.736  -0.970  1.00  0.00    -0.014 A 
HETATM   32  C   UNL     1      40.909 -15.488  -2.065  1.00  0.00     0.049 A 
HETATM   33  C   UNL     1      40.439 -14.841  -3.206  1.00  0.00     0.069 A 
HETATM   34  C   UNL     1      40.444 -13.444  -3.252  1.00  0.00     0.037 A 
HETATM   35  C   UNL     1      40.896 -12.695  -2.163  1.00  0.00     0.004 A 
HETATM   36  C   UNL     1      41.347 -13.341  -1.012  1.00  0.00     0.013 A 
BRANCH  33  37
HETATM   37  O   UNL     1      39.938 -15.454  -4.323  1.00  0.00    -0.356 OA
HETATM   38  C   UNL     1      38.735 -16.197  -4.156  1.00  0.00     0.210 C 
ENDBRANCH  33  37
ENDBRANCH  30  31
ENDBRANCH   1  29
TORSDOF 8
ENDMDL
MODEL 2
REMARK VINA RESULT:      -9.5      1.023      1.783
REMARK  8 active torsions:
REMARK  status: ('A' for Active; 'I' for Inactive)
REMARK    1  A    between atoms: O_2  and  C_3 
REMARK    2  A    between atoms: C_5  and  C_6 
REMARK    3  A    between atoms: N_7  and  N_8 
REMARK    4  A    between atoms: C_19  and  C_20 
REMARK       I    between atoms: C_20  and  N_21 
REMARK    5  A    between atoms: N_21  and  C_22 
REMARK    6  A    between atoms: C_22  and  C_23 
REMARK    7  A    between atoms: C_23  and  C_24 
REMARK    8  A    between atoms: C_31  and  N_32 
ROOT
HETATM    1  N   UNL     1      41.007 -16.248   2.135  1.00  0.00    -0.197 N 
HETATM    2  C   UNL     1      41.812 -17.279   2.598  1.00  0.00     0.183 A 
HETATM    3  C   UNL     1      42.110 -16.995   3.926  1.00  0.00     0.125 A 
HETATM    4  N   UNL     1      42.975 -17.762   4.642  1.00  0.00    -0.242 NA
HETATM    5  C   UNL     1      43.459 -18.824   3.982  1.00  0.00     0.086 A 
HETATM    6  C   UNL     1      43.124 -19.109   2.631  1.00  0.00     0.088 A 
HETATM    7  N   UNL     1      42.303 -18.333   1.902  1.00  0.00    -0.225 NA
HETATM    8  C   UNL     1      44.333 -19.669   4.653  1.00  0.00     0.034 A 
HETATM    9  C   UNL     1      44.887 -20.788   4.032  1.00  0.00     0.002 A 
HETATM   10  C   UNL     1      44.559 -21.070   2.713  1.00  0.00     0.002 A 
HETATM   11  C   UNL     1      43.682 -20.229   2.027  1.00  0.00     0.034 A 
HETATM   12  C   UNL     1      41.441 -15.804   4.299  1.00  0.00     0.110 C 
HETATM   13  C   UNL     1      40.636 -15.466   3.225  1.00  0.00     0.143 C 
ENDROOT
BRANCH  12  14
HETATM   14  C   UNL     1      41.628 -14.978   5.478  1.00  0.00     0.257 C 
HETATM   15  N   UNL     1      42.943 -14.908   5.897  1.00  0.00    -0.356 N 
HETATM   16  H   UNL     1      43.579 -15.573   5.462  1.00  0.00     0.162 HD
HETATM   17  O   UNL     1      40.742 -14.273   5.952  1.00  0.00    -0.267 OA
BRANCH  15  18
HETATM   18  C   UNL     1      43.498 -13.604   6.202  1.00  0.00     0.127 C 
BRANCH  18  19
HETATM   19  C   UNL     1      44.619 -13.685   7.255  1.00  0.00     0.053 C 
BRANCH  19  20
HETATM   20  C   UNL     1      44.537 -12.654   8.369  1.00  0.00    -0.082 C 
HETATM   21  C   UNL     1      45.734 -12.519   9.285  1.00  0.00     0.034 C 
HETATM   22  C   UNL     1      45.459 -11.685  10.543  1.00  0.00     0.005 C 
HETATM   23  C   UNL     1      44.646 -10.437  10.221  1.00  0.00     0.004 C 
HETATM   24  C   UNL     1      43.316 -10.805   9.566  1.00  0.00     0.027 C 
HETATM   25  C   UNL     1      43.448 -11.875   8.521  1.00  0.00    -0.024 C 
ENDBRANCH  19  20
ENDBRANCH  18  19
ENDBRANCH  15  18
ENDBRANCH  12  14
BRANCH  13  26
HETATM   26  N   UNL     1      39.753 -14.447   3.081  1.00  0.00    -0.383 N 
HETATM   27  H   UNL     1      38.751 -14.630   3.028  1.00  0.00     0.157 HD
HETATM   28  H   UNL     1      40.062 -13.540   2.738  1.00  0.00     0.157 HD
ENDBRANCH  13  26
BRANCH   1  29
HETATM   29  N   UNL     1      40.692 -15.839   0.861  1.00  0.00    -0.176 NA
HETATM   30  C   UNL     1      41.669 -15.373   0.154  1.00  0.00     0.150 C 
BRANCH  30  31
HETATM   31  C   UNL     1      41.397 -14.646  -1.106  1.00  0.00    -0.014 A 
HETATM   32  C   UNL     1      41.989 -13.396  -1.335  1.00  0.00     0.049 A 
HETATM   33  C   UNL     1      41.862 -12.788  -2.582  1.00  0.00     0.069 A 
HETATM   34  C   UNL     1      41.120 -13.423  -3.581  1.00  0.00     0.037 A 
HETATM   35  C   UNL     1      40.522 -14.664  -3.349  1.00  0.00     0.004 A 
HETATM   36  C   UNL     1      40.665 -15.284  -2.108  1.00  0.00     0.013 A 
BRANCH  33  37
HETATM   37  O   UNL     1      42.425 -11.596  -2.950  1.00  0.00    -0.356 OA
HETATM   38  C   UNL     1      42.285 -11.221  -4.316  1.00  0.00     0.210 C 
ENDBRANCH  33  37
ENDBRANCH  30  31
ENDBRANCH   1  29
TORSDOF 8
ENDMDL
MODEL 3
REMARK VINA RESULT:      -9.3      3.000      7.187
REMARK  8 active torsions:
REMARK  status: ('A' for Active; 'I' for Inactive)
REMARK    1  A    between atoms: O_2  and  C_3 
REMARK    2  A    between atoms: C_5  and  C_6 
REMARK    3  A    between atoms: N_7  and  N_8 
REMARK    4  A    between atoms: C_19  and  C_20 
REMARK       I    between atoms: C_20  and  N_21 
REMARK    5  A    between atoms: N_21  and  C_22 
REMARK    6  A    between atoms: C_22  and  C_23 
REMARK    7  A    between atoms: C_23  and  C_24 
REMARK    8  A    between atoms: C_31  and  N_32 
ROOT
HETATM    1  N   UNL     1      42.616 -16.074   1.035  1.00  0.00    -0.197 N 
HETATM    2  C   UNL     1      41.736 -15.543   0.103  1.00  0.00     0.183 A 
HETATM    3  C   UNL     1      41.079 -14.485   0.722  1.00  0.00     0.125 A 
HETATM    4  N   UNL     1      40.066 -13.818   0.108  1.00  0.00    -0.242 NA
HETATM    5  C   UNL     1      39.804 -14.227  -1.142  1.00  0.00     0.086 A 
HETATM    6  C   UNL     1      40.502 -15.296  -1.765  1.00  0.00     0.088 A 
HETATM    7  N   UNL     1      41.475 -15.989  -1.150  1.00  0.00    -0.225 NA
HETATM    8  C   UNL     1      38.796 -13.579  -1.844  1.00  0.00     0.034 A 
HETATM    9  C   UNL     1      38.456 -13.953  -3.144  1.00  0.00     0.002 A 
HETATM   10  C   UNL     1      39.138 -14.995  -3.756  1.00  0.00     0.002 A 
HETATM   11  C   UNL     1      40.153 -15.655  -3.061  1.00  0.00     0.034 A 
HETATM   12  C   UNL     1      41.596 -14.331   2.031  1.00  0.00     0.110 C 
HETATM   13  C   UNL     1      42.658 -15.214   2.128  1.00  0.00     0.143 C 
ENDROOT
BRANCH  12  14
HETATM   14  C   UNL     1      41.076 -13.546   3.136  1.00  0.00     0.257 C 
HETATM   15  N   UNL     1      40.232 -14.258   3.966  1.00  0.00    -0.356 N 
HETATM   16  H   UNL     1      39.929 -15.163   3.615  1.00  0.00     0.162 HD
HETATM   17  O   UNL     1      41.479 -12.418   3.407  1.00  0.00    -0.267 OA
BRANCH  15  18
HETATM   18  C   UNL     1      40.442 -14.169   5.398  1.00  0.00     0.127 C 
BRANCH  18  19
HETATM   19  C   UNL     1      40.478 -15.557   6.064  1.00  0.00     0.053 C 
BRANCH  19  20
HETATM   20  C   UNL     1      41.868 -16.130   6.293  1.00  0.00    -0.082 C 
HETATM   21  C   UNL     1      42.033 -17.629   6.175  1.00  0.00     0.034 C 
HETATM   22  C   UNL     1      43.375 -18.148   6.706  1.00  0.00     0.005 C 
HETATM   23  C   UNL     1      44.531 -17.252   6.274  1.00  0.00     0.004 C 
HETATM   24  C   UNL     1      44.323 -15.819   6.759  1.00  0.00     0.027 C 
HETATM   25  C   UNL     1      42.916 -15.330   6.570  1.00  0.00    -0.024 C 
ENDBRANCH  19  20
ENDBRANCH  18  19
ENDBRANCH  15  18
ENDBRANCH  12  14
BRANCH  13  26
HETATM   26  N   UNL     1      43.525 -15.428   3.148  1.00  0.00    -0.383 N 
HETATM   27  H   UNL     1      44.521 -15.558   2.966  1.00  0.00     0.157 HD
HETATM   28  H   UNL     1      43.190 -15.749   4.053  1.00  0.00     0.157 HD
ENDBRANCH  13  26
BRANCH   1  29
HETATM   29  N   UNL     1      43.259 -17.287   1.093  1.00  0.00    -0.176 NA
HETATM   30  C   UNL     1      42.655 -18.223   1.748  1.00  0.00     0.150 C 
BRANCH  30  31
HETATM   31  C   UNL     1      43.376 -19.461   2.117  1.00  0.00    -0.014 A 
HETATM   32  C   UNL     1      44.072 -19.530   3.332  1.00  0.00     0.049 A 
HETATM   33  C   UNL     1      44.614 -20.744   3.752  1.00  0.00     0.069 A 
HETATM   34  C   UNL     1      44.480 -21.871   2.937  1.00  0.00     0.037 A 
HETATM   35  C   UNL     1      43.794 -21.799   1.721  1.00  0.00     0.004 A 
HETATM   36  C   UNL     1      43.233 -20.590   1.310  1.00  0.00     0.013 A 
BRANCH  33  37
HETATM   37  O   UNL     1      45.275 -20.958   4.930  1.00  0.00    -0.356 OA
HETATM   38  C   UNL     1      44.847 -22.073   5.706  1.00  0.00     0.210 C 
ENDBRANCH  33  37
ENDBRANCH  30  31
ENDBRANCH   1  29
TORSDOF 8
ENDMDL
MODEL 4
REMARK VINA RESULT:      -9.2      2.156      3.495
REMARK  8 active torsions:
REMARK  status: ('A' for Active; 'I' for Inactive)
REMARK    1  A    between atoms: O_2  and  C_3 
REMARK    2  A    between atoms: C_5  and  C_6 
REMARK    3  A    between atoms: N_7  and  N_8 
REMARK    4  A    between atoms: C_19  and  C_20 
REMARK       I    between atoms: C_20  and  N_21 
REMARK    5  A    between atoms: N_21  and  C_22 
REMARK    6  A    between atoms: C_22  and  C_23 
REMARK    7  A    between atoms: C_23  and  C_24 
REMARK    8  A    between atoms: C_31  and  N_32 
ROOT
HETATM    1  N   UNL     1      41.106 -16.761   1.945  1.00  0.00    -0.197 N 
HETATM    2  C   UNL     1      41.935 -17.655   2.608  1.00  0.00     0.183 A 
HETATM    3  C   UNL     1      41.935 -17.289   3.950  1.00  0.00     0.125 A 
HETATM    4  N   UNL     1      42.741 -17.904   4.856  1.00  0.00    -0.242 NA
HETATM    5  C   UNL     1      43.474 -18.911   4.359  1.00  0.00     0.086 A 
HETATM    6  C   UNL     1      43.442 -19.284   2.989  1.00  0.00     0.088 A 
HETATM    7  N   UNL     1      42.681 -18.654   2.078  1.00  0.00    -0.225 NA
HETATM    8  C   UNL     1      44.307 -19.604   5.228  1.00  0.00     0.034 A 
HETATM    9  C   UNL     1      45.109 -20.656   4.786  1.00  0.00     0.002 A 
HETATM   10  C   UNL     1      45.077 -21.024   3.449  1.00  0.00     0.002 A 
HETATM   11  C   UNL     1      44.245 -20.336   2.565  1.00  0.00     0.034 A 
HETATM   12  C   UNL     1      41.059 -16.190   4.124  1.00  0.00     0.110 C 
HETATM   13  C   UNL     1      40.436 -16.003   2.902  1.00  0.00     0.143 C 
ENDROOT
BRANCH  12  14
HETATM   14  C   UNL     1      40.911 -15.307   5.266  1.00  0.00     0.257 C 
HETATM   15  N   UNL     1      42.088 -14.689   5.640  1.00  0.00    -0.356 N 
HETATM   16  H   UNL     1      42.934 -15.056   5.209  1.00  0.00     0.162 HD
HETATM   17  O   UNL     1      39.821 -15.004   5.744  1.00  0.00    -0.267 OA
BRANCH  15  18
HETATM   18  C   UNL     1      42.066 -13.260   5.882  1.00  0.00     0.127 C 
BRANCH  18  19
HETATM   19  C   UNL     1      42.294 -12.451   4.592  1.00  0.00     0.053 C 
BRANCH  19  20
HETATM   20  C   UNL     1      41.030 -12.041   3.853  1.00  0.00    -0.082 C 
HETATM   21  C   UNL     1      41.078 -12.028   2.341  1.00  0.00     0.034 C 
HETATM   22  C   UNL     1      39.880 -11.326   1.689  1.00  0.00     0.005 C 
HETATM   23  C   UNL     1      38.571 -11.705   2.373  1.00  0.00     0.004 C 
HETATM   24  C   UNL     1      38.608 -11.354   3.858  1.00  0.00     0.027 C 
HETATM   25  C   UNL     1      39.904 -11.721   4.520  1.00  0.00    -0.024 C 
ENDBRANCH  19  20
ENDBRANCH  18  19
ENDBRANCH  15  18
ENDBRANCH  12  14
BRANCH  13  26
HETATM   26  N   UNL     1      39.473 -15.120   2.539  1.00  0.00    -0.383 N 
HETATM   27  H   UNL     1      38.562 -15.126   2.999  1.00  0.00     0.157 HD
HETATM   28  H   UNL     1      39.518 -14.647   1.639  1.00  0.00     0.157 HD
ENDBRANCH  13  26
BRANCH   1  29
HETATM   29  N   UNL     1      40.989 -16.442   0.614  1.00  0.00    -0.176 NA
HETATM   30  C   UNL     1      41.718 -15.459   0.197  1.00  0.00     0.150 C 
BRANCH  30  31
HETATM   31  C   UNL     1      41.462 -14.851  -1.127  1.00  0.00    -0.014 A 
HETATM   32  C   UNL     1      40.849 -15.604  -2.138  1.00  0.00     0.049 A 
HETATM   33  C   UNL     1      40.463 -14.986  -3.326  1.00  0.00     0.069 A 
HETATM   34  C   UNL     1      40.722 -13.624  -3.504  1.00  0.00     0.037 A 
HETATM   35  C   UNL     1      41.342 -12.876  -2.500  1.00  0.00     0.004 A 
HETATM   36  C   UNL     1      41.709 -13.488  -1.302  1.00  0.00     0.013 A 
BRANCH  33  37
HETATM   37  O   UNL     1      39.819 -15.592  -4.369  1.00  0.00    -0.356 OA
HETATM   38  C   UNL     1      38.456 -15.945  -4.158  1.00  0.00     0.210 C 
ENDBRANCH  33  37
ENDBRANCH  30  31
ENDBRANCH   1  29
TORSDOF 8
ENDMDL
MODEL 5
REMARK VINA RESULT:      -8.9      2.822      6.792
REMARK  8 active torsions:
REMARK  status: ('A' for Active; 'I' for Inactive)
REMARK    1  A    between atoms: O_2  and  C_3 
REMARK    2  A    between atoms: C_5  and  C_6 
REMARK    3  A    between atoms: N_7  and  N_8 
REMARK    4  A    between atoms: C_19  and  C_20 
REMARK       I    between atoms: C_20  and  N_21 
REMARK    5  A    between atoms: N_21  and  C_22 
REMARK    6  A    between atoms: C_22  and  C_23 
REMARK    7  A    between atoms: C_23  and  C_24 
REMARK    8  A    between atoms: C_31  and  N_32 
ROOT
HETATM    1  N   UNL     1      42.498 -12.811   3.055  1.00  0.00    -0.197 N 
HETATM    2  C   UNL     1      41.783 -12.064   3.981  1.00  0.00     0.183 A 
HETATM    3  C   UNL     1      41.889 -12.723   5.201  1.00  0.00     0.125 A 
HETATM    4  N   UNL     1      41.205 -12.303   6.299  1.00  0.00    -0.242 NA
HETATM    5  C   UNL     1      40.483 -11.188   6.116  1.00  0.00     0.086 A 
HETATM    6  C   UNL     1      40.406 -10.518   4.866  1.00  0.00     0.088 A 
HETATM    7  N   UNL     1      41.044 -10.949   3.764  1.00  0.00    -0.225 NA
HETATM    8  C   UNL     1      39.773 -10.683   7.197  1.00  0.00     0.034 A 
HETATM    9  C   UNL     1      38.989  -9.535   7.084  1.00  0.00     0.002 A 
HETATM   10  C   UNL     1      38.915  -8.876   5.865  1.00  0.00     0.002 A 
HETATM   11  C   UNL     1      39.623  -9.373   4.769  1.00  0.00     0.034 A 
HETATM   12  C   UNL     1      42.718 -13.859   5.036  1.00  0.00     0.110 C 
HETATM   13  C   UNL     1      43.213 -13.785   3.746  1.00  0.00     0.143 C 
ENDROOT
BRANCH  12  14
HETATM   14  C   UNL     1      42.926 -14.980   5.934  1.00  0.00     0.257 C 
HETATM   15  N   UNL     1      41.751 -15.516   6.425  1.00  0.00    -0.356 N 
HETATM   16  H   UNL     1      40.913 -14.964   6.260  1.00  0.00     0.162 HD
HETATM   17  O   UNL     1      44.020 -15.511   6.104  1.00  0.00    -0.267 OA
BRANCH  15  18
HETATM   18  C   UNL     1      41.583 -16.956   6.383  1.00  0.00     0.127 C 
BRANCH  18  19
HETATM   19  C   UNL     1      40.909 -17.422   5.079  1.00  0.00     0.053 C 
BRANCH  19  20
HETATM   20  C   UNL     1      41.858 -17.722   3.931  1.00  0.00    -0.082 C 
HETATM   21  C   UNL     1      41.528 -17.128   2.579  1.00  0.00     0.034 C 
HETATM   22  C   UNL     1      42.355 -17.713   1.427  1.00  0.00     0.005 C 
HETATM   23  C   UNL     1      43.821 -17.870   1.814  1.00  0.00     0.004 C 
HETATM   24  C   UNL     1      43.969 -18.767   3.041  1.00  0.00     0.027 C 
HETATM   25  C   UNL     1      42.963 -18.470   4.115  1.00  0.00    -0.024 C 
ENDBRANCH  19  20
ENDBRANCH  18  19
ENDBRANCH  15  18
ENDBRANCH  12  14
BRANCH  13  26
HETATM   26  N   UNL     1      44.090 -14.592   3.099  1.00  0.00    -0.383 N 
HETATM   27  H   UNL     1      44.939 -14.917   3.565  1.00  0.00     0.157 HD
HETATM   28  H   UNL     1      44.084 -14.654   2.084  1.00  0.00     0.157 HD
ENDBRANCH  13  26
BRANCH   1  29
HETATM   29  N   UNL     1      42.473 -12.825   1.681  1.00  0.00    -0.176 NA
HETATM   30  C   UNL     1      41.557 -13.556   1.135  1.00  0.00     0.150 C 
BRANCH  30  31
HETATM   31  C   UNL     1      41.617 -13.872  -0.309  1.00  0.00    -0.014 A 
HETATM   32  C   UNL     1      40.979 -15.017  -0.803  1.00  0.00     0.049 A 
HETATM   33  C   UNL     1      40.899 -15.228  -2.178  1.00  0.00     0.069 A 
HETATM   34  C   UNL     1      41.486 -14.304  -3.047  1.00  0.00     0.037 A 
HETATM   35  C   UNL     1      42.132 -13.168  -2.553  1.00  0.00     0.004 A 
HETATM   36  C   UNL     1      42.193 -12.944  -1.178  1.00  0.00     0.013 A 
BRANCH  33  37
HETATM   37  O   UNL     1      40.268 -16.277  -2.790  1.00  0.00    -0.356 OA
HETATM   38  C   UNL     1      39.408 -15.955  -3.878  1.00  0.00     0.210 C 
ENDBRANCH  33  37
ENDBRANCH  30  31
ENDBRANCH   1  29
TORSDOF 8
ENDMDL
MODEL 6
REMARK VINA RESULT:      -8.9      3.413      8.923
REMARK  8 active torsions:
REMARK  status: ('A' for Active; 'I' for Inactive)
REMARK    1  A    between atoms: O_2  and  C_3 
REMARK    2  A    between atoms: C_5  and  C_6 
REMARK    3  A    between atoms: N_7  and  N_8 
REMARK    4  A    between atoms: C_19  and  C_20 
REMARK       I    between atoms: C_20  and  N_21 
REMARK    5  A    between atoms: N_21  and  C_22 
REMARK    6  A    between atoms: C_22  and  C_23 
REMARK    7  A    between atoms: C_23  and  C_24 
REMARK    8  A    between atoms: C_31  and  N_32 
ROOT
HETATM    1  N   UNL     1      40.647 -16.125   2.809  1.00  0.00    -0.197 N 
HETATM    2  C   UNL     1      40.290 -14.910   3.378  1.00  0.00     0.183 A 
HETATM    3  C   UNL     1      40.102 -14.012   2.334  1.00  0.00     0.125 A 
HETATM    4  N   UNL     1      39.849 -12.696   2.561  1.00  0.00    -0.242 NA
HETATM    5  C   UNL     1      39.743 -12.363   3.856  1.00  0.00     0.086 A 
HETATM    6  C   UNL     1      39.917 -13.301   4.909  1.00  0.00     0.088 A 
HETATM    7  N   UNL     1      40.210 -14.595   4.694  1.00  0.00    -0.225 NA
HETATM    8  C   UNL     1      39.464 -11.040   4.171  1.00  0.00     0.034 A 
HETATM    9  C   UNL     1      39.349 -10.613   5.494  1.00  0.00     0.002 A 
HETATM   10  C   UNL     1      39.516 -11.527   6.524  1.00  0.00     0.002 A 
HETATM   11  C   UNL     1      39.798 -12.861   6.222  1.00  0.00     0.034 A 
HETATM   12  C   UNL     1      40.295 -14.693   1.107  1.00  0.00     0.110 C 
HETATM   13  C   UNL     1      40.459 -16.028   1.433  1.00  0.00     0.143 C 
ENDROOT
BRANCH  12  14
HETATM   14  C   UNL     1      40.452 -14.148  -0.230  1.00  0.00     0.257 C 
HETATM   15  N   UNL     1      41.206 -12.991  -0.266  1.00  0.00    -0.356 N 
HETATM   16  H   UNL     1      41.397 -12.562   0.637  1.00  0.00     0.162 HD
HETATM   17  O   UNL     1      40.102 -14.745  -1.244  1.00  0.00    -0.267 OA
BRANCH  15  18
HETATM   18  C   UNL     1      42.262 -12.891  -1.255  1.00  0.00     0.127 C 
BRANCH  18  19
HETATM   19  C   UNL     1      42.889 -11.485  -1.289  1.00  0.00     0.053 C 
BRANCH  19  20
HETATM   20  C   UNL     1      42.655 -10.703  -2.572  1.00  0.00    -0.082 C 
HETATM   21  C   UNL     1      42.299 -11.491  -3.814  1.00  0.00     0.034 C 
HETATM   22  C   UNL     1      42.373 -10.671  -5.109  1.00  0.00     0.005 C 
HETATM   23  C   UNL     1      41.768  -9.284  -4.929  1.00  0.00     0.004 C 
HETATM   24  C   UNL     1      42.476  -8.519  -3.813  1.00  0.00     0.027 C 
HETATM   25  C   UNL     1      42.741  -9.359  -2.597  1.00  0.00    -0.024 C 
ENDBRANCH  19  20
ENDBRANCH  18  19
ENDBRANCH  15  18
ENDBRANCH  12  14
BRANCH  13  26
HETATM   26  N   UNL     1      40.624 -17.110   0.632  1.00  0.00    -0.383 N 
HETATM   27  H   UNL     1      40.239 -18.017   0.897  1.00  0.00     0.157 HD
HETATM   28  H   UNL     1      41.355 -17.122  -0.076  1.00  0.00     0.157 HD
ENDBRANCH  13  26
BRANCH   1  29
HETATM   29  N   UNL     1      41.251 -17.238   3.341  1.00  0.00    -0.176 NA
HETATM   30  C   UNL     1      42.492 -17.107   3.679  1.00  0.00     0.150 C 
BRANCH  30  31
HETATM   31  C   UNL     1      43.312 -18.300   3.985  1.00  0.00    -0.014 A 
HETATM   32  C   UNL     1      43.612 -19.223   2.974  1.00  0.00     0.049 A 
HETATM   33  C   UNL     1      44.513 -20.256   3.224  1.00  0.00     0.069 A 
HETATM   34  C   UNL     1      45.084 -20.374   4.494  1.00  0.00     0.037 A 
HETATM   35  C   UNL     1      44.777 -19.459   5.504  1.00  0.00     0.004 A 
HETATM   36  C   UNL     1      43.892 -18.412   5.249  1.00  0.00     0.013 A 
BRANCH  33  37
HETATM   37  O   UNL     1      44.925 -21.193   2.316  1.00  0.00    -0.356 OA
HETATM   38  C   UNL     1      43.902 -21.884   1.606  1.00  0.00     0.210 C 
ENDBRANCH  33  37
ENDBRANCH  30  31
ENDBRANCH   1  29
TORSDOF 8
ENDMDL
MODEL 7
REMARK VINA RESULT:      -8.9      1.400      2.071
REMARK  8 active torsions:
REMARK  status: ('A' for Active; 'I' for Inactive)
REMARK    1  A    between atoms: O_2  and  C_3 
REMARK    2  A    between atoms: C_5  and  C_6 
REMARK    3  A    between atoms: N_7  and  N_8 
REMARK    4  A    between atoms: C_19  and  C_20 
REMARK       I    between atoms: C_20  and  N_21 
REMARK    5  A    between atoms: N_21  and  C_22 
REMARK    6  A    between atoms: C_22  and  C_23 
REMARK    7  A    between atoms: C_23  and  C_24 
REMARK    8  A    between atoms: C_31  and  N_32 
ROOT
HETATM    1  N   UNL     1      40.746 -15.289   2.582  1.00  0.00    -0.197 N 
HETATM    2  C   UNL     1      41.568 -15.976   3.464  1.00  0.00     0.183 A 
HETATM    3  C   UNL     1      41.524 -15.295   4.675  1.00  0.00     0.125 A 
HETATM    4  N   UNL     1      42.311 -15.653   5.724  1.00  0.00    -0.242 NA
HETATM    5  C   UNL     1      43.073 -16.735   5.507  1.00  0.00     0.086 A 
HETATM    6  C   UNL     1      43.087 -17.431   4.269  1.00  0.00     0.088 A 
HETATM    7  N   UNL     1      42.344 -17.059   3.213  1.00  0.00    -0.225 NA
HETATM    8  C   UNL     1      43.889 -17.178   6.539  1.00  0.00     0.034 A 
HETATM    9  C   UNL     1      44.719 -18.288   6.388  1.00  0.00     0.002 A 
HETATM   10  C   UNL     1      44.732 -18.972   5.181  1.00  0.00     0.002 A 
HETATM   11  C   UNL     1      43.917 -18.538   4.135  1.00  0.00     0.034 A 
HETATM   12  C   UNL     1      40.627 -14.205   4.553  1.00  0.00     0.110 C 
HETATM   13  C   UNL     1      40.038 -14.335   3.307  1.00  0.00     0.143 C 
ENDROOT
BRANCH  12  14
HETATM   14  C   UNL     1      40.432 -13.074   5.441  1.00  0.00     0.257 C 
HETATM   15  N   UNL     1      41.465 -12.898   6.341  1.00  0.00    -0.356 N 
HETATM   16  H   UNL     1      42.129 -13.666   6.405  1.00  0.00     0.162 HD
HETATM   17  O   UNL     1      39.530 -12.253   5.296  1.00  0.00    -0.267 OA
BRANCH  15  18
HETATM   18  C   UNL     1      42.016 -11.566   6.501  1.00  0.00     0.127 C 
BRANCH  18  19
HETATM   19  C   UNL     1      41.653 -10.951   7.866  1.00  0.00     0.053 C 
BRANCH  19  20
HETATM   20  C   UNL     1      42.757 -10.996   8.910  1.00  0.00    -0.082 C 
HETATM   21  C   UNL     1      43.968 -11.853   8.609  1.00  0.00     0.034 C 
HETATM   22  C   UNL     1      44.882 -12.079   9.820  1.00  0.00     0.005 C 
HETATM   23  C   UNL     1      45.079 -10.796  10.620  1.00  0.00     0.004 C 
HETATM   24  C   UNL     1      43.741 -10.242  11.102  1.00  0.00     0.027 C 
HETATM   25  C   UNL     1      42.670 -10.284  10.050  1.00  0.00    -0.024 C 
ENDBRANCH  19  20
ENDBRANCH  18  19
ENDBRANCH  15  18
ENDBRANCH  12  14
BRANCH  13  26
HETATM   26  N   UNL     1      39.073 -13.588   2.715  1.00  0.00    -0.383 N 
HETATM   27  H   UNL     1      38.932 -13.627   1.705  1.00  0.00     0.157 HD
HETATM   28  H   UNL     1      38.677 -12.782   3.193  1.00  0.00     0.157 HD
ENDBRANCH  13  26
BRANCH   1  29
HETATM   29  N   UNL     1      40.664 -15.307   1.211  1.00  0.00    -0.176 NA
HETATM   30  C   UNL     1      41.663 -14.792   0.572  1.00  0.00     0.150 C 
BRANCH  30  31
HETATM   31  C   UNL     1      41.553 -14.498  -0.873  1.00  0.00    -0.014 A 
HETATM   32  C   UNL     1      40.940 -15.421  -1.731  1.00  0.00     0.049 A 
HETATM   33  C   UNL     1      40.694 -15.076  -3.059  1.00  0.00     0.069 A 
HETATM   34  C   UNL     1      41.090 -13.820  -3.524  1.00  0.00     0.037 A 
HETATM   35  C   UNL     1      41.710 -12.904  -2.671  1.00  0.00     0.004 A 
HETATM   36  C   UNL     1      41.938 -13.239  -1.337  1.00  0.00     0.013 A 
BRANCH  33  37
HETATM   37  O   UNL     1      40.065 -15.864  -3.985  1.00  0.00    -0.356 OA
HETATM   38  C   UNL     1      38.645 -15.923  -3.911  1.00  0.00     0.210 C 
ENDBRANCH  33  37
ENDBRANCH  30  31
ENDBRANCH   1  29
TORSDOF 8
ENDMDL
MODEL 8
REMARK VINA RESULT:      -8.7      3.441      9.430
REMARK  8 active torsions:
REMARK  status: ('A' for Active; 'I' for Inactive)
REMARK    1  A    between atoms: O_2  and  C_3 
REMARK    2  A    between atoms: C_5  and  C_6 
REMARK    3  A    between atoms: N_7  and  N_8 
REMARK    4  A    between atoms: C_19  and  C_20 
REMARK       I    between atoms: C_20  and  N_21 
REMARK    5  A    between atoms: N_21  and  C_22 
REMARK    6  A    between atoms: C_22  and  C_23 
REMARK    7  A    between atoms: C_23  and  C_24 
REMARK    8  A    between atoms: C_31  and  N_32 
ROOT
HETATM    1  N   UNL     1      40.203 -13.680   5.114  1.00  0.00    -0.197 N 
HETATM    2  C   UNL     1      39.621 -13.555   3.861  1.00  0.00     0.183 A 
HETATM    3  C   UNL     1      39.893 -14.730   3.168  1.00  0.00     0.125 A 
HETATM    4  N   UNL     1      39.551 -14.883   1.861  1.00  0.00    -0.242 NA
HETATM    5  C   UNL     1      38.892 -13.842   1.331  1.00  0.00     0.086 A 
HETATM    6  C   UNL     1      38.605 -12.659   2.062  1.00  0.00     0.088 A 
HETATM    7  N   UNL     1      38.976 -12.482   3.342  1.00  0.00    -0.225 NA
HETATM    8  C   UNL     1      38.489 -13.931   0.005  1.00  0.00     0.034 A 
HETATM    9  C   UNL     1      37.809 -12.887  -0.622  1.00  0.00     0.002 A 
HETATM   10  C   UNL     1      37.524 -11.731   0.091  1.00  0.00     0.002 A 
HETATM   11  C   UNL     1      37.924 -11.629   1.424  1.00  0.00     0.034 A 
HETATM   12  C   UNL     1      40.605 -15.608   4.021  1.00  0.00     0.110 C 
HETATM   13  C   UNL     1      40.627 -14.998   5.264  1.00  0.00     0.143 C 
ENDROOT
BRANCH  12  14
HETATM   14  C   UNL     1      41.319 -16.829   3.692  1.00  0.00     0.257 C 
HETATM   15  N   UNL     1      41.977 -16.770   2.479  1.00  0.00    -0.356 N 
HETATM   16  H   UNL     1      41.739 -15.978   1.887  1.00  0.00     0.162 HD
HETATM   17  O   UNL     1      41.469 -17.754   4.485  1.00  0.00    -0.267 OA
BRANCH  15  18
HETATM   18  C   UNL     1      43.357 -17.212   2.425  1.00  0.00     0.127 C 
BRANCH  18  19
HETATM   19  C   UNL     1      43.516 -18.513   1.616  1.00  0.00     0.053 C 
BRANCH  19  20
HETATM   20  C   UNL     1      44.010 -19.712   2.409  1.00  0.00    -0.082 C 
HETATM   21  C   UNL     1      44.469 -19.467   3.830  1.00  0.00     0.034 C 
HETATM   22  C   UNL     1      45.222 -20.652   4.451  1.00  0.00     0.005 C 
HETATM   23  C   UNL     1      44.544 -21.978   4.122  1.00  0.00     0.004 C 
HETATM   24  C   UNL     1      44.448 -22.183   2.613  1.00  0.00     0.027 C 
HETATM   25  C   UNL     1      44.020 -20.948   1.874  1.00  0.00    -0.024 C 
ENDBRANCH  19  20
ENDBRANCH  18  19
ENDBRANCH  15  18
ENDBRANCH  12  14
BRANCH  13  26
HETATM   26  N   UNL     1      41.135 -15.435   6.443  1.00  0.00    -0.383 N 
HETATM   27  H   UNL     1      42.130 -15.644   6.535  1.00  0.00     0.157 HD
HETATM   28  H   UNL     1      40.525 -15.834   7.152  1.00  0.00     0.157 HD
ENDBRANCH  13  26
BRANCH   1  29
HETATM   29  N   UNL     1      40.530 -12.744   6.064  1.00  0.00    -0.176 NA
HETATM   30  C   UNL     1      39.551 -12.275   6.766  1.00  0.00     0.150 C 
BRANCH  30  31
HETATM   31  C   UNL     1      39.742 -11.071   7.603  1.00  0.00    -0.014 A 
HETATM   32  C   UNL     1      39.249 -11.043   8.915  1.00  0.00     0.049 A 
HETATM   33  C   UNL     1      39.568  -9.977   9.753  1.00  0.00     0.069 A 
HETATM   34  C   UNL     1      40.354  -8.931   9.261  1.00  0.00     0.037 A 
HETATM   35  C   UNL     1      40.836  -8.954   7.950  1.00  0.00     0.004 A 
HETATM   36  C   UNL     1      40.536 -10.031   7.117  1.00  0.00     0.013 A 
BRANCH  33  37
HETATM   37  O   UNL     1      39.191  -9.849  11.062  1.00  0.00    -0.356 OA
HETATM   38  C   UNL     1      38.056  -9.028  11.321  1.00  0.00     0.210 C 
ENDBRANCH  33  37
ENDBRANCH  30  31
ENDBRANCH   1  29
TORSDOF 8
ENDMDL
MODEL 9
REMARK VINA RESULT:      -8.7      3.237      6.853
REMARK  8 active torsions:
REMARK  status: ('A' for Active; 'I' for Inactive)
REMARK    1  A    between atoms: O_2  and  C_3 
REMARK    2  A    between atoms: C_5  and  C_6 
REMARK    3  A    between atoms: N_7  and  N_8 
REMARK    4  A    between atoms: C_19  and  C_20 
REMARK       I    between atoms: C_20  and  N_21 
REMARK    5  A    between atoms: N_21  and  C_22 
REMARK    6  A    between atoms: C_22  and  C_23 
REMARK    7  A    between atoms: C_23  and  C_24 
REMARK    8  A    between atoms: C_31  and  N_32 
ROOT
HETATM    1  N   UNL     1      41.960 -14.329   4.924  1.00  0.00    -0.197 N 
HETATM    2  C   UNL     1      41.005 -13.892   4.017  1.00  0.00     0.183 A 
HETATM    3  C   UNL     1      40.652 -12.600   4.390  1.00  0.00     0.125 A 
HETATM    4  N   UNL     1      39.652 -11.925   3.763  1.00  0.00    -0.242 NA
HETATM    5  C   UNL     1      39.089 -12.584   2.739  1.00  0.00     0.086 A 
HETATM    6  C   UNL     1      39.480 -13.896   2.360  1.00  0.00     0.088 A 
HETATM    7  N   UNL     1      40.438 -14.587   3.001  1.00  0.00    -0.225 NA
HETATM    8  C   UNL     1      38.073 -11.952   2.034  1.00  0.00     0.034 A 
HETATM    9  C   UNL     1      37.431 -12.575   0.964  1.00  0.00     0.002 A 
HETATM   10  C   UNL     1      37.813 -13.855   0.590  1.00  0.00     0.002 A 
HETATM   11  C   UNL     1      38.832 -14.502   1.291  1.00  0.00     0.034 A 
HETATM   12  C   UNL     1      41.434 -12.218   5.507  1.00  0.00     0.110 C 
HETATM   13  C   UNL     1      42.347 -13.240   5.701  1.00  0.00     0.143 C 
ENDROOT
BRANCH  12  14
HETATM   14  C   UNL     1      41.268 -11.084   6.398  1.00  0.00     0.257 C 
HETATM   15  N   UNL     1      41.099 -11.445   7.721  1.00  0.00    -0.356 N 
HETATM   16  H   UNL     1      40.924 -12.434   7.888  1.00  0.00     0.162 HD
HETATM   17  O   UNL     1      41.434  -9.920   6.043  1.00  0.00    -0.267 OA
BRANCH  15  18
HETATM   18  C   UNL     1      41.888 -10.760   8.726  1.00  0.00     0.127 C 
BRANCH  18  19
HETATM   19  C   UNL     1      41.013 -10.191   9.859  1.00  0.00     0.053 C 
BRANCH  19  20
HETATM   20  C   UNL     1      41.658 -10.190  11.235  1.00  0.00    -0.082 C 
HETATM   21  C   UNL     1      43.058  -9.629  11.350  1.00  0.00     0.034 C 
HETATM   22  C   UNL     1      43.740  -9.934  12.690  1.00  0.00     0.005 C 
HETATM   23  C   UNL     1      42.782  -9.744  13.861  1.00  0.00     0.004 C 
HETATM   24  C   UNL     1      41.552 -10.637  13.711  1.00  0.00     0.027 C 
HETATM   25  C   UNL     1      40.999 -10.652  12.316  1.00  0.00    -0.024 C 
ENDBRANCH  19  20
ENDBRANCH  18  19
ENDBRANCH  15  18
ENDBRANCH  12  14
BRANCH  13  26
HETATM   26  N   UNL     1      43.356 -13.352   6.600  1.00  0.00    -0.383 N 
HETATM   27  H   UNL     1      43.161 -13.595   7.572  1.00  0.00     0.157 HD
HETATM   28  H   UNL     1      44.261 -12.926   6.417  1.00  0.00     0.157 HD
ENDBRANCH  13  26
BRANCH   1  29
HETATM   29  N   UNL     1      42.410 -15.588   5.239  1.00  0.00    -0.176 NA
HETATM   30  C   UNL     1      43.267 -16.109   4.423  1.00  0.00     0.150 C 
BRANCH  30  31
HETATM   31  C   UNL     1      43.593 -17.549   4.502  1.00  0.00    -0.014 A 
HETATM   32  C   UNL     1      43.582 -18.335   3.342  1.00  0.00     0.049 A 
HETATM   33  C   UNL     1      44.044 -19.649   3.390  1.00  0.00     0.069 A 
HETATM   34  C   UNL     1      44.485 -20.175   4.608  1.00  0.00     0.037 A 
HETATM   35  C   UNL     1      44.486 -19.394   5.766  1.00  0.00     0.004 A 
HETATM   36  C   UNL     1      44.045 -18.072   5.715  1.00  0.00     0.013 A 
BRANCH  33  37
HETATM   37  O   UNL     1      44.128 -20.506   2.327  1.00  0.00    -0.356 OA
HETATM   38  C   UNL     1      44.409 -21.869   2.628  1.00  0.00     0.210 C 
ENDBRANCH  33  37
ENDBRANCH  30  31
ENDBRANCH   1  29
TORSDOF 8
ENDMDL
MODEL 10
REMARK VINA RESULT:      -8.6      3.452      8.261
REMARK  8 active torsions:
REMARK  status: ('A' for Active; 'I' for Inactive)
REMARK    1  A    between atoms: O_2  and  C_3 
REMARK    2  A    between atoms: C_5  and  C_6 
REMARK    3  A    between atoms: N_7  and  N_8 
REMARK    4  A    between atoms: C_19  and  C_20 
REMARK       I    between atoms: C_20  and  N_21 
REMARK    5  A    between atoms: N_21  and  C_22 
REMARK    6  A    between atoms: C_22  and  C_23 
REMARK    7  A    between atoms: C_23  and  C_24 
REMARK    8  A    between atoms: C_31  and  N_32 
ROOT
HETATM    1  N   UNL     1      41.433 -15.807   1.399  1.00  0.00    -0.197 N 
HETATM    2  C   UNL     1      40.823 -14.947   2.302  1.00  0.00     0.183 A 
HETATM    3  C   UNL     1      40.236 -13.928   1.560  1.00  0.00     0.125 A 
HETATM    4  N   UNL     1      39.647 -12.859   2.158  1.00  0.00    -0.242 NA
HETATM    5  C   UNL     1      39.632 -12.906   3.498  1.00  0.00     0.086 A 
HETATM    6  C   UNL     1      40.218 -13.968   4.238  1.00  0.00     0.088 A 
HETATM    7  N   UNL     1      40.840 -15.007   3.656  1.00  0.00    -0.225 NA
HETATM    8  C   UNL     1      39.028 -11.860   4.182  1.00  0.00     0.034 A 
HETATM    9  C   UNL     1      38.982 -11.830   5.576  1.00  0.00     0.002 A 
HETATM   10  C   UNL     1      39.550 -12.867   6.301  1.00  0.00     0.002 A 
HETATM   11  C   UNL     1      40.162 -13.925   5.626  1.00  0.00     0.034 A 
HETATM   12  C   UNL     1      40.444 -14.189   0.184  1.00  0.00     0.110 C 
HETATM   13  C   UNL     1      41.034 -15.440   0.117  1.00  0.00     0.143 C 
ENDROOT
BRANCH  12  14
HETATM   14  C   UNL     1      40.247 -13.312  -0.957  1.00  0.00     0.257 C 
HETATM   15  N   UNL     1      39.351 -12.289  -0.713  1.00  0.00    -0.356 N 
HETATM   16  H   UNL     1      38.806 -12.375   0.141  1.00  0.00     0.162 HD
HETATM   17  O   UNL     1      40.933 -13.366  -1.973  1.00  0.00    -0.267 OA
BRANCH  15  18
HETATM   18  C   UNL     1      39.727 -10.942  -1.095  1.00  0.00     0.127 C 
BRANCH  18  19
HETATM   19  C   UNL     1      40.367 -10.168   0.072  1.00  0.00     0.053 C 
BRANCH  19  20
HETATM   20  C   UNL     1      41.738  -9.577  -0.217  1.00  0.00    -0.082 C 
HETATM   21  C   UNL     1      42.571 -10.240  -1.292  1.00  0.00     0.034 C 
HETATM   22  C   UNL     1      44.034  -9.778  -1.314  1.00  0.00     0.005 C 
HETATM   23  C   UNL     1      44.147  -8.268  -1.134  1.00  0.00     0.004 C 
HETATM   24  C   UNL     1      43.503  -7.825   0.178  1.00  0.00     0.027 C 
HETATM   25  C   UNL     1      42.184  -8.491   0.444  1.00  0.00    -0.024 C 
ENDBRANCH  19  20
ENDBRANCH  18  19
ENDBRANCH  15  18
ENDBRANCH  12  14
BRANCH  13  26
HETATM   26  N   UNL     1      41.391 -16.181  -0.960  1.00  0.00    -0.383 N 
HETATM   27  H   UNL     1      42.370 -16.415  -1.129  1.00  0.00     0.157 HD
HETATM   28  H   UNL     1      40.765 -16.271  -1.757  1.00  0.00     0.157 HD
ENDBRANCH  13  26
BRANCH   1  29
HETATM   29  N   UNL     1      42.403 -16.765   1.566  1.00  0.00    -0.176 NA
HETATM   30  C   UNL     1      42.013 -17.893   2.061  1.00  0.00     0.150 C 
BRANCH  30  31
HETATM   31  C   UNL     1      43.004 -18.878   2.548  1.00  0.00    -0.014 A 
HETATM   32  C   UNL     1      43.487 -18.795   3.860  1.00  0.00     0.049 A 
HETATM   33  C   UNL     1      44.294 -19.811   4.367  1.00  0.00     0.069 A 
HETATM   34  C   UNL     1      44.634 -20.889   3.545  1.00  0.00     0.037 A 
HETATM   35  C   UNL     1      44.160 -20.966   2.233  1.00  0.00     0.004 A 
HETATM   36  C   UNL     1      43.335 -19.960   1.732  1.00  0.00     0.013 A 
BRANCH  33  37
HETATM   37  O   UNL     1      44.794 -19.875   5.640  1.00  0.00    -0.356 OA
HETATM   38  C   UNL     1      43.881 -20.257   6.664  1.00  0.00     0.210 C 
ENDBRANCH  33  37
ENDBRANCH  30  31
ENDBRANCH   1  29
TORSDOF 8
ENDMDL
