MODEL 1
REMARK VINA RESULT:      -9.5      0.000      0.000
REMARK  8 active torsions:
REMARK  status: ('A' for Active; 'I' for Inactive)
REMARK    1  A    between atoms: C_3  and  O_4 
REMARK    2  A    between atoms: C_11  and  C_12 
REMARK    3  A    between atoms: C_12  and  C_13 
REMARK    4  A    between atoms: C_13  and  S_14 
REMARK    5  A    between atoms: S_14  and  C_15 
REMARK    6  A    between atoms: N_16  and  C_17 
REMARK    7  A    between atoms: C_18  and  O_19 
REMARK    8  A    between atoms: C_25  and  N_26 
ROOT
HETATM    1  C   UNL     1      41.566 -13.986   0.547  1.00  0.00     0.197 A 
HETATM    2  N   UNL     1      41.213 -13.589  -0.732  1.00  0.00    -0.259 N 
HETATM    3  C   UNL     1      41.871 -12.360  -0.892  1.00  0.00     0.211 A 
HETATM    4  N   UNL     1      42.555 -12.098   0.208  1.00  0.00    -0.116 NA
HETATM    5  N   UNL     1      42.386 -13.120   1.094  1.00  0.00    -0.121 NA
ENDROOT
BRANCH   1   6
HETATM    6  S   UNL     1      40.870 -15.328   1.409  1.00  0.00    -0.082 SA
BRANCH   6   7
HETATM    7  C   UNL     1      42.282 -16.468   1.355  1.00  0.00     0.166 C 
BRANCH   7   8
HETATM    8  C   UNL     1      43.169 -16.355   2.579  1.00  0.00     0.169 C 
HETATM    9  O   UNL     1      43.593 -15.288   3.023  1.00  0.00    -0.291 OA
BRANCH   8  10
HETATM   10  C   UNL     1      43.573 -17.625   3.262  1.00  0.00     0.011 A 
HETATM   11  C   UNL     1      43.904 -17.666   4.622  1.00  0.00     0.017 A 
HETATM   12  C   UNL     1      44.317 -18.856   5.233  1.00  0.00     0.031 A 
HETATM   13  C   UNL     1      44.376 -20.004   4.438  1.00  0.00     0.045 A 
HETATM   14  N   UNL     1      44.749 -21.287   4.761  1.00  0.00    -0.336 N 
HETATM   15  C   UNL     1      44.034 -20.012   3.088  1.00  0.00     0.002 A 
HETATM   16  C   UNL     1      44.647 -22.105   3.672  1.00  0.00     0.147 A 
HETATM   17  H   UNL     1      45.056 -21.596   5.672  1.00  0.00     0.168 HD
HETATM   18  C   UNL     1      44.201 -21.351   2.604  1.00  0.00     0.001 A 
HETATM   19  C   UNL     1      43.930 -21.813   1.217  1.00  0.00     0.054 C 
HETATM   20  C   UNL     1      43.621 -18.801   2.494  1.00  0.00     0.029 A 
BRANCH  16  21
HETATM   21  O   UNL     1      44.965 -23.386   3.801  1.00  0.00    -0.346 OA
HETATM   22  H   UNL     1      44.419 -23.887   3.168  1.00  0.00     0.219 HD
ENDBRANCH  16  21
ENDBRANCH   8  10
ENDBRANCH   7   8
ENDBRANCH   6   7
ENDBRANCH   1   6
BRANCH   2  23
HETATM   23  C   UNL     1      40.396 -14.291  -1.659  1.00  0.00     0.077 A 
HETATM   24  C   UNL     1      39.041 -13.967  -1.829  1.00  0.00     0.095 A 
HETATM   25  C   UNL     1      38.304 -14.657  -2.799  1.00  0.00     0.039 A 
HETATM   26  C   UNL     1      38.900 -15.654  -3.577  1.00  0.00     0.003 A 
HETATM   27  C   UNL     1      40.238 -15.984  -3.389  1.00  0.00     0.002 A 
HETATM   28  C   UNL     1      40.988 -15.308  -2.430  1.00  0.00     0.033 A 
BRANCH  24  29
HETATM   29  O   UNL     1      38.498 -13.055  -0.966  1.00  0.00    -0.354 OA
HETATM   30  C   UNL     1      37.686 -13.547   0.090  1.00  0.00     0.210 C 
ENDBRANCH  24  29
ENDBRANCH   2  23
BRANCH   3  31
HETATM   31  N   UNL     1      41.825 -11.569  -2.014  1.00  0.00    -0.251 NA
HETATM   32  C   UNL     1      42.601 -12.010  -3.182  1.00  0.00     0.098 C 
HETATM   33  C   UNL     1      42.147 -11.237  -4.420  1.00  0.00     0.015 C 
HETATM   34  C   UNL     1      42.256  -9.730  -4.204  1.00  0.00     0.002 C 
HETATM   35  C   UNL     1      41.515  -9.312  -2.938  1.00  0.00     0.015 C 
HETATM   36  C   UNL     1      41.977 -10.129  -1.733  1.00  0.00     0.098 C 
ENDBRANCH   3  31
TORSDOF 8
ENDMDL
MODEL 2
REMARK VINA RESULT:      -9.3      4.376      7.086
REMARK  8 active torsions:
REMARK  status: ('A' for Active; 'I' for Inactive)
REMARK    1  A    between atoms: C_3  and  O_4 
REMARK    2  A    between atoms: C_11  and  C_12 
REMARK    3  A    between atoms: C_12  and  C_13 
REMARK    4  A    between atoms: C_13  and  S_14 
REMARK    5  A    between atoms: S_14  and  C_15 
REMARK    6  A    between atoms: N_16  and  C_17 
REMARK    7  A    between atoms: C_18  and  O_19 
REMARK    8  A    between atoms: C_25  and  N_26 
ROOT
HETATM    1  C   UNL     1      42.339 -13.181   3.809  1.00  0.00     0.197 A 
HETATM    2  N   UNL     1      41.997 -13.427   5.129  1.00  0.00    -0.259 N 
HETATM    3  C   UNL     1      41.430 -12.217   5.556  1.00  0.00     0.211 A 
HETATM    4  N   UNL     1      41.437 -11.364   4.547  1.00  0.00    -0.116 NA
HETATM    5  N   UNL     1      41.979 -11.970   3.453  1.00  0.00    -0.121 NA
ENDROOT
BRANCH   1   6
HETATM    6  S   UNL     1      43.298 -14.232   2.808  1.00  0.00    -0.082 SA
BRANCH   6   7
HETATM    7  C   UNL     1      42.034 -15.469   2.396  1.00  0.00     0.166 C 
BRANCH   7   8
HETATM    8  C   UNL     1      42.609 -16.667   1.665  1.00  0.00     0.169 C 
HETATM    9  O   UNL     1      42.627 -16.778   0.439  1.00  0.00    -0.291 OA
BRANCH   8  10
HETATM   10  C   UNL     1      43.155 -17.788   2.494  1.00  0.00     0.011 A 
HETATM   11  C   UNL     1      43.534 -17.610   3.830  1.00  0.00     0.017 A 
HETATM   12  C   UNL     1      44.078 -18.661   4.576  1.00  0.00     0.031 A 
HETATM   13  C   UNL     1      44.220 -19.899   3.943  1.00  0.00     0.045 A 
HETATM   14  N   UNL     1      44.723 -21.086   4.419  1.00  0.00    -0.336 N 
HETATM   15  C   UNL     1      43.834 -20.125   2.623  1.00  0.00     0.002 A 
HETATM   16  C   UNL     1      44.663 -22.053   3.456  1.00  0.00     0.147 A 
HETATM   17  H   UNL     1      45.088 -21.236   5.347  1.00  0.00     0.168 HD
HETATM   18  C   UNL     1      44.112 -21.499   2.318  1.00  0.00     0.001 A 
HETATM   19  C   UNL     1      43.840 -22.171   1.020  1.00  0.00     0.054 C 
HETATM   20  C   UNL     1      43.289 -19.050   1.890  1.00  0.00     0.029 A 
BRANCH  16  21
HETATM   21  O   UNL     1      45.105 -23.271   3.742  1.00  0.00    -0.346 OA
HETATM   22  H   UNL     1      44.620 -23.897   3.177  1.00  0.00     0.219 HD
ENDBRANCH  16  21
ENDBRANCH   8  10
ENDBRANCH   7   8
ENDBRANCH   6   7
ENDBRANCH   1   6
BRANCH   2  23
HETATM   23  C   UNL     1      42.167 -14.638   5.851  1.00  0.00     0.077 A 
HETATM   24  C   UNL     1      43.364 -14.922   6.530  1.00  0.00     0.095 A 
HETATM   25  C   UNL     1      43.448 -16.106   7.273  1.00  0.00     0.039 A 
HETATM   26  C   UNL     1      42.368 -16.993   7.332  1.00  0.00     0.003 A 
HETATM   27  C   UNL     1      41.193 -16.715   6.641  1.00  0.00     0.002 A 
HETATM   28  C   UNL     1      41.090 -15.541   5.898  1.00  0.00     0.033 A 
BRANCH  24  29
HETATM   29  O   UNL     1      44.412 -14.063   6.346  1.00  0.00    -0.354 OA
HETATM   30  C   UNL     1      44.869 -13.328   7.471  1.00  0.00     0.210 C 
ENDBRANCH  24  29
ENDBRANCH   2  23
BRANCH   3  31
HETATM   31  N   UNL     1      40.933 -11.968   6.813  1.00  0.00    -0.251 NA
HETATM   32  C   UNL     1      39.477 -12.060   6.992  1.00  0.00     0.098 C 
HETATM   33  C   UNL     1      39.148 -12.122   8.484  1.00  0.00     0.015 C 
HETATM   34  C   UNL     1      39.737 -10.929   9.232  1.00  0.00     0.002 C 
HETATM   35  C   UNL     1      41.232 -10.805   8.958  1.00  0.00     0.015 C 
HETATM   36  C   UNL     1      41.518 -10.778   7.458  1.00  0.00     0.098 C 
ENDBRANCH   3  31
TORSDOF 8
ENDMDL
MODEL 3
REMARK VINA RESULT:      -8.8      1.521      2.378
REMARK  8 active torsions:
REMARK  status: ('A' for Active; 'I' for Inactive)
REMARK    1  A    between atoms: C_3  and  O_4 
REMARK    2  A    between atoms: C_11  and  C_12 
REMARK    3  A    between atoms: C_12  and  C_13 
REMARK    4  A    between atoms: C_13  and  S_14 
REMARK    5  A    between atoms: S_14  and  C_15 
REMARK    6  A    between atoms: N_16  and  C_17 
REMARK    7  A    between atoms: C_18  and  O_19 
REMARK    8  A    between atoms: C_25  and  N_26 
ROOT
HETATM    1  C   UNL     1      41.670 -13.689   0.513  1.00  0.00     0.197 A 
HETATM    2  N   UNL     1      41.201 -13.239  -0.709  1.00  0.00    -0.259 N 
HETATM    3  C   UNL     1      41.766 -11.961  -0.831  1.00  0.00     0.211 A 
HETATM    4  N   UNL     1      42.512 -11.721   0.234  1.00  0.00    -0.116 NA
HETATM    5  N   UNL     1      42.472 -12.805   1.059  1.00  0.00    -0.121 NA
ENDROOT
BRANCH   1   6
HETATM    6  S   UNL     1      41.124 -15.125   1.331  1.00  0.00    -0.082 SA
BRANCH   6   7
HETATM    7  C   UNL     1      42.667 -15.578   2.176  1.00  0.00     0.166 C 
BRANCH   7   8
HETATM    8  C   UNL     1      43.168 -16.952   1.775  1.00  0.00     0.169 C 
HETATM    9  O   UNL     1      43.283 -17.327   0.609  1.00  0.00    -0.291 OA
BRANCH   8  10
HETATM   10  C   UNL     1      43.508 -17.913   2.872  1.00  0.00     0.011 A 
HETATM   11  C   UNL     1      44.122 -19.146   2.618  1.00  0.00     0.017 A 
HETATM   12  C   UNL     1      44.397 -20.046   3.654  1.00  0.00     0.031 A 
HETATM   13  C   UNL     1      44.047 -19.666   4.953  1.00  0.00     0.045 A 
HETATM   14  N   UNL     1      44.187 -20.340   6.142  1.00  0.00    -0.336 N 
HETATM   15  C   UNL     1      43.457 -18.440   5.251  1.00  0.00     0.002 A 
HETATM   16  C   UNL     1      43.717 -19.586   7.179  1.00  0.00     0.147 A 
HETATM   17  H   UNL     1      44.581 -21.263   6.249  1.00  0.00     0.168 HD
HETATM   18  C   UNL     1      43.253 -18.389   6.670  1.00  0.00     0.001 A 
HETATM   19  C   UNL     1      42.663 -17.250   7.421  1.00  0.00     0.054 C 
HETATM   20  C   UNL     1      43.189 -17.548   4.192  1.00  0.00     0.029 A 
BRANCH  16  21
HETATM   21  O   UNL     1      43.776 -20.080   8.409  1.00  0.00    -0.346 OA
HETATM   22  H   UNL     1      43.499 -21.012   8.363  1.00  0.00     0.219 HD
ENDBRANCH  16  21
ENDBRANCH   8  10
ENDBRANCH   7   8
ENDBRANCH   6   7
ENDBRANCH   1   6
BRANCH   2  23
HETATM   23  C   UNL     1      40.364 -13.936  -1.621  1.00  0.00     0.077 A 
HETATM   24  C   UNL     1      38.969 -13.772  -1.604  1.00  0.00     0.095 A 
HETATM   25  C   UNL     1      38.204 -14.442  -2.567  1.00  0.00     0.039 A 
HETATM   26  C   UNL     1      38.813 -15.264  -3.521  1.00  0.00     0.003 A 
HETATM   27  C   UNL     1      40.193 -15.437  -3.519  1.00  0.00     0.002 A 
HETATM   28  C   UNL     1      40.971 -14.778  -2.570  1.00  0.00     0.033 A 
BRANCH  24  29
HETATM   29  O   UNL     1      38.434 -13.037  -0.582  1.00  0.00    -0.354 OA
HETATM   30  C   UNL     1      37.636 -13.718   0.374  1.00  0.00     0.210 C 
ENDBRANCH  24  29
ENDBRANCH   2  23
BRANCH   3  31
HETATM   31  N   UNL     1      41.589 -11.107  -1.893  1.00  0.00    -0.251 NA
HETATM   32  C   UNL     1      42.796 -10.529  -2.502  1.00  0.00     0.098 C 
HETATM   33  C   UNL     1      42.443  -9.923  -3.861  1.00  0.00     0.015 C 
HETATM   34  C   UNL     1      41.323  -8.893  -3.735  1.00  0.00     0.002 C 
HETATM   35  C   UNL     1      40.117  -9.493  -3.022  1.00  0.00     0.015 C 
HETATM   36  C   UNL     1      40.518 -10.114  -1.685  1.00  0.00     0.098 C 
ENDBRANCH   3  31
TORSDOF 8
ENDMDL
MODEL 4
REMARK VINA RESULT:      -8.7      1.933      3.253
REMARK  8 active torsions:
REMARK  status: ('A' for Active; 'I' for Inactive)
REMARK    1  A    between atoms: C_3  and  O_4 
REMARK    2  A    between atoms: C_11  and  C_12 
REMARK    3  A    between atoms: C_12  and  C_13 
REMARK    4  A    between atoms: C_13  and  S_14 
REMARK    5  A    between atoms: S_14  and  C_15 
REMARK    6  A    between atoms: N_16  and  C_17 
REMARK    7  A    between atoms: C_18  and  O_19 
REMARK    8  A    between atoms: C_25  and  N_26 
ROOT
HETATM    1  C   UNL     1      40.435 -15.465   1.442  1.00  0.00     0.197 A 
HETATM    2  N   UNL     1      40.162 -14.388   0.616  1.00  0.00    -0.259 N 
HETATM    3  C   UNL     1      39.303 -13.589   1.385  1.00  0.00     0.211 A 
HETATM    4  N   UNL     1      39.123 -14.165   2.560  1.00  0.00    -0.116 NA
HETATM    5  N   UNL     1      39.846 -15.320   2.607  1.00  0.00    -0.121 NA
ENDROOT
BRANCH   1   6
HETATM    6  S   UNL     1      41.262 -16.917   0.958  1.00  0.00    -0.082 SA
BRANCH   6   7
HETATM    7  C   UNL     1      42.976 -16.364   1.196  1.00  0.00     0.166 C 
BRANCH   7   8
HETATM    8  C   UNL     1      43.365 -16.289   2.659  1.00  0.00     0.169 C 
HETATM    9  O   UNL     1      43.469 -15.237   3.288  1.00  0.00    -0.291 OA
BRANCH   8  10
HETATM   10  C   UNL     1      43.671 -17.576   3.361  1.00  0.00     0.011 A 
HETATM   11  C   UNL     1      43.814 -17.649   4.752  1.00  0.00     0.017 A 
HETATM   12  C   UNL     1      44.139 -18.854   5.386  1.00  0.00     0.031 A 
HETATM   13  C   UNL     1      44.305 -19.985   4.581  1.00  0.00     0.045 A 
HETATM   14  N   UNL     1      44.628 -21.276   4.922  1.00  0.00    -0.336 N 
HETATM   15  C   UNL     1      44.148 -19.960   3.197  1.00  0.00     0.002 A 
HETATM   16  C   UNL     1      44.675 -22.069   3.811  1.00  0.00     0.147 A 
HETATM   17  H   UNL     1      44.808 -21.607   5.858  1.00  0.00     0.168 HD
HETATM   18  C   UNL     1      44.379 -21.290   2.709  1.00  0.00     0.001 A 
HETATM   19  C   UNL     1      44.298 -21.718   1.288  1.00  0.00     0.054 C 
HETATM   20  C   UNL     1      43.822 -18.735   2.580  1.00  0.00     0.029 A 
BRANCH  16  21
HETATM   21  O   UNL     1      44.970 -23.354   3.952  1.00  0.00    -0.346 OA
HETATM   22  H   UNL     1      45.923 -23.455   3.779  1.00  0.00     0.219 HD
ENDBRANCH  16  21
ENDBRANCH   8  10
ENDBRANCH   7   8
ENDBRANCH   6   7
ENDBRANCH   1   6
BRANCH   2  23
HETATM   23  C   UNL     1      40.666 -14.155  -0.692  1.00  0.00     0.077 A 
HETATM   24  C   UNL     1      41.816 -13.378  -0.904  1.00  0.00     0.095 A 
HETATM   25  C   UNL     1      42.296 -13.234  -2.211  1.00  0.00     0.039 A 
HETATM   26  C   UNL     1      41.640 -13.844  -3.286  1.00  0.00     0.003 A 
HETATM   27  C   UNL     1      40.491 -14.596  -3.071  1.00  0.00     0.002 A 
HETATM   28  C   UNL     1      39.999 -14.752  -1.777  1.00  0.00     0.033 A 
BRANCH  24  29
HETATM   29  O   UNL     1      42.345 -12.728   0.177  1.00  0.00    -0.354 OA
HETATM   30  C   UNL     1      42.195 -11.318   0.239  1.00  0.00     0.210 C 
ENDBRANCH  24  29
ENDBRANCH   2  23
BRANCH   3  31
HETATM   31  N   UNL     1      38.754 -12.394   0.987  1.00  0.00    -0.251 NA
HETATM   32  C   UNL     1      38.888 -11.252   1.903  1.00  0.00     0.098 C 
HETATM   33  C   UNL     1      38.563  -9.957   1.159  1.00  0.00     0.015 C 
HETATM   34  C   UNL     1      37.176 -10.015   0.525  1.00  0.00     0.002 C 
HETATM   35  C   UNL     1      37.034 -11.254  -0.351  1.00  0.00     0.015 C 
HETATM   36  C   UNL     1      37.397 -12.521   0.422  1.00  0.00     0.098 C 
ENDBRANCH   3  31
TORSDOF 8
ENDMDL
MODEL 5
REMARK VINA RESULT:      -8.5      1.673      3.034
REMARK  8 active torsions:
REMARK  status: ('A' for Active; 'I' for Inactive)
REMARK    1  A    between atoms: C_3  and  O_4 
REMARK    2  A    between atoms: C_11  and  C_12 
REMARK    3  A    between atoms: C_12  and  C_13 
REMARK    4  A    between atoms: C_13  and  S_14 
REMARK    5  A    between atoms: S_14  and  C_15 
REMARK    6  A    between atoms: N_16  and  C_17 
REMARK    7  A    between atoms: C_18  and  O_19 
REMARK    8  A    between atoms: C_25  and  N_26 
ROOT
HETATM    1  C   UNL     1      40.851 -14.982  -0.429  1.00  0.00     0.197 A 
HETATM    2  N   UNL     1      40.682 -13.649  -0.767  1.00  0.00    -0.259 N 
HETATM    3  C   UNL     1      40.961 -13.617  -2.142  1.00  0.00     0.211 A 
HETATM    4  N   UNL     1      41.247 -14.843  -2.547  1.00  0.00    -0.116 NA
HETATM    5  N   UNL     1      41.154 -15.696  -1.488  1.00  0.00    -0.121 NA
ENDROOT
BRANCH   1   6
HETATM    6  S   UNL     1      40.873 -15.610   1.193  1.00  0.00    -0.082 SA
BRANCH   6   7
HETATM    7  C   UNL     1      42.411 -16.572   1.107  1.00  0.00     0.166 C 
BRANCH   7   8
HETATM    8  C   UNL     1      43.282 -16.387   2.335  1.00  0.00     0.169 C 
HETATM    9  O   UNL     1      43.726 -15.300   2.703  1.00  0.00    -0.291 OA
BRANCH   8  10
HETATM   10  C   UNL     1      43.643 -17.611   3.118  1.00  0.00     0.011 A 
HETATM   11  C   UNL     1      43.899 -17.565   4.494  1.00  0.00     0.017 A 
HETATM   12  C   UNL     1      44.273 -18.714   5.201  1.00  0.00     0.031 A 
HETATM   13  C   UNL     1      44.371 -19.911   4.487  1.00  0.00     0.045 A 
HETATM   14  N   UNL     1      44.721 -21.170   4.911  1.00  0.00    -0.336 N 
HETATM   15  C   UNL     1      44.103 -20.005   3.123  1.00  0.00     0.002 A 
HETATM   16  C   UNL     1      44.675 -22.057   3.873  1.00  0.00     0.147 A 
HETATM   17  H   UNL     1      44.976 -21.420   5.855  1.00  0.00     0.168 HD
HETATM   18  C   UNL     1      44.291 -21.373   2.735  1.00  0.00     0.001 A 
HETATM   19  C   UNL     1      44.094 -21.922   1.368  1.00  0.00     0.054 C 
HETATM   20  C   UNL     1      43.728 -18.834   2.430  1.00  0.00     0.029 A 
BRANCH  16  21
HETATM   21  O   UNL     1      44.980 -23.327   4.100  1.00  0.00    -0.346 OA
HETATM   22  H   UNL     1      45.307 -23.703   3.263  1.00  0.00     0.219 HD
ENDBRANCH  16  21
ENDBRANCH   8  10
ENDBRANCH   7   8
ENDBRANCH   6   7
ENDBRANCH   1   6
BRANCH   2  23
HETATM   23  C   UNL     1      40.291 -12.585   0.089  1.00  0.00     0.077 A 
HETATM   24  C   UNL     1      41.206 -11.600   0.494  1.00  0.00     0.095 A 
HETATM   25  C   UNL     1      40.746 -10.545   1.291  1.00  0.00     0.039 A 
HETATM   26  C   UNL     1      39.405 -10.477   1.685  1.00  0.00     0.003 A 
HETATM   27  C   UNL     1      38.509 -11.466   1.296  1.00  0.00     0.002 A 
HETATM   28  C   UNL     1      38.948 -12.523   0.502  1.00  0.00     0.033 A 
BRANCH  24  29
HETATM   29  O   UNL     1      42.520 -11.784   0.159  1.00  0.00    -0.354 OA
HETATM   30  C   UNL     1      43.158 -10.765  -0.594  1.00  0.00     0.210 C 
ENDBRANCH  24  29
ENDBRANCH   2  23
BRANCH   3  31
HETATM   31  N   UNL     1      40.925 -12.499  -2.939  1.00  0.00    -0.251 NA
HETATM   32  C   UNL     1      39.675 -12.228  -3.664  1.00  0.00     0.098 C 
HETATM   33  C   UNL     1      39.687 -10.790  -4.184  1.00  0.00     0.015 C 
HETATM   34  C   UNL     1      40.915 -10.524  -5.052  1.00  0.00     0.002 C 
HETATM   35  C   UNL     1      42.192 -10.896  -4.307  1.00  0.00     0.015 C 
HETATM   36  C   UNL     1      42.126 -12.328  -3.778  1.00  0.00     0.098 C 
ENDBRANCH   3  31
TORSDOF 8
ENDMDL
MODEL 6
REMARK VINA RESULT:      -8.5      2.125      4.032
REMARK  8 active torsions:
REMARK  status: ('A' for Active; 'I' for Inactive)
REMARK    1  A    between atoms: C_3  and  O_4 
REMARK    2  A    between atoms: C_11  and  C_12 
REMARK    3  A    between atoms: C_12  and  C_13 
REMARK    4  A    between atoms: C_13  and  S_14 
REMARK    5  A    between atoms: S_14  and  C_15 
REMARK    6  A    between atoms: N_16  and  C_17 
REMARK    7  A    between atoms: C_18  and  O_19 
REMARK    8  A    between atoms: C_25  and  N_26 
ROOT
HETATM    1  C   UNL     1      42.213 -14.373   1.943  1.00  0.00     0.197 A 
HETATM    2  N   UNL     1      41.455 -13.624   1.059  1.00  0.00    -0.259 N 
HETATM    3  C   UNL     1      41.141 -14.532   0.038  1.00  0.00     0.211 A 
HETATM    4  N   UNL     1      41.668 -15.707   0.336  1.00  0.00    -0.116 NA
HETATM    5  N   UNL     1      42.314 -15.616   1.533  1.00  0.00    -0.121 NA
ENDROOT
BRANCH   1   6
HETATM    6  S   UNL     1      43.095 -13.735   3.300  1.00  0.00    -0.082 SA
BRANCH   6   7
HETATM    7  C   UNL     1      42.330 -14.713   4.626  1.00  0.00     0.166 C 
BRANCH   7   8
HETATM    8  C   UNL     1      43.340 -15.200   5.646  1.00  0.00     0.169 C 
HETATM    9  O   UNL     1      43.816 -14.492   6.533  1.00  0.00    -0.291 OA
BRANCH   8  10
HETATM   10  C   UNL     1      43.803 -16.620   5.538  1.00  0.00     0.011 A 
HETATM   11  C   UNL     1      44.495 -17.258   6.575  1.00  0.00     0.017 A 
HETATM   12  C   UNL     1      44.953 -18.574   6.440  1.00  0.00     0.031 A 
HETATM   13  C   UNL     1      44.686 -19.232   5.236  1.00  0.00     0.045 A 
HETATM   14  N   UNL     1      45.018 -20.501   4.827  1.00  0.00    -0.336 N 
HETATM   15  C   UNL     1      43.982 -18.642   4.189  1.00  0.00     0.002 A 
HETATM   16  C   UNL     1      44.544 -20.739   3.568  1.00  0.00     0.147 A 
HETATM   17  H   UNL     1      45.537 -21.174   5.370  1.00  0.00     0.168 HD
HETATM   18  C   UNL     1      43.887 -19.605   3.130  1.00  0.00     0.001 A 
HETATM   19  C   UNL     1      43.201 -19.399   1.828  1.00  0.00     0.054 C 
HETATM   20  C   UNL     1      43.530 -17.315   4.347  1.00  0.00     0.029 A 
BRANCH  16  21
HETATM   21  O   UNL     1      44.769 -21.922   3.011  1.00  0.00    -0.346 OA
HETATM   22  H   UNL     1      44.213 -22.573   3.475  1.00  0.00     0.219 HD
ENDBRANCH  16  21
ENDBRANCH   8  10
ENDBRANCH   7   8
ENDBRANCH   6   7
ENDBRANCH   1   6
BRANCH   2  23
HETATM   23  C   UNL     1      41.075 -12.261   1.190  1.00  0.00     0.077 A 
HETATM   24  C   UNL     1      41.791 -11.238   0.548  1.00  0.00     0.095 A 
HETATM   25  C   UNL     1      41.331  -9.921   0.669  1.00  0.00     0.039 A 
HETATM   26  C   UNL     1      40.189  -9.627   1.420  1.00  0.00     0.003 A 
HETATM   27  C   UNL     1      39.496 -10.643   2.069  1.00  0.00     0.002 A 
HETATM   28  C   UNL     1      39.937 -11.960   1.960  1.00  0.00     0.033 A 
BRANCH  24  29
HETATM   29  O   UNL     1      42.955 -11.584  -0.083  1.00  0.00    -0.354 OA
HETATM   30  C   UNL     1      42.963 -11.577  -1.503  1.00  0.00     0.210 C 
ENDBRANCH  24  29
ENDBRANCH   2  23
BRANCH   3  31
HETATM   31  N   UNL     1      40.393 -14.251  -1.080  1.00  0.00    -0.251 NA
HETATM   32  C   UNL     1      38.947 -14.060  -0.893  1.00  0.00     0.098 C 
HETATM   33  C   UNL     1      38.353 -13.404  -2.139  1.00  0.00     0.015 C 
HETATM   34  C   UNL     1      38.659 -14.217  -3.394  1.00  0.00     0.002 C 
HETATM   35  C   UNL     1      40.157 -14.475  -3.517  1.00  0.00     0.015 C 
HETATM   36  C   UNL     1      40.715 -15.102  -2.241  1.00  0.00     0.098 C 
ENDBRANCH   3  31
TORSDOF 8
ENDMDL
MODEL 7
REMARK VINA RESULT:      -8.4      1.718      2.901
REMARK  8 active torsions:
REMARK  status: ('A' for Active; 'I' for Inactive)
REMARK    1  A    between atoms: C_3  and  O_4 
REMARK    2  A    between atoms: C_11  and  C_12 
REMARK    3  A    between atoms: C_12  and  C_13 
REMARK    4  A    between atoms: C_13  and  S_14 
REMARK    5  A    between atoms: S_14  and  C_15 
REMARK    6  A    between atoms: N_16  and  C_17 
REMARK    7  A    between atoms: C_18  and  O_19 
REMARK    8  A    between atoms: C_25  and  N_26 
ROOT
HETATM    1  C   UNL     1      40.867 -14.926   0.251  1.00  0.00     0.197 A 
HETATM    2  N   UNL     1      40.868 -13.541   0.249  1.00  0.00    -0.259 N 
HETATM    3  C   UNL     1      41.394 -13.211  -1.009  1.00  0.00     0.211 A 
HETATM    4  N   UNL     1      41.651 -14.327  -1.669  1.00  0.00    -0.116 NA
HETATM    5  N   UNL     1      41.301 -15.394  -0.896  1.00  0.00    -0.121 NA
ENDROOT
BRANCH   1   6
HETATM    6  S   UNL     1      40.544 -15.927   1.637  1.00  0.00    -0.082 SA
BRANCH   6   7
HETATM    7  C   UNL     1      42.090 -15.658   2.552  1.00  0.00     0.166 C 
BRANCH   7   8
HETATM    8  C   UNL     1      43.194 -16.605   2.120  1.00  0.00     0.169 C 
HETATM    9  O   UNL     1      43.781 -16.527   1.042  1.00  0.00    -0.291 OA
BRANCH   8  10
HETATM   10  C   UNL     1      43.559 -17.715   3.056  1.00  0.00     0.011 A 
HETATM   11  C   UNL     1      43.669 -17.518   4.438  1.00  0.00     0.017 A 
HETATM   12  C   UNL     1      44.049 -18.560   5.292  1.00  0.00     0.031 A 
HETATM   13  C   UNL     1      44.304 -19.808   4.716  1.00  0.00     0.045 A 
HETATM   14  N   UNL     1      44.696 -20.989   5.298  1.00  0.00    -0.336 N 
HETATM   15  C   UNL     1      44.183 -20.053   3.350  1.00  0.00     0.002 A 
HETATM   16  C   UNL     1      44.819 -21.971   4.357  1.00  0.00     0.147 A 
HETATM   17  H   UNL     1      44.871 -21.127   6.283  1.00  0.00     0.168 HD
HETATM   18  C   UNL     1      44.506 -21.432   3.124  1.00  0.00     0.001 A 
HETATM   19  C   UNL     1      44.489 -22.123   1.808  1.00  0.00     0.054 C 
HETATM   20  C   UNL     1      43.799 -18.987   2.509  1.00  0.00     0.029 A 
BRANCH  16  21
HETATM   21  O   UNL     1      45.188 -23.186   4.741  1.00  0.00    -0.346 OA
HETATM   22  H   UNL     1      46.085 -23.114   5.114  1.00  0.00     0.219 HD
ENDBRANCH  16  21
ENDBRANCH   8  10
ENDBRANCH   7   8
ENDBRANCH   6   7
ENDBRANCH   1   6
BRANCH   2  23
HETATM   23  C   UNL     1      40.414 -12.677   1.281  1.00  0.00     0.077 A 
HETATM   24  C   UNL     1      39.050 -12.382   1.439  1.00  0.00     0.095 A 
HETATM   25  C   UNL     1      38.661 -11.570   2.512  1.00  0.00     0.039 A 
HETATM   26  C   UNL     1      39.608 -11.057   3.403  1.00  0.00     0.003 A 
HETATM   27  C   UNL     1      40.959 -11.338   3.229  1.00  0.00     0.002 A 
HETATM   28  C   UNL     1      41.366 -12.144   2.169  1.00  0.00     0.033 A 
BRANCH  24  29
HETATM   29  O   UNL     1      38.192 -12.832   0.474  1.00  0.00    -0.354 OA
HETATM   30  C   UNL     1      37.369 -13.945   0.789  1.00  0.00     0.210 C 
ENDBRANCH  24  29
ENDBRANCH   2  23
BRANCH   3  31
HETATM   31  N   UNL     1      41.592 -11.937  -1.483  1.00  0.00    -0.251 NA
HETATM   32  C   UNL     1      40.940 -11.581  -2.752  1.00  0.00     0.098 C 
HETATM   33  C   UNL     1      40.959 -10.062  -2.928  1.00  0.00     0.015 C 
HETATM   34  C   UNL     1      42.380  -9.512  -2.847  1.00  0.00     0.002 C 
HETATM   35  C   UNL     1      43.064  -9.968  -1.563  1.00  0.00     0.015 C 
HETATM   36  C   UNL     1      42.995 -11.487  -1.411  1.00  0.00     0.098 C 
ENDBRANCH   3  31
TORSDOF 8
ENDMDL
MODEL 8
REMARK VINA RESULT:      -8.4      5.856      9.500
REMARK  8 active torsions:
REMARK  status: ('A' for Active; 'I' for Inactive)
REMARK    1  A    between atoms: C_3  and  O_4 
REMARK    2  A    between atoms: C_11  and  C_12 
REMARK    3  A    between atoms: C_12  and  C_13 
REMARK    4  A    between atoms: C_13  and  S_14 
REMARK    5  A    between atoms: S_14  and  C_15 
REMARK    6  A    between atoms: N_16  and  C_17 
REMARK    7  A    between atoms: C_18  and  O_19 
REMARK    8  A    between atoms: C_25  and  N_26 
ROOT
HETATM    1  C   UNL     1      40.352 -14.322   4.482  1.00  0.00     0.197 A 
HETATM    2  N   UNL     1      41.566 -14.988   4.487  1.00  0.00    -0.259 N 
HETATM    3  C   UNL     1      41.492 -15.822   3.362  1.00  0.00     0.211 A 
HETATM    4  N   UNL     1      40.332 -15.624   2.761  1.00  0.00    -0.116 NA
HETATM    5  N   UNL     1      39.632 -14.673   3.442  1.00  0.00    -0.121 NA
ENDROOT
BRANCH   1   6
HETATM    6  S   UNL     1      39.753 -13.317   5.770  1.00  0.00    -0.082 SA
BRANCH   6   7
HETATM    7  C   UNL     1      39.743 -11.719   4.906  1.00  0.00     0.166 C 
BRANCH   7   8
HETATM    8  C   UNL     1      40.758 -10.745   5.473  1.00  0.00     0.169 C 
HETATM    9  O   UNL     1      41.487 -10.035   4.781  1.00  0.00    -0.291 OA
BRANCH   8  10
HETATM   10  C   UNL     1      40.896 -10.677   6.963  1.00  0.00     0.011 A 
HETATM   11  C   UNL     1      39.823 -10.336   7.794  1.00  0.00     0.017 A 
HETATM   12  C   UNL     1      39.982 -10.241   9.182  1.00  0.00     0.031 A 
HETATM   13  C   UNL     1      41.249 -10.508   9.708  1.00  0.00     0.045 A 
HETATM   14  N   UNL     1      41.692 -10.482  11.008  1.00  0.00    -0.336 N 
HETATM   15  C   UNL     1      42.337 -10.872   8.918  1.00  0.00     0.002 A 
HETATM   16  C   UNL     1      43.013 -10.824  11.073  1.00  0.00     0.147 A 
HETATM   17  H   UNL     1      41.131 -10.247  11.814  1.00  0.00     0.168 HD
HETATM   18  C   UNL     1      43.458 -11.079   9.790  1.00  0.00     0.001 A 
HETATM   19  C   UNL     1      44.820 -11.496   9.367  1.00  0.00     0.054 C 
HETATM   20  C   UNL     1      42.154 -10.962   7.522  1.00  0.00     0.029 A 
BRANCH  16  21
HETATM   21  O   UNL     1      43.610 -10.856  12.256  1.00  0.00    -0.346 OA
HETATM   22  H   UNL     1      42.933 -10.673  12.930  1.00  0.00     0.219 HD
ENDBRANCH  16  21
ENDBRANCH   8  10
ENDBRANCH   7   8
ENDBRANCH   6   7
ENDBRANCH   1   6
BRANCH   2  23
HETATM   23  C   UNL     1      42.633 -14.828   5.412  1.00  0.00     0.077 A 
HETATM   24  C   UNL     1      42.847 -15.753   6.447  1.00  0.00     0.095 A 
HETATM   25  C   UNL     1      43.950 -15.572   7.289  1.00  0.00     0.039 A 
HETATM   26  C   UNL     1      44.817 -14.489   7.112  1.00  0.00     0.003 A 
HETATM   27  C   UNL     1      44.588 -13.566   6.098  1.00  0.00     0.002 A 
HETATM   28  C   UNL     1      43.496 -13.730   5.248  1.00  0.00     0.033 A 
BRANCH  24  29
HETATM   29  O   UNL     1      41.904 -16.728   6.625  1.00  0.00    -0.354 OA
HETATM   30  C   UNL     1      42.341 -17.987   7.116  1.00  0.00     0.210 C 
ENDBRANCH  24  29
ENDBRANCH   2  23
BRANCH   3  31
HETATM   31  N   UNL     1      42.473 -16.688   2.943  1.00  0.00    -0.251 NA
HETATM   32  C   UNL     1      42.842 -16.652   1.520  1.00  0.00     0.098 C 
HETATM   33  C   UNL     1      44.167 -17.388   1.316  1.00  0.00     0.015 C 
HETATM   34  C   UNL     1      44.094 -18.818   1.847  1.00  0.00     0.002 C 
HETATM   35  C   UNL     1      43.624 -18.832   3.297  1.00  0.00     0.015 C 
HETATM   36  C   UNL     1      42.317 -18.059   3.462  1.00  0.00     0.098 C 
ENDBRANCH   3  31
TORSDOF 8
ENDMDL
MODEL 9
REMARK VINA RESULT:      -8.4      3.067      5.103
REMARK  8 active torsions:
REMARK  status: ('A' for Active; 'I' for Inactive)
REMARK    1  A    between atoms: C_3  and  O_4 
REMARK    2  A    between atoms: C_11  and  C_12 
REMARK    3  A    between atoms: C_12  and  C_13 
REMARK    4  A    between atoms: C_13  and  S_14 
REMARK    5  A    between atoms: S_14  and  C_15 
REMARK    6  A    between atoms: N_16  and  C_17 
REMARK    7  A    between atoms: C_18  and  O_19 
REMARK    8  A    between atoms: C_25  and  N_26 
ROOT
HETATM    1  C   UNL     1      42.629 -15.591   1.839  1.00  0.00     0.197 A 
HETATM    2  N   UNL     1      41.667 -14.641   2.138  1.00  0.00    -0.259 N 
HETATM    3  C   UNL     1      42.156 -14.027   3.300  1.00  0.00     0.211 A 
HETATM    4  N   UNL     1      43.315 -14.578   3.618  1.00  0.00    -0.116 NA
HETATM    5  N   UNL     1      43.622 -15.534   2.696  1.00  0.00    -0.121 NA
ENDROOT
BRANCH   1   6
HETATM    6  S   UNL     1      42.471 -16.835   0.633  1.00  0.00    -0.082 SA
BRANCH   6   7
HETATM    7  C   UNL     1      41.866 -18.183   1.690  1.00  0.00     0.166 C 
BRANCH   7   8
HETATM    8  C   UNL     1      42.970 -19.136   2.107  1.00  0.00     0.169 C 
HETATM    9  O   UNL     1      43.476 -19.969   1.357  1.00  0.00    -0.291 OA
BRANCH   8  10
HETATM   10  C   UNL     1      43.440 -19.070   3.527  1.00  0.00     0.011 A 
HETATM   11  C   UNL     1      44.502 -19.854   3.996  1.00  0.00     0.017 A 
HETATM   12  C   UNL     1      44.902 -19.807   5.336  1.00  0.00     0.031 A 
HETATM   13  C   UNL     1      44.210 -18.941   6.188  1.00  0.00     0.045 A 
HETATM   14  N   UNL     1      44.375 -18.699   7.531  1.00  0.00    -0.336 N 
HETATM   15  C   UNL     1      43.164 -18.128   5.758  1.00  0.00     0.002 A 
HETATM   16  C   UNL     1      43.482 -17.760   7.963  1.00  0.00     0.147 A 
HETATM   17  H   UNL     1      45.057 -19.144   8.126  1.00  0.00     0.168 HD
HETATM   18  C   UNL     1      42.706 -17.373   6.888  1.00  0.00     0.001 A 
HETATM   19  C   UNL     1      41.612 -16.367   6.873  1.00  0.00     0.054 C 
HETATM   20  C   UNL     1      42.778 -18.192   4.402  1.00  0.00     0.029 A 
BRANCH  16  21
HETATM   21  O   UNL     1      43.499 -17.398   9.239  1.00  0.00    -0.346 OA
HETATM   22  H   UNL     1      42.576 -17.262   9.515  1.00  0.00     0.219 HD
ENDBRANCH  16  21
ENDBRANCH   8  10
ENDBRANCH   7   8
ENDBRANCH   6   7
ENDBRANCH   1   6
BRANCH   2  23
HETATM   23  C   UNL     1      40.481 -14.357   1.409  1.00  0.00     0.077 A 
HETATM   24  C   UNL     1      40.525 -13.695   0.172  1.00  0.00     0.095 A 
HETATM   25  C   UNL     1      39.327 -13.496  -0.524  1.00  0.00     0.039 A 
HETATM   26  C   UNL     1      38.110 -13.938   0.003  1.00  0.00     0.003 A 
HETATM   27  C   UNL     1      38.071 -14.575   1.239  1.00  0.00     0.002 A 
HETATM   28  C   UNL     1      39.253 -14.784   1.946  1.00  0.00     0.033 A 
BRANCH  24  29
HETATM   29  O   UNL     1      41.734 -13.200  -0.235  1.00  0.00    -0.354 OA
HETATM   30  C   UNL     1      41.874 -11.790  -0.325  1.00  0.00     0.210 C 
ENDBRANCH  24  29
ENDBRANCH   2  23
BRANCH   3  31
HETATM   31  N   UNL     1      41.541 -13.007   3.985  1.00  0.00    -0.251 NA
HETATM   32  C   UNL     1      41.510 -11.686   3.342  1.00  0.00     0.098 C 
HETATM   33  C   UNL     1      40.490 -10.795   4.052  1.00  0.00     0.015 C 
HETATM   34  C   UNL     1      40.788 -10.692   5.546  1.00  0.00     0.002 C 
HETATM   35  C   UNL     1      40.901 -12.078   6.170  1.00  0.00     0.015 C 
HETATM   36  C   UNL     1      41.906 -12.944   5.413  1.00  0.00     0.098 C 
ENDBRANCH   3  31
TORSDOF 8
ENDMDL
MODEL 10
REMARK VINA RESULT:      -8.3      1.944      3.887
REMARK  8 active torsions:
REMARK  status: ('A' for Active; 'I' for Inactive)
REMARK    1  A    between atoms: C_3  and  O_4 
REMARK    2  A    between atoms: C_11  and  C_12 
REMARK    3  A    between atoms: C_12  and  C_13 
REMARK    4  A    between atoms: C_13  and  S_14 
REMARK    5  A    between atoms: S_14  and  C_15 
REMARK    6  A    between atoms: N_16  and  C_17 
REMARK    7  A    between atoms: C_18  and  O_19 
REMARK    8  A    between atoms: C_25  and  N_26 
ROOT
HETATM    1  C   UNL     1      39.984 -13.973   1.501  1.00  0.00     0.197 A 
HETATM    2  N   UNL     1      39.983 -13.372   0.253  1.00  0.00    -0.259 N 
HETATM    3  C   UNL     1      38.677 -13.581  -0.215  1.00  0.00     0.211 A 
HETATM    4  N   UNL     1      37.993 -14.233   0.708  1.00  0.00    -0.116 NA
HETATM    5  N   UNL     1      38.797 -14.456   1.786  1.00  0.00    -0.121 NA
ENDROOT
BRANCH   1   6
HETATM    6  S   UNL     1      41.395 -14.249   2.480  1.00  0.00    -0.082 SA
BRANCH   6   7
HETATM    7  C   UNL     1      41.207 -16.035   2.757  1.00  0.00     0.166 C 
BRANCH   7   8
HETATM    8  C   UNL     1      42.002 -16.525   3.952  1.00  0.00     0.169 C 
HETATM    9  O   UNL     1      42.011 -15.963   5.047  1.00  0.00    -0.291 OA
BRANCH   8  10
HETATM   10  C   UNL     1      42.848 -17.746   3.767  1.00  0.00     0.011 A 
HETATM   11  C   UNL     1      43.434 -18.066   2.536  1.00  0.00     0.017 A 
HETATM   12  C   UNL     1      44.189 -19.233   2.374  1.00  0.00     0.031 A 
HETATM   13  C   UNL     1      44.347 -20.063   3.488  1.00  0.00     0.045 A 
HETATM   14  N   UNL     1      45.016 -21.256   3.617  1.00  0.00    -0.336 N 
HETATM   15  C   UNL     1      43.801 -19.770   4.736  1.00  0.00     0.002 A 
HETATM   16  C   UNL     1      44.923 -21.723   4.897  1.00  0.00     0.147 A 
HETATM   17  H   UNL     1      45.514 -21.731   2.879  1.00  0.00     0.168 HD
HETATM   18  C   UNL     1      44.173 -20.825   5.633  1.00  0.00     0.001 A 
HETATM   19  C   UNL     1      43.816 -20.905   7.074  1.00  0.00     0.054 C 
HETATM   20  C   UNL     1      43.042 -18.588   4.876  1.00  0.00     0.029 A 
BRANCH  16  21
HETATM   21  O   UNL     1      45.516 -22.868   5.208  1.00  0.00    -0.346 OA
HETATM   22  H   UNL     1      44.819 -23.498   5.463  1.00  0.00     0.219 HD
ENDBRANCH  16  21
ENDBRANCH   8  10
ENDBRANCH   7   8
ENDBRANCH   6   7
ENDBRANCH   1   6
BRANCH   2  23
HETATM   23  C   UNL     1      41.058 -12.687  -0.375  1.00  0.00     0.077 A 
HETATM   24  C   UNL     1      41.806 -13.286  -1.401  1.00  0.00     0.095 A 
HETATM   25  C   UNL     1      42.815 -12.538  -2.019  1.00  0.00     0.039 A 
HETATM   26  C   UNL     1      43.079 -11.224  -1.620  1.00  0.00     0.003 A 
HETATM   27  C   UNL     1      42.347 -10.643  -0.589  1.00  0.00     0.002 A 
HETATM   28  C   UNL     1      41.339 -11.372   0.037  1.00  0.00     0.033 A 
BRANCH  24  29
HETATM   29  O   UNL     1      41.563 -14.605  -1.670  1.00  0.00    -0.354 OA
HETATM   30  C   UNL     1      41.272 -14.962  -3.013  1.00  0.00     0.210 C 
ENDBRANCH  24  29
ENDBRANCH   2  23
BRANCH   3  31
HETATM   31  N   UNL     1      38.186 -13.160  -1.427  1.00  0.00    -0.251 NA
HETATM   32  C   UNL     1      37.245 -12.030  -1.418  1.00  0.00     0.098 C 
HETATM   33  C   UNL     1      37.101 -11.472  -2.834  1.00  0.00     0.015 C 
HETATM   34  C   UNL     1      36.673 -12.559  -3.817  1.00  0.00     0.002 C 
HETATM   35  C   UNL     1      37.615 -13.755  -3.744  1.00  0.00     0.015 C 
HETATM   36  C   UNL     1      37.755 -14.261  -2.309  1.00  0.00     0.098 C 
ENDBRANCH   3  31
TORSDOF 8
ENDMDL
