MODEL 1
REMARK VINA RESULT:      -8.6      0.000      0.000
REMARK  10 active torsions:
REMARK  status: ('A' for Active; 'I' for Inactive)
REMARK    1  A    between atoms: C_6  and  C_7 
REMARK    2  A    between atoms: C_9  and  C_10 
REMARK    3  A    between atoms: C_10  and  C_11 
REMARK       I    between atoms: C_11  and  N_12 
REMARK    4  A    between atoms: N_12  and  C_13 
REMARK    5  A    between atoms: C_13  and  C_14 
REMARK    6  A    between atoms: C_14  and  N_15 
REMARK    7  A    between atoms: C_26  and  C_27 
REMARK    8  A    between atoms: C_27  and  O_28 
REMARK    9  A    between atoms: O_28  and  C_29 
REMARK   10  A    between atoms: C_29  and  C_30 
ROOT
HETATM    1  C   UNL     1      41.825 -16.216   3.697  1.00  0.00     0.166 C 
HETATM    2  N   UNL     1      41.675 -14.762   3.463  1.00  0.00    -0.318 N 
HETATM    3  C   UNL     1      42.207 -13.627   3.774  1.00  0.00     0.011 C 
HETATM    4  C   UNL     1      40.500 -14.551   2.459  1.00  0.00     0.170 C 
HETATM    5  S   UNL     1      39.835 -12.968   2.603  1.00  0.00    -0.086 SA
HETATM    6  C   UNL     1      41.383 -12.405   3.386  1.00  0.00     0.135 C 
HETATM    7  N   UNL     1      40.175 -15.418   1.559  1.00  0.00    -0.229 NA
HETATM    8  C   UNL     1      41.056 -16.482   1.380  1.00  0.00     0.048 C 
HETATM    9  C   UNL     1      41.031 -17.089  -0.003  1.00  0.00     0.071 C 
HETATM   10  C   UNL     1      41.939 -16.848   2.342  1.00  0.00     0.069 C 
ENDROOT
BRANCH   3  11
HETATM   11  C   UNL     1      43.575 -13.494   4.384  1.00  0.00     0.156 C 
BRANCH  11  12
HETATM   12  C   UNL     1      43.469 -13.380   5.896  1.00  0.00     0.223 C 
HETATM   13  N   UNL     1      44.601 -13.665   6.620  1.00  0.00    -0.359 N 
HETATM   14  H   UNL     1      45.386 -14.090   6.131  1.00  0.00     0.162 HD
HETATM   15  O   UNL     1      42.418 -13.038   6.432  1.00  0.00    -0.273 OA
BRANCH  13  16
HETATM   16  C   UNL     1      44.534 -13.877   8.068  1.00  0.00     0.150 C 
BRANCH  16  17
HETATM   17  C   UNL     1      44.852 -12.638   8.944  1.00  0.00     0.253 C 
BRANCH  17  18
HETATM   18  N   UNL     1      43.709 -12.288   9.888  1.00  0.00    -0.077 N 
HETATM   19  H   UNL     1      42.959 -12.982   9.768  1.00  0.00     0.279 HD
HETATM   20  C   UNL     1      44.113 -12.303  11.340  1.00  0.00     0.269 C 
HETATM   21  C   UNL     1      43.090 -10.955   9.532  1.00  0.00     0.269 C 
ENDBRANCH  17  18
ENDBRANCH  16  17
ENDBRANCH  13  16
ENDBRANCH  11  12
ENDBRANCH   3  11
BRANCH   1  22
HETATM   22  C   UNL     1      42.532 -16.642   4.986  1.00  0.00    -0.024 A 
HETATM   23  C   UNL     1      41.790 -16.904   6.180  1.00  0.00    -0.053 A 
HETATM   24  C   UNL     1      42.444 -17.403   7.330  1.00  0.00     0.014 A 
HETATM   25  C   UNL     1      40.297 -16.712   6.317  1.00  0.00     0.049 C 
HETATM   26  C   UNL     1      43.806 -17.693   7.331  1.00  0.00    -0.061 A 
HETATM   27  C   UNL     1      44.460 -18.353   8.510  1.00  0.00     0.048 C 
HETATM   28  C   UNL     1      44.528 -17.463   6.168  1.00  0.00     0.007 A 
HETATM   29  C   UNL     1      43.904 -16.947   5.026  1.00  0.00     0.011 A 
ENDBRANCH   1  22
BRANCH  10  30
HETATM   30  C   UNL     1      43.091 -17.655   1.937  1.00  0.00     0.294 C 
HETATM   31  O   UNL     1      44.095 -17.220   1.412  1.00  0.00    -0.259 OA
BRANCH  30  32
HETATM   32  O   UNL     1      42.785 -18.940   2.231  1.00  0.00    -0.313 OA
BRANCH  32  33
HETATM   33  C   UNL     1      43.647 -19.951   1.672  1.00  0.00     0.217 C 
BRANCH  33  34
HETATM   34  C   UNL     1      44.155 -20.794   2.818  1.00  0.00    -0.034 A 
HETATM   35  C   UNL     1      44.339 -22.174   2.665  1.00  0.00     0.009 A 
HETATM   36  C   UNL     1      44.751 -22.957   3.745  1.00  0.00     0.001 A 
HETATM   37  C   UNL     1      44.982 -22.372   4.988  1.00  0.00     0.000 A 
HETATM   38  C   UNL     1      44.814 -20.998   5.151  1.00  0.00     0.001 A 
HETATM   39  C   UNL     1      44.413 -20.213   4.068  1.00  0.00     0.009 A 
ENDBRANCH  33  34
ENDBRANCH  32  33
ENDBRANCH  30  32
ENDBRANCH  10  30
TORSDOF 10
ENDMDL
MODEL 2
REMARK VINA RESULT:      -8.3      2.105      3.335
REMARK  10 active torsions:
REMARK  status: ('A' for Active; 'I' for Inactive)
REMARK    1  A    between atoms: C_6  and  C_7 
REMARK    2  A    between atoms: C_9  and  C_10 
REMARK    3  A    between atoms: C_10  and  C_11 
REMARK       I    between atoms: C_11  and  N_12 
REMARK    4  A    between atoms: N_12  and  C_13 
REMARK    5  A    between atoms: C_13  and  C_14 
REMARK    6  A    between atoms: C_14  and  N_15 
REMARK    7  A    between atoms: C_26  and  C_27 
REMARK    8  A    between atoms: C_27  and  O_28 
REMARK    9  A    between atoms: O_28  and  C_29 
REMARK   10  A    between atoms: C_29  and  C_30 
ROOT
HETATM    1  C   UNL     1      42.020 -14.201   5.559  1.00  0.00     0.166 C 
HETATM    2  N   UNL     1      42.060 -12.877   6.219  1.00  0.00    -0.318 N 
HETATM    3  C   UNL     1      42.721 -12.207   7.104  1.00  0.00     0.011 C 
HETATM    4  C   UNL     1      40.953 -11.983   5.581  1.00  0.00     0.170 C 
HETATM    5  S   UNL     1      40.487 -10.711   6.647  1.00  0.00    -0.086 SA
HETATM    6  C   UNL     1      42.069 -10.899   7.537  1.00  0.00     0.135 C 
HETATM    7  N   UNL     1      40.550 -12.119   4.362  1.00  0.00    -0.229 NA
HETATM    8  C   UNL     1      41.295 -12.977   3.558  1.00  0.00     0.048 C 
HETATM    9  C   UNL     1      41.238 -12.660   2.082  1.00  0.00     0.071 C 
HETATM   10  C   UNL     1      42.096 -13.937   4.086  1.00  0.00     0.069 C 
ENDROOT
BRANCH   3  11
HETATM   11  C   UNL     1      44.075 -12.618   7.613  1.00  0.00     0.156 C 
BRANCH  11  12
HETATM   12  C   UNL     1      44.357 -11.958   8.953  1.00  0.00     0.223 C 
HETATM   13  N   UNL     1      43.770 -12.525  10.058  1.00  0.00    -0.359 N 
HETATM   14  H   UNL     1      43.059 -13.239   9.908  1.00  0.00     0.162 HD
HETATM   15  O   UNL     1      45.084 -10.972   9.031  1.00  0.00    -0.273 OA
BRANCH  13  16
HETATM   16  C   UNL     1      43.728 -11.812  11.336  1.00  0.00     0.150 C 
BRANCH  16  17
HETATM   17  C   UNL     1      42.549 -10.820  11.515  1.00  0.00     0.253 C 
BRANCH  17  18
HETATM   18  N   UNL     1      41.202 -11.529  11.578  1.00  0.00    -0.077 N 
HETATM   19  H   UNL     1      41.332 -12.510  11.295  1.00  0.00     0.279 HD
HETATM   20  C   UNL     1      40.597 -11.531  12.959  1.00  0.00     0.269 C 
HETATM   21  C   UNL     1      40.227 -10.945  10.581  1.00  0.00     0.269 C 
ENDBRANCH  17  18
ENDBRANCH  16  17
ENDBRANCH  13  16
ENDBRANCH  11  12
ENDBRANCH   3  11
BRANCH   1  22
HETATM   22  C   UNL     1      42.628 -15.377   6.328  1.00  0.00    -0.024 A 
HETATM   23  C   UNL     1      41.837 -16.517   6.674  1.00  0.00    -0.053 A 
HETATM   24  C   UNL     1      42.438 -17.642   7.285  1.00  0.00     0.014 A 
HETATM   25  C   UNL     1      40.355 -16.641   6.406  1.00  0.00     0.049 C 
HETATM   26  C   UNL     1      43.808 -17.698   7.530  1.00  0.00    -0.061 A 
HETATM   27  C   UNL     1      44.454 -18.950   8.048  1.00  0.00     0.048 C 
HETATM   28  C   UNL     1      44.585 -16.605   7.175  1.00  0.00     0.007 A 
HETATM   29  C   UNL     1      44.006 -15.472   6.592  1.00  0.00     0.011 A 
ENDBRANCH   1  22
BRANCH  10  30
HETATM   30  C   UNL     1      43.150 -14.489   3.233  1.00  0.00     0.294 C 
HETATM   31  O   UNL     1      44.208 -13.945   2.995  1.00  0.00    -0.259 OA
BRANCH  30  32
HETATM   32  O   UNL     1      42.687 -15.671   2.763  1.00  0.00    -0.313 OA
BRANCH  32  33
HETATM   33  C   UNL     1      43.559 -16.397   1.875  1.00  0.00     0.217 C 
BRANCH  33  34
HETATM   34  C   UNL     1      43.724 -17.787   2.442  1.00  0.00    -0.034 A 
HETATM   35  C   UNL     1      43.958 -17.980   3.809  1.00  0.00     0.009 A 
HETATM   36  C   UNL     1      44.170 -19.263   4.316  1.00  0.00     0.001 A 
HETATM   37  C   UNL     1      44.151 -20.367   3.465  1.00  0.00     0.000 A 
HETATM   38  C   UNL     1      43.906 -20.190   2.105  1.00  0.00     0.001 A 
HETATM   39  C   UNL     1      43.683 -18.908   1.599  1.00  0.00     0.009 A 
ENDBRANCH  33  34
ENDBRANCH  32  33
ENDBRANCH  30  32
ENDBRANCH  10  30
TORSDOF 10
ENDMDL
MODEL 3
REMARK VINA RESULT:      -8.1      3.045      6.240
REMARK  10 active torsions:
REMARK  status: ('A' for Active; 'I' for Inactive)
REMARK    1  A    between atoms: C_6  and  C_7 
REMARK    2  A    between atoms: C_9  and  C_10 
REMARK    3  A    between atoms: C_10  and  C_11 
REMARK       I    between atoms: C_11  and  N_12 
REMARK    4  A    between atoms: N_12  and  C_13 
REMARK    5  A    between atoms: C_13  and  C_14 
REMARK    6  A    between atoms: C_14  and  N_15 
REMARK    7  A    between atoms: C_26  and  C_27 
REMARK    8  A    between atoms: C_27  and  O_28 
REMARK    9  A    between atoms: O_28  and  C_29 
REMARK   10  A    between atoms: C_29  and  C_30 
ROOT
HETATM    1  C   UNL     1      41.074 -15.493   2.368  1.00  0.00     0.166 C 
HETATM    2  N   UNL     1      41.168 -14.309   3.251  1.00  0.00    -0.318 N 
HETATM    3  C   UNL     1      42.013 -13.647   3.968  1.00  0.00     0.011 C 
HETATM    4  C   UNL     1      39.776 -13.606   3.269  1.00  0.00     0.170 C 
HETATM    5  S   UNL     1      39.580 -12.649   4.689  1.00  0.00    -0.086 SA
HETATM    6  C   UNL     1      41.393 -12.602   4.889  1.00  0.00     0.135 C 
HETATM    7  N   UNL     1      38.950 -13.647   2.277  1.00  0.00    -0.229 NA
HETATM    8  C   UNL     1      39.440 -14.182   1.088  1.00  0.00     0.048 C 
HETATM    9  C   UNL     1      38.756 -13.669  -0.158  1.00  0.00     0.071 C 
HETATM   10  C   UNL     1      40.521 -15.001   1.064  1.00  0.00     0.069 C 
ENDROOT
BRANCH   3  11
HETATM   11  C   UNL     1      43.504 -13.810   3.853  1.00  0.00     0.156 C 
BRANCH  11  12
HETATM   12  C   UNL     1      44.091 -14.239   5.188  1.00  0.00     0.223 C 
HETATM   13  N   UNL     1      43.630 -15.420   5.717  1.00  0.00    -0.359 N 
HETATM   14  H   UNL     1      42.817 -15.853   5.282  1.00  0.00     0.162 HD
HETATM   15  O   UNL     1      44.944 -13.558   5.751  1.00  0.00    -0.273 OA
BRANCH  13  16
HETATM   16  C   UNL     1      43.898 -15.774   7.112  1.00  0.00     0.150 C 
BRANCH  16  17
HETATM   17  C   UNL     1      43.278 -17.109   7.599  1.00  0.00     0.253 C 
BRANCH  17  18
HETATM   18  N   UNL     1      44.279 -18.256   7.568  1.00  0.00    -0.077 N 
HETATM   19  H   UNL     1      44.761 -18.298   8.476  1.00  0.00     0.279 HD
HETATM   20  C   UNL     1      43.636 -19.599   7.333  1.00  0.00     0.269 C 
HETATM   21  C   UNL     1      45.364 -18.011   6.543  1.00  0.00     0.269 C 
ENDBRANCH  17  18
ENDBRANCH  16  17
ENDBRANCH  13  16
ENDBRANCH  11  12
ENDBRANCH   3  11
BRANCH   1  22
HETATM   22  C   UNL     1      42.108 -16.602   2.582  1.00  0.00    -0.024 A 
HETATM   23  C   UNL     1      41.972 -17.539   3.653  1.00  0.00    -0.053 A 
HETATM   24  C   UNL     1      42.872 -18.623   3.771  1.00  0.00     0.014 A 
HETATM   25  C   UNL     1      40.883 -17.486   4.700  1.00  0.00     0.049 C 
HETATM   26  C   UNL     1      43.884 -18.839   2.839  1.00  0.00    -0.061 A 
HETATM   27  C   UNL     1      44.744 -20.068   2.896  1.00  0.00     0.048 C 
HETATM   28  C   UNL     1      44.008 -17.946   1.784  1.00  0.00     0.007 A 
HETATM   29  C   UNL     1      43.142 -16.854   1.663  1.00  0.00     0.011 A 
ENDBRANCH   1  22
BRANCH  10  30
HETATM   30  C   UNL     1      41.223 -15.164  -0.209  1.00  0.00     0.294 C 
HETATM   31  O   UNL     1      41.197 -16.165  -0.895  1.00  0.00    -0.259 OA
BRANCH  30  32
HETATM   32  O   UNL     1      41.906 -14.015  -0.424  1.00  0.00    -0.313 OA
BRANCH  32  33
HETATM   33  C   UNL     1      42.032 -13.587  -1.794  1.00  0.00     0.217 C 
BRANCH  33  34
HETATM   34  C   UNL     1      42.370 -12.115  -1.778  1.00  0.00    -0.034 A 
HETATM   35  C   UNL     1      42.446 -11.385  -2.971  1.00  0.00     0.009 A 
HETATM   36  C   UNL     1      42.818 -10.040  -2.954  1.00  0.00     0.001 A 
HETATM   37  C   UNL     1      43.119  -9.410  -1.748  1.00  0.00     0.000 A 
HETATM   38  C   UNL     1      43.035 -10.121  -0.553  1.00  0.00     0.001 A 
HETATM   39  C   UNL     1      42.652 -11.464  -0.568  1.00  0.00     0.009 A 
ENDBRANCH  33  34
ENDBRANCH  32  33
ENDBRANCH  30  32
ENDBRANCH  10  30
TORSDOF 10
ENDMDL
MODEL 4
REMARK VINA RESULT:      -8.0      2.801      6.064
REMARK  10 active torsions:
REMARK  status: ('A' for Active; 'I' for Inactive)
REMARK    1  A    between atoms: C_6  and  C_7 
REMARK    2  A    between atoms: C_9  and  C_10 
REMARK    3  A    between atoms: C_10  and  C_11 
REMARK       I    between atoms: C_11  and  N_12 
REMARK    4  A    between atoms: N_12  and  C_13 
REMARK    5  A    between atoms: C_13  and  C_14 
REMARK    6  A    between atoms: C_14  and  N_15 
REMARK    7  A    between atoms: C_26  and  C_27 
REMARK    8  A    between atoms: C_27  and  O_28 
REMARK    9  A    between atoms: O_28  and  C_29 
REMARK   10  A    between atoms: C_29  and  C_30 
ROOT
HETATM    1  C   UNL     1      41.108 -14.776   3.012  1.00  0.00     0.166 C 
HETATM    2  N   UNL     1      41.262 -13.817   4.129  1.00  0.00    -0.318 N 
HETATM    3  C   UNL     1      42.133 -13.387   4.980  1.00  0.00     0.011 C 
HETATM    4  C   UNL     1      39.922 -13.034   4.285  1.00  0.00     0.170 C 
HETATM    5  S   UNL     1      39.758 -12.391   5.876  1.00  0.00    -0.086 SA
HETATM    6  C   UNL     1      41.565 -12.520   6.098  1.00  0.00     0.135 C 
HETATM    7  N   UNL     1      39.120 -12.803   3.300  1.00  0.00    -0.229 NA
HETATM    8  C   UNL     1      39.600 -13.105   2.029  1.00  0.00     0.048 C 
HETATM    9  C   UNL     1      38.985 -12.290   0.916  1.00  0.00     0.071 C 
HETATM   10  C   UNL     1      40.622 -13.978   1.840  1.00  0.00     0.069 C 
ENDROOT
BRANCH   3  11
HETATM   11  C   UNL     1      43.611 -13.629   4.846  1.00  0.00     0.156 C 
BRANCH  11  12
HETATM   12  C   UNL     1      44.130 -14.401   6.049  1.00  0.00     0.223 C 
HETATM   13  N   UNL     1      43.511 -15.595   6.332  1.00  0.00    -0.359 N 
HETATM   14  H   UNL     1      42.650 -15.816   5.836  1.00  0.00     0.162 HD
HETATM   15  O   UNL     1      45.063 -13.971   6.721  1.00  0.00    -0.273 OA
BRANCH  13  16
HETATM   16  C   UNL     1      43.723 -16.264   7.618  1.00  0.00     0.150 C 
BRANCH  16  17
HETATM   17  C   UNL     1      43.198 -17.720   7.713  1.00  0.00     0.253 C 
BRANCH  17  18
HETATM   18  N   UNL     1      44.279 -18.746   7.396  1.00  0.00    -0.077 N 
HETATM   19  H   UNL     1      44.770 -18.987   8.267  1.00  0.00     0.279 HD
HETATM   20  C   UNL     1      43.731 -20.024   6.815  1.00  0.00     0.269 C 
HETATM   21  C   UNL     1      45.334 -18.167   6.481  1.00  0.00     0.269 C 
ENDBRANCH  17  18
ENDBRANCH  16  17
ENDBRANCH  13  16
ENDBRANCH  11  12
ENDBRANCH   3  11
BRANCH   1  22
HETATM   22  C   UNL     1      42.057 -15.977   2.993  1.00  0.00    -0.024 A 
HETATM   23  C   UNL     1      41.829 -17.109   3.835  1.00  0.00    -0.053 A 
HETATM   24  C   UNL     1      42.650 -18.255   3.726  1.00  0.00     0.014 A 
HETATM   25  C   UNL     1      40.720 -17.202   4.858  1.00  0.00     0.049 C 
HETATM   26  C   UNL     1      43.668 -18.340   2.780  1.00  0.00    -0.061 A 
HETATM   27  C   UNL     1      44.439 -19.612   2.579  1.00  0.00     0.048 C 
HETATM   28  C   UNL     1      43.881 -17.253   1.943  1.00  0.00     0.007 A 
HETATM   29  C   UNL     1      43.095 -16.100   2.052  1.00  0.00     0.011 A 
ENDBRANCH   1  22
BRANCH  10  30
HETATM   30  C   UNL     1      41.343 -13.916   0.568  1.00  0.00     0.294 C 
HETATM   31  O   UNL     1      42.227 -13.127   0.306  1.00  0.00    -0.259 OA
BRANCH  30  32
HETATM   32  O   UNL     1      40.803 -14.870  -0.229  1.00  0.00    -0.313 OA
BRANCH  32  33
HETATM   33  C   UNL     1      41.249 -14.891  -1.599  1.00  0.00     0.217 C 
BRANCH  33  34
HETATM   34  C   UNL     1      40.018 -14.970  -2.471  1.00  0.00    -0.034 A 
HETATM   35  C   UNL     1      38.939 -14.102  -2.268  1.00  0.00     0.009 A 
HETATM   36  C   UNL     1      37.781 -14.220  -3.037  1.00  0.00     0.001 A 
HETATM   37  C   UNL     1      37.687 -15.206  -4.018  1.00  0.00     0.000 A 
HETATM   38  C   UNL     1      38.759 -16.068  -4.240  1.00  0.00     0.001 A 
HETATM   39  C   UNL     1      39.922 -15.943  -3.477  1.00  0.00     0.009 A 
ENDBRANCH  33  34
ENDBRANCH  32  33
ENDBRANCH  30  32
ENDBRANCH  10  30
TORSDOF 10
ENDMDL
MODEL 5
REMARK VINA RESULT:      -7.9      3.526      7.929
REMARK  10 active torsions:
REMARK  status: ('A' for Active; 'I' for Inactive)
REMARK    1  A    between atoms: C_6  and  C_7 
REMARK    2  A    between atoms: C_9  and  C_10 
REMARK    3  A    between atoms: C_10  and  C_11 
REMARK       I    between atoms: C_11  and  N_12 
REMARK    4  A    between atoms: N_12  and  C_13 
REMARK    5  A    between atoms: C_13  and  C_14 
REMARK    6  A    between atoms: C_14  and  N_15 
REMARK    7  A    between atoms: C_26  and  C_27 
REMARK    8  A    between atoms: C_27  and  O_28 
REMARK    9  A    between atoms: O_28  and  C_29 
REMARK   10  A    between atoms: C_29  and  C_30 
ROOT
HETATM    1  C   UNL     1      42.165 -14.216   1.723  1.00  0.00     0.166 C 
HETATM    2  N   UNL     1      41.986 -13.721   0.340  1.00  0.00    -0.318 N 
HETATM    3  C   UNL     1      41.677 -14.126  -0.847  1.00  0.00     0.011 C 
HETATM    4  C   UNL     1      42.196 -12.175   0.346  1.00  0.00     0.170 C 
HETATM    5  S   UNL     1      42.636 -11.601  -1.218  1.00  0.00    -0.086 SA
HETATM    6  C   UNL     1      41.926 -13.110  -1.956  1.00  0.00     0.135 C 
HETATM    7  N   UNL     1      41.939 -11.431   1.370  1.00  0.00    -0.229 NA
HETATM    8  C   UNL     1      41.263 -12.042   2.422  1.00  0.00     0.048 C 
HETATM    9  C   UNL     1      40.440 -11.099   3.269  1.00  0.00     0.071 C 
HETATM   10  C   UNL     1      41.259 -13.389   2.584  1.00  0.00     0.069 C 
ENDROOT
BRANCH   3  11
HETATM   11  C   UNL     1      41.031 -15.455  -1.127  1.00  0.00     0.156 C 
BRANCH  11  12
HETATM   12  C   UNL     1      40.456 -15.475  -2.534  1.00  0.00     0.223 C 
HETATM   13  N   UNL     1      39.125 -15.161  -2.663  1.00  0.00    -0.359 N 
HETATM   14  H   UNL     1      38.565 -15.097  -1.815  1.00  0.00     0.162 HD
HETATM   15  O   UNL     1      41.161 -15.751  -3.501  1.00  0.00    -0.273 OA
BRANCH  13  16
HETATM   16  C   UNL     1      38.405 -15.436  -3.909  1.00  0.00     0.150 C 
BRANCH  16  17
HETATM   17  C   UNL     1      36.942 -14.928  -3.968  1.00  0.00     0.253 C 
BRANCH  17  18
HETATM   18  N   UNL     1      36.820 -13.601  -4.706  1.00  0.00    -0.077 N 
HETATM   19  H   UNL     1      37.633 -13.494  -5.328  1.00  0.00     0.279 HD
HETATM   20  C   UNL     1      35.581 -13.509  -5.560  1.00  0.00     0.269 C 
HETATM   21  C   UNL     1      36.883 -12.432  -3.750  1.00  0.00     0.269 C 
ENDBRANCH  17  18
ENDBRANCH  16  17
ENDBRANCH  13  16
ENDBRANCH  11  12
ENDBRANCH   3  11
BRANCH   1  22
HETATM   22  C   UNL     1      42.514 -15.697   1.890  1.00  0.00    -0.024 A 
HETATM   23  C   UNL     1      41.503 -16.705   1.810  1.00  0.00    -0.053 A 
HETATM   24  C   UNL     1      41.856 -18.074   1.855  1.00  0.00     0.014 A 
HETATM   25  C   UNL     1      40.028 -16.422   1.644  1.00  0.00     0.049 C 
HETATM   26  C   UNL     1      43.184 -18.485   1.936  1.00  0.00    -0.061 A 
HETATM   27  C   UNL     1      43.555 -19.937   1.842  1.00  0.00     0.048 C 
HETATM   28  C   UNL     1      44.172 -17.512   1.991  1.00  0.00     0.007 A 
HETATM   29  C   UNL     1      43.842 -16.152   1.972  1.00  0.00     0.011 A 
ENDBRANCH   1  22
BRANCH  10  30
HETATM   30  C   UNL     1      40.206 -13.971   3.418  1.00  0.00     0.294 C 
HETATM   31  O   UNL     1      39.066 -14.177   3.056  1.00  0.00    -0.259 OA
BRANCH  30  32
HETATM   32  O   UNL     1      40.753 -14.186   4.638  1.00  0.00    -0.313 OA
BRANCH  32  33
HETATM   33  C   UNL     1      40.348 -15.387   5.322  1.00  0.00     0.217 C 
BRANCH  33  34
HETATM   34  C   UNL     1      41.573 -16.257   5.471  1.00  0.00    -0.034 A 
HETATM   35  C   UNL     1      42.839 -15.686   5.654  1.00  0.00     0.009 A 
HETATM   36  C   UNL     1      43.975 -16.493   5.729  1.00  0.00     0.001 A 
HETATM   37  C   UNL     1      43.861 -17.878   5.623  1.00  0.00     0.000 A 
HETATM   38  C   UNL     1      42.606 -18.460   5.454  1.00  0.00     0.001 A 
HETATM   39  C   UNL     1      41.468 -17.654   5.389  1.00  0.00     0.009 A 
ENDBRANCH  33  34
ENDBRANCH  32  33
ENDBRANCH  30  32
ENDBRANCH  10  30
TORSDOF 10
ENDMDL
MODEL 6
REMARK VINA RESULT:      -7.6      3.162      7.429
REMARK  10 active torsions:
REMARK  status: ('A' for Active; 'I' for Inactive)
REMARK    1  A    between atoms: C_6  and  C_7 
REMARK    2  A    between atoms: C_9  and  C_10 
REMARK    3  A    between atoms: C_10  and  C_11 
REMARK       I    between atoms: C_11  and  N_12 
REMARK    4  A    between atoms: N_12  and  C_13 
REMARK    5  A    between atoms: C_13  and  C_14 
REMARK    6  A    between atoms: C_14  and  N_15 
REMARK    7  A    between atoms: C_26  and  C_27 
REMARK    8  A    between atoms: C_27  and  O_28 
REMARK    9  A    between atoms: O_28  and  C_29 
REMARK   10  A    between atoms: C_29  and  C_30 
ROOT
HETATM    1  C   UNL     1      41.900 -14.278   2.387  1.00  0.00     0.166 C 
HETATM    2  N   UNL     1      40.934 -13.457   3.151  1.00  0.00    -0.318 N 
HETATM    3  C   UNL     1      39.697 -13.087   3.149  1.00  0.00     0.011 C 
HETATM    4  C   UNL     1      41.663 -12.897   4.411  1.00  0.00     0.170 C 
HETATM    5  S   UNL     1      40.884 -11.478   5.002  1.00  0.00    -0.086 SA
HETATM    6  C   UNL     1      39.359 -11.969   4.129  1.00  0.00     0.135 C 
HETATM    7  N   UNL     1      42.640 -13.509   4.993  1.00  0.00    -0.229 NA
HETATM    8  C   UNL     1      42.893 -14.811   4.569  1.00  0.00     0.048 C 
HETATM    9  C   UNL     1      43.542 -15.694   5.609  1.00  0.00     0.071 C 
HETATM   10  C   UNL     1      42.474 -15.263   3.360  1.00  0.00     0.069 C 
ENDROOT
BRANCH   3  11
HETATM   11  C   UNL     1      38.634 -13.757   2.322  1.00  0.00     0.156 C 
BRANCH  11  12
HETATM   12  C   UNL     1      38.442 -13.015   1.009  1.00  0.00     0.223 C 
HETATM   13  N   UNL     1      37.936 -13.739  -0.043  1.00  0.00    -0.359 N 
HETATM   14  H   UNL     1      37.874 -14.750   0.059  1.00  0.00     0.162 HD
HETATM   15  O   UNL     1      38.722 -11.823   0.909  1.00  0.00    -0.273 OA
BRANCH  13  16
HETATM   16  C   UNL     1      37.991 -13.217  -1.410  1.00  0.00     0.150 C 
BRANCH  16  17
HETATM   17  C   UNL     1      37.816 -14.265  -2.539  1.00  0.00     0.253 C 
BRANCH  17  18
HETATM   18  N   UNL     1      37.540 -13.618  -3.891  1.00  0.00    -0.077 N 
HETATM   19  H   UNL     1      38.369 -13.739  -4.489  1.00  0.00     0.279 HD
HETATM   20  C   UNL     1      36.366 -14.229  -4.612  1.00  0.00     0.269 C 
HETATM   21  C   UNL     1      37.350 -12.124  -3.756  1.00  0.00     0.269 C 
ENDBRANCH  17  18
ENDBRANCH  16  17
ENDBRANCH  13  16
ENDBRANCH  11  12
ENDBRANCH   3  11
BRANCH   1  22
HETATM   22  C   UNL     1      41.599 -14.502   0.903  1.00  0.00    -0.024 A 
HETATM   23  C   UNL     1      41.809 -13.462  -0.056  1.00  0.00    -0.053 A 
HETATM   24  C   UNL     1      41.633 -13.718  -1.435  1.00  0.00     0.014 A 
HETATM   25  C   UNL     1      42.251 -12.058   0.291  1.00  0.00     0.049 C 
HETATM   26  C   UNL     1      41.294 -14.983  -1.908  1.00  0.00    -0.061 A 
HETATM   27  C   UNL     1      41.247 -15.276  -3.379  1.00  0.00     0.048 C 
HETATM   28  C   UNL     1      41.111 -16.003  -0.985  1.00  0.00     0.007 A 
HETATM   29  C   UNL     1      41.257 -15.764   0.387  1.00  0.00     0.011 A 
ENDBRANCH   1  22
BRANCH  10  30
HETATM   30  C   UNL     1      42.387 -16.712   3.168  1.00  0.00     0.294 C 
HETATM   31  O   UNL     1      41.403 -17.386   3.393  1.00  0.00    -0.259 OA
BRANCH  30  32
HETATM   32  O   UNL     1      43.605 -17.118   2.738  1.00  0.00    -0.313 OA
BRANCH  32  33
HETATM   33  C   UNL     1      43.621 -18.146   1.729  1.00  0.00     0.217 C 
BRANCH  33  34
HETATM   34  C   UNL     1      43.933 -19.452   2.420  1.00  0.00    -0.034 A 
HETATM   35  C   UNL     1      44.449 -19.467   3.722  1.00  0.00     0.009 A 
HETATM   36  C   UNL     1      44.792 -20.675   4.333  1.00  0.00     0.001 A 
HETATM   37  C   UNL     1      44.625 -21.879   3.652  1.00  0.00     0.000 A 
HETATM   38  C   UNL     1      44.100 -21.879   2.361  1.00  0.00     0.001 A 
HETATM   39  C   UNL     1      43.747 -20.672   1.754  1.00  0.00     0.009 A 
ENDBRANCH  33  34
ENDBRANCH  32  33
ENDBRANCH  30  32
ENDBRANCH  10  30
TORSDOF 10
ENDMDL
MODEL 7
REMARK VINA RESULT:      -7.5      2.776      5.791
REMARK  10 active torsions:
REMARK  status: ('A' for Active; 'I' for Inactive)
REMARK    1  A    between atoms: C_6  and  C_7 
REMARK    2  A    between atoms: C_9  and  C_10 
REMARK    3  A    between atoms: C_10  and  C_11 
REMARK       I    between atoms: C_11  and  N_12 
REMARK    4  A    between atoms: N_12  and  C_13 
REMARK    5  A    between atoms: C_13  and  C_14 
REMARK    6  A    between atoms: C_14  and  N_15 
REMARK    7  A    between atoms: C_26  and  C_27 
REMARK    8  A    between atoms: C_27  and  O_28 
REMARK    9  A    between atoms: O_28  and  C_29 
REMARK   10  A    between atoms: C_29  and  C_30 
ROOT
HETATM    1  C   UNL     1      40.991 -15.633   2.276  1.00  0.00     0.166 C 
HETATM    2  N   UNL     1      41.028 -14.482   3.205  1.00  0.00    -0.318 N 
HETATM    3  C   UNL     1      41.832 -13.831   3.978  1.00  0.00     0.011 C 
HETATM    4  C   UNL     1      39.622 -13.806   3.196  1.00  0.00     0.170 C 
HETATM    5  S   UNL     1      39.354 -12.907   4.642  1.00  0.00    -0.086 SA
HETATM    6  C   UNL     1      41.157 -12.833   4.912  1.00  0.00     0.135 C 
HETATM    7  N   UNL     1      38.835 -13.825   2.172  1.00  0.00    -0.229 NA
HETATM    8  C   UNL     1      39.379 -14.305   0.985  1.00  0.00     0.048 C 
HETATM    9  C   UNL     1      38.732 -13.759  -0.267  1.00  0.00     0.071 C 
HETATM   10  C   UNL     1      40.476 -15.103   0.971  1.00  0.00     0.069 C 
ENDROOT
BRANCH   3  11
HETATM   11  C   UNL     1      43.329 -13.961   3.913  1.00  0.00     0.156 C 
BRANCH  11  12
HETATM   12  C   UNL     1      43.876 -14.421   5.255  1.00  0.00     0.223 C 
HETATM   13  N   UNL     1      44.272 -13.439   6.131  1.00  0.00    -0.359 N 
HETATM   14  H   UNL     1      44.333 -12.484   5.783  1.00  0.00     0.162 HD
HETATM   15  O   UNL     1      43.947 -15.615   5.534  1.00  0.00    -0.273 OA
BRANCH  13  16
HETATM   16  C   UNL     1      45.078 -13.764   7.310  1.00  0.00     0.150 C 
BRANCH  16  17
HETATM   17  C   UNL     1      44.713 -12.997   8.608  1.00  0.00     0.253 C 
BRANCH  17  18
HETATM   18  N   UNL     1      45.508 -11.707   8.759  1.00  0.00    -0.077 N 
HETATM   19  H   UNL     1      45.031 -10.962   8.235  1.00  0.00     0.279 HD
HETATM   20  C   UNL     1      45.629 -11.250  10.191  1.00  0.00     0.269 C 
HETATM   21  C   UNL     1      46.879 -11.830   8.134  1.00  0.00     0.269 C 
ENDBRANCH  17  18
ENDBRANCH  16  17
ENDBRANCH  13  16
ENDBRANCH  11  12
ENDBRANCH   3  11
BRANCH   1  22
HETATM   22  C   UNL     1      42.038 -16.729   2.488  1.00  0.00    -0.024 A 
HETATM   23  C   UNL     1      41.983 -17.590   3.628  1.00  0.00    -0.053 A 
HETATM   24  C   UNL     1      42.890 -18.667   3.753  1.00  0.00     0.014 A 
HETATM   25  C   UNL     1      40.975 -17.460   4.747  1.00  0.00     0.049 C 
HETATM   26  C   UNL     1      43.830 -18.952   2.765  1.00  0.00    -0.061 A 
HETATM   27  C   UNL     1      44.692 -20.178   2.842  1.00  0.00     0.048 C 
HETATM   28  C   UNL     1      43.874 -18.134   1.644  1.00  0.00     0.007 A 
HETATM   29  C   UNL     1      43.001 -17.048   1.514  1.00  0.00     0.011 A 
ENDBRANCH   1  22
BRANCH  10  30
HETATM   30  C   UNL     1      41.229 -15.205  -0.279  1.00  0.00     0.294 C 
HETATM   31  O   UNL     1      41.147 -16.123  -1.068  1.00  0.00    -0.259 OA
BRANCH  30  32
HETATM   32  O   UNL     1      42.027 -14.112  -0.341  1.00  0.00    -0.313 OA
BRANCH  32  33
HETATM   33  C   UNL     1      42.083 -13.426  -1.607  1.00  0.00     0.217 C 
BRANCH  33  34
HETATM   34  C   UNL     1      42.347 -11.967  -1.318  1.00  0.00    -0.034 A 
HETATM   35  C   UNL     1      42.963 -11.148  -2.273  1.00  0.00     0.009 A 
HETATM   36  C   UNL     1      43.259  -9.816  -1.977  1.00  0.00     0.001 A 
HETATM   37  C   UNL     1      42.944  -9.288  -0.726  1.00  0.00     0.000 A 
HETATM   38  C   UNL     1      42.320 -10.088   0.228  1.00  0.00     0.001 A 
HETATM   39  C   UNL     1      42.014 -11.418  -0.071  1.00  0.00     0.009 A 
ENDBRANCH  33  34
ENDBRANCH  32  33
ENDBRANCH  30  32
ENDBRANCH  10  30
TORSDOF 10
ENDMDL
MODEL 8
REMARK VINA RESULT:      -7.4      3.354      7.830
REMARK  10 active torsions:
REMARK  status: ('A' for Active; 'I' for Inactive)
REMARK    1  A    between atoms: C_6  and  C_7 
REMARK    2  A    between atoms: C_9  and  C_10 
REMARK    3  A    between atoms: C_10  and  C_11 
REMARK       I    between atoms: C_11  and  N_12 
REMARK    4  A    between atoms: N_12  and  C_13 
REMARK    5  A    between atoms: C_13  and  C_14 
REMARK    6  A    between atoms: C_14  and  N_15 
REMARK    7  A    between atoms: C_26  and  C_27 
REMARK    8  A    between atoms: C_27  and  O_28 
REMARK    9  A    between atoms: O_28  and  C_29 
REMARK   10  A    between atoms: C_29  and  C_30 
ROOT
HETATM    1  C   UNL     1      41.971 -13.573   2.093  1.00  0.00     0.166 C 
HETATM    2  N   UNL     1      40.860 -12.990   2.878  1.00  0.00    -0.318 N 
HETATM    3  C   UNL     1      39.570 -12.941   2.924  1.00  0.00     0.011 C 
HETATM    4  C   UNL     1      41.473 -12.216   4.086  1.00  0.00     0.170 C 
HETATM    5  S   UNL     1      40.386 -11.013   4.671  1.00  0.00    -0.086 SA
HETATM    6  C   UNL     1      39.001 -11.904   3.886  1.00  0.00     0.135 C 
HETATM    7  N   UNL     1      42.595 -12.541   4.637  1.00  0.00    -0.229 NA
HETATM    8  C   UNL     1      43.149 -13.754   4.239  1.00  0.00     0.048 C 
HETATM    9  C   UNL     1      44.039 -14.405   5.272  1.00  0.00     0.071 C 
HETATM   10  C   UNL     1      42.811 -14.344   3.065  1.00  0.00     0.069 C 
ENDROOT
BRANCH   3  11
HETATM   11  C   UNL     1      38.679 -13.887   2.168  1.00  0.00     0.156 C 
BRANCH  11  12
HETATM   12  C   UNL     1      38.169 -13.228   0.896  1.00  0.00     0.223 C 
HETATM   13  N   UNL     1      38.160 -13.999  -0.241  1.00  0.00    -0.359 N 
HETATM   14  H   UNL     1      38.640 -14.897  -0.212  1.00  0.00     0.162 HD
HETATM   15  O   UNL     1      37.777 -12.064   0.901  1.00  0.00    -0.273 OA
BRANCH  13  16
HETATM   16  C   UNL     1      37.977 -13.391  -1.560  1.00  0.00     0.150 C 
BRANCH  16  17
HETATM   17  C   UNL     1      37.729 -14.379  -2.729  1.00  0.00     0.253 C 
BRANCH  17  18
HETATM   18  N   UNL     1      37.342 -13.665  -4.017  1.00  0.00    -0.077 N 
HETATM   19  H   UNL     1      38.143 -13.692  -4.663  1.00  0.00     0.279 HD
HETATM   20  C   UNL     1      36.170 -14.303  -4.720  1.00  0.00     0.269 C 
HETATM   21  C   UNL     1      37.067 -12.198  -3.771  1.00  0.00     0.269 C 
ENDBRANCH  17  18
ENDBRANCH  16  17
ENDBRANCH  13  16
ENDBRANCH  11  12
ENDBRANCH   3  11
BRANCH   1  22
HETATM   22  C   UNL     1      41.678 -13.923   0.631  1.00  0.00    -0.024 A 
HETATM   23  C   UNL     1      41.861 -12.958  -0.408  1.00  0.00    -0.053 A 
HETATM   24  C   UNL     1      41.694 -13.329  -1.762  1.00  0.00     0.014 A 
HETATM   25  C   UNL     1      42.264 -11.520  -0.176  1.00  0.00     0.049 C 
HETATM   26  C   UNL     1      41.391 -14.637  -2.131  1.00  0.00    -0.061 A 
HETATM   27  C   UNL     1      41.354 -15.049  -3.574  1.00  0.00     0.048 C 
HETATM   28  C   UNL     1      41.234 -15.584  -1.129  1.00  0.00     0.007 A 
HETATM   29  C   UNL     1      41.372 -15.232   0.219  1.00  0.00     0.011 A 
ENDBRANCH   1  22
BRANCH  10  30
HETATM   30  C   UNL     1      43.084 -15.774   2.920  1.00  0.00     0.294 C 
HETATM   31  O   UNL     1      44.054 -16.245   2.363  1.00  0.00    -0.259 OA
BRANCH  30  32
HETATM   32  O   UNL     1      42.041 -16.426   3.487  1.00  0.00    -0.313 OA
BRANCH  32  33
HETATM   33  C   UNL     1      42.242 -17.821   3.791  1.00  0.00     0.217 C 
BRANCH  33  34
HETATM   34  C   UNL     1      42.859 -17.898   5.167  1.00  0.00    -0.034 A 
HETATM   35  C   UNL     1      42.162 -17.439   6.291  1.00  0.00     0.009 A 
HETATM   36  C   UNL     1      42.761 -17.457   7.552  1.00  0.00     0.001 A 
HETATM   37  C   UNL     1      44.062 -17.933   7.704  1.00  0.00     0.000 A 
HETATM   38  C   UNL     1      44.762 -18.405   6.595  1.00  0.00     0.001 A 
HETATM   39  C   UNL     1      44.159 -18.397   5.336  1.00  0.00     0.009 A 
ENDBRANCH  33  34
ENDBRANCH  32  33
ENDBRANCH  30  32
ENDBRANCH  10  30
TORSDOF 10
ENDMDL
MODEL 9
REMARK VINA RESULT:      -7.4      3.243      4.555
REMARK  10 active torsions:
REMARK  status: ('A' for Active; 'I' for Inactive)
REMARK    1  A    between atoms: C_6  and  C_7 
REMARK    2  A    between atoms: C_9  and  C_10 
REMARK    3  A    between atoms: C_10  and  C_11 
REMARK       I    between atoms: C_11  and  N_12 
REMARK    4  A    between atoms: N_12  and  C_13 
REMARK    5  A    between atoms: C_13  and  C_14 
REMARK    6  A    between atoms: C_14  and  N_15 
REMARK    7  A    between atoms: C_26  and  C_27 
REMARK    8  A    between atoms: C_27  and  O_28 
REMARK    9  A    between atoms: O_28  and  C_29 
REMARK   10  A    between atoms: C_29  and  C_30 
ROOT
HETATM    1  C   UNL     1      39.756 -12.933   2.351  1.00  0.00     0.166 C 
HETATM    2  N   UNL     1      39.229 -11.553   2.265  1.00  0.00    -0.318 N 
HETATM    3  C   UNL     1      39.569 -10.325   2.476  1.00  0.00     0.011 C 
HETATM    4  C   UNL     1      37.789 -11.620   1.668  1.00  0.00     0.170 C 
HETATM    5  S   UNL     1      36.870 -10.228   2.102  1.00  0.00    -0.086 SA
HETATM    6  C   UNL     1      38.421  -9.324   2.427  1.00  0.00     0.135 C 
HETATM    7  N   UNL     1      37.405 -12.544   0.852  1.00  0.00    -0.229 NA
HETATM    8  C   UNL     1      38.400 -13.380   0.354  1.00  0.00     0.048 C 
HETATM    9  C   UNL     1      38.092 -13.986  -0.996  1.00  0.00     0.071 C 
HETATM   10  C   UNL     1      39.591 -13.531   0.986  1.00  0.00     0.069 C 
ENDROOT
BRANCH   3  11
HETATM   11  C   UNL     1      40.994  -9.881   2.662  1.00  0.00     0.156 C 
BRANCH  11  12
HETATM   12  C   UNL     1      41.193  -9.323   4.062  1.00  0.00     0.223 C 
HETATM   13  N   UNL     1      41.375 -10.237   5.072  1.00  0.00    -0.359 N 
HETATM   14  H   UNL     1      41.204 -11.219   4.864  1.00  0.00     0.162 HD
HETATM   15  O   UNL     1      41.199  -8.112   4.265  1.00  0.00    -0.273 OA
BRANCH  13  16
HETATM   16  C   UNL     1      41.278  -9.833   6.476  1.00  0.00     0.150 C 
BRANCH  16  17
HETATM   17  C   UNL     1      40.348 -10.701   7.363  1.00  0.00     0.253 C 
BRANCH  17  18
HETATM   18  N   UNL     1      41.000 -11.079   8.687  1.00  0.00    -0.077 N 
HETATM   19  H   UNL     1      41.272 -12.071   8.650  1.00  0.00     0.279 HD
HETATM   20  C   UNL     1      42.242 -10.279   8.986  1.00  0.00     0.269 C 
HETATM   21  C   UNL     1      40.020 -10.969   9.834  1.00  0.00     0.269 C 
ENDBRANCH  17  18
ENDBRANCH  16  17
ENDBRANCH  13  16
ENDBRANCH  11  12
ENDBRANCH   3  11
BRANCH   1  22
HETATM   22  C   UNL     1      40.895 -13.180   3.345  1.00  0.00    -0.024 A 
HETATM   23  C   UNL     1      40.626 -13.628   4.676  1.00  0.00    -0.053 A 
HETATM   24  C   UNL     1      41.691 -13.958   5.545  1.00  0.00     0.014 A 
HETATM   25  C   UNL     1      39.240 -13.816   5.249  1.00  0.00     0.049 C 
HETATM   26  C   UNL     1      43.019 -13.900   5.131  1.00  0.00    -0.061 A 
HETATM   27  C   UNL     1      44.131 -14.385   6.015  1.00  0.00     0.048 C 
HETATM   28  C   UNL     1      43.287 -13.488   3.833  1.00  0.00     0.007 A 
HETATM   29  C   UNL     1      42.247 -13.134   2.965  1.00  0.00     0.011 A 
ENDBRANCH   1  22
BRANCH  10  30
HETATM   30  C   UNL     1      40.713 -14.057   0.209  1.00  0.00     0.294 C 
HETATM   31  O   UNL     1      41.435 -13.394  -0.507  1.00  0.00    -0.259 OA
BRANCH  30  32
HETATM   32  O   UNL     1      40.742 -15.393   0.428  1.00  0.00    -0.313 OA
BRANCH  32  33
HETATM   33  C   UNL     1      42.045 -16.002   0.517  1.00  0.00     0.217 C 
BRANCH  33  34
HETATM   34  C   UNL     1      42.204 -16.523   1.926  1.00  0.00    -0.034 A 
HETATM   35  C   UNL     1      43.471 -16.822   2.440  1.00  0.00     0.009 A 
HETATM   36  C   UNL     1      43.606 -17.360   3.722  1.00  0.00     0.001 A 
HETATM   37  C   UNL     1      42.478 -17.605   4.502  1.00  0.00     0.000 A 
HETATM   38  C   UNL     1      41.212 -17.299   4.008  1.00  0.00     0.001 A 
HETATM   39  C   UNL     1      41.078 -16.751   2.731  1.00  0.00     0.009 A 
ENDBRANCH  33  34
ENDBRANCH  32  33
ENDBRANCH  30  32
ENDBRANCH  10  30
TORSDOF 10
ENDMDL
MODEL 10
REMARK VINA RESULT:      -7.3      3.621      6.911
REMARK  10 active torsions:
REMARK  status: ('A' for Active; 'I' for Inactive)
REMARK    1  A    between atoms: C_6  and  C_7 
REMARK    2  A    between atoms: C_9  and  C_10 
REMARK    3  A    between atoms: C_10  and  C_11 
REMARK       I    between atoms: C_11  and  N_12 
REMARK    4  A    between atoms: N_12  and  C_13 
REMARK    5  A    between atoms: C_13  and  C_14 
REMARK    6  A    between atoms: C_14  and  N_15 
REMARK    7  A    between atoms: C_26  and  C_27 
REMARK    8  A    between atoms: C_27  and  O_28 
REMARK    9  A    between atoms: O_28  and  C_29 
REMARK   10  A    between atoms: C_29  and  C_30 
ROOT
HETATM    1  C   UNL     1      41.976 -14.152   2.365  1.00  0.00     0.166 C 
HETATM    2  N   UNL     1      41.104 -13.269   3.172  1.00  0.00    -0.318 N 
HETATM    3  C   UNL     1      39.908 -12.783   3.202  1.00  0.00     0.011 C 
HETATM    4  C   UNL     1      41.900 -12.826   4.438  1.00  0.00     0.170 C 
HETATM    5  S   UNL     1      41.270 -11.359   5.087  1.00  0.00    -0.086 SA
HETATM    6  C   UNL     1      39.693 -11.672   4.224  1.00  0.00     0.135 C 
HETATM    7  N   UNL     1      42.822 -13.548   4.982  1.00  0.00    -0.229 NA
HETATM    8  C   UNL     1      42.942 -14.853   4.511  1.00  0.00     0.048 C 
HETATM    9  C   UNL     1      43.517 -15.829   5.510  1.00  0.00     0.071 C 
HETATM   10  C   UNL     1      42.466 -15.221   3.295  1.00  0.00     0.069 C 
ENDROOT
BRANCH   3  11
HETATM   11  C   UNL     1      38.775 -13.319   2.372  1.00  0.00     0.156 C 
BRANCH  11  12
HETATM   12  C   UNL     1      38.242 -12.236   1.446  1.00  0.00     0.223 C 
HETATM   13  N   UNL     1      37.414 -11.294   2.008  1.00  0.00    -0.359 N 
HETATM   14  H   UNL     1      37.074 -11.460   2.953  1.00  0.00     0.162 HD
HETATM   15  O   UNL     1      38.552 -12.211   0.258  1.00  0.00    -0.273 OA
BRANCH  13  16
HETATM   16  C   UNL     1      36.617 -10.398   1.168  1.00  0.00     0.150 C 
BRANCH  16  17
HETATM   17  C   UNL     1      35.159 -10.849   0.896  1.00  0.00     0.253 C 
BRANCH  17  18
HETATM   18  N   UNL     1      34.216 -10.468   2.031  1.00  0.00    -0.077 N 
HETATM   19  H   UNL     1      34.288 -11.179   2.772  1.00  0.00     0.279 HD
HETATM   20  C   UNL     1      34.541  -9.133   2.649  1.00  0.00     0.269 C 
HETATM   21  C   UNL     1      32.773 -10.497   1.579  1.00  0.00     0.269 C 
ENDBRANCH  17  18
ENDBRANCH  16  17
ENDBRANCH  13  16
ENDBRANCH  11  12
ENDBRANCH   3  11
BRANCH   1  22
HETATM   22  C   UNL     1      41.635 -14.294   0.879  1.00  0.00    -0.024 A 
HETATM   23  C   UNL     1      41.819 -13.203  -0.026  1.00  0.00    -0.053 A 
HETATM   24  C   UNL     1      41.606 -13.383  -1.412  1.00  0.00     0.014 A 
HETATM   25  C   UNL     1      42.271 -11.820   0.385  1.00  0.00     0.049 C 
HETATM   26  C   UNL     1      41.254 -14.621  -1.944  1.00  0.00    -0.061 A 
HETATM   27  C   UNL     1      41.168 -14.834  -3.428  1.00  0.00     0.048 C 
HETATM   28  C   UNL     1      41.096 -15.691  -1.074  1.00  0.00     0.007 A 
HETATM   29  C   UNL     1      41.279 -15.527   0.304  1.00  0.00     0.011 A 
ENDBRANCH   1  22
BRANCH  10  30
HETATM   30  C   UNL     1      42.237 -16.646   3.057  1.00  0.00     0.294 C 
HETATM   31  O   UNL     1      41.205 -17.236   3.299  1.00  0.00    -0.259 OA
BRANCH  30  32
HETATM   32  O   UNL     1      43.395 -17.146   2.562  1.00  0.00    -0.313 OA
BRANCH  32  33
HETATM   33  C   UNL     1      43.278 -18.243   1.635  1.00  0.00     0.217 C 
BRANCH  33  34
HETATM   34  C   UNL     1      43.734 -19.491   2.354  1.00  0.00    -0.034 A 
HETATM   35  C   UNL     1      44.297 -19.414   3.634  1.00  0.00     0.009 A 
HETATM   36  C   UNL     1      44.771 -20.564   4.268  1.00  0.00     0.001 A 
HETATM   37  C   UNL     1      44.689 -21.801   3.631  1.00  0.00     0.000 A 
HETATM   38  C   UNL     1      44.119 -21.893   2.363  1.00  0.00     0.001 A 
HETATM   39  C   UNL     1      43.635 -20.745   1.733  1.00  0.00     0.009 A 
ENDBRANCH  33  34
ENDBRANCH  32  33
ENDBRANCH  30  32
ENDBRANCH  10  30
TORSDOF 10
ENDMDL
