MODEL 1
REMARK VINA RESULT:      -9.0      0.000      0.000
REMARK  9 active torsions:
REMARK  status: ('A' for Active; 'I' for Inactive)
REMARK    1  A    between atoms: C_6  and  C_7 
REMARK    2  A    between atoms: C_7  and  C_8 
REMARK       I    between atoms: C_8  and  N_9 
REMARK    3  A    between atoms: N_9  and  C_10 
REMARK    4  A    between atoms: C_10  and  C_11 
REMARK    5  A    between atoms: C_11  and  N_12 
REMARK    6  A    between atoms: C_20  and  C_21 
REMARK    7  A    between atoms: C_24  and  C_25 
REMARK    8  A    between atoms: C_32  and  C_33 
REMARK    9  A    between atoms: C_33  and  O_34 
ROOT
HETATM    1  C   UNL     1      41.038 -12.780   5.691  1.00  0.00     0.071 C 
HETATM    2  C   UNL     1      41.001 -13.974   4.769  1.00  0.00     0.048 C 
HETATM    3  N   UNL     1      39.772 -14.161   4.115  1.00  0.00    -0.229 NA
HETATM    4  C   UNL     1      39.807 -14.712   2.941  1.00  0.00     0.170 C 
HETATM    5  N   UNL     1      41.156 -15.300   2.324  1.00  0.00    -0.319 N 
HETATM    6  C   UNL     1      41.274 -14.555   1.260  1.00  0.00     0.011 C 
HETATM    7  C   UNL     1      41.890 -15.825   3.493  1.00  0.00     0.166 C 
HETATM    8  S   UNL     1      38.623 -14.503   1.689  1.00  0.00    -0.086 SA
HETATM    9  C   UNL     1      39.987 -14.616   0.433  1.00  0.00     0.135 C 
HETATM   10  C   UNL     1      42.090 -14.713   4.454  1.00  0.00     0.069 C 
ENDROOT
BRANCH   6  11
HETATM   11  C   UNL     1      42.096 -13.293   1.319  1.00  0.00     0.156 C 
BRANCH  11  12
HETATM   12  C   UNL     1      41.984 -12.241   0.251  1.00  0.00     0.223 C 
HETATM   13  N   UNL     1      40.725 -11.711   0.137  1.00  0.00    -0.359 N 
HETATM   14  H   UNL     1      40.058 -11.904   0.892  1.00  0.00     0.162 HD
HETATM   15  O   UNL     1      42.906 -11.994  -0.522  1.00  0.00    -0.273 OA
BRANCH  13  16
HETATM   16  C   UNL     1      40.098 -11.102  -1.039  1.00  0.00     0.150 C 
BRANCH  16  17
HETATM   17  C   UNL     1      40.320 -11.704  -2.438  1.00  0.00     0.254 C 
BRANCH  17  18
HETATM   18  N   UNL     1      39.881 -13.150  -2.585  1.00  0.00    -0.070 N 
HETATM   19  H   UNL     1      39.725 -13.481  -1.611  1.00  0.00     0.279 HD
HETATM   20  C   UNL     1      38.604 -13.355  -3.364  1.00  0.00     0.235 C 
HETATM   21  C   UNL     1      38.222 -14.829  -3.360  1.00  0.00     0.028 C 
HETATM   22  C   UNL     1      39.344 -15.708  -3.896  1.00  0.00     0.003 C 
HETATM   23  C   UNL     1      40.640 -15.454  -3.137  1.00  0.00     0.028 C 
HETATM   24  C   UNL     1      41.016 -13.982  -3.149  1.00  0.00     0.235 C 
ENDBRANCH  17  18
ENDBRANCH  16  17
ENDBRANCH  13  16
ENDBRANCH  11  12
ENDBRANCH   6  11
BRANCH   7  25
HETATM   25  C   UNL     1      42.897 -16.946   3.308  1.00  0.00    -0.030 A 
HETATM   26  C   UNL     1      43.443 -17.316   2.072  1.00  0.00     0.010 A 
HETATM   27  C   UNL     1      44.062 -18.569   1.913  1.00  0.00     0.008 A 
HETATM   28  C   UNL     1      44.157 -19.480   2.976  1.00  0.00    -0.055 A 
HETATM   29  C   UNL     1      43.705 -19.074   4.230  1.00  0.00     0.008 A 
HETATM   30  C   UNL     1      43.072 -17.840   4.388  1.00  0.00     0.010 A 
BRANCH  28  31
HETATM   31  C   UNL     1      44.695 -20.886   2.744  1.00  0.00     0.010 C 
HETATM   32  C   UNL     1      44.810 -21.657   4.059  1.00  0.00     0.015 C 
HETATM   33  C   UNL     1      43.859 -21.682   1.730  1.00  0.00     0.015 C 
ENDBRANCH  28  31
ENDBRANCH   7  25
BRANCH  10  34
HETATM   34  C   UNL     1      43.470 -14.268   4.689  1.00  0.00     0.293 C 
HETATM   35  O   UNL     1      44.050 -13.593   3.848  1.00  0.00    -0.259 OA
BRANCH  34  36
HETATM   36  O   UNL     1      43.977 -14.813   5.807  1.00  0.00    -0.323 OA
HETATM   37  C   UNL     1      44.387 -13.854   6.791  1.00  0.00     0.213 C 
ENDBRANCH  34  36
ENDBRANCH  10  34
TORSDOF 9
ENDMDL
MODEL 2
REMARK VINA RESULT:      -8.8      1.473      2.119
REMARK  9 active torsions:
REMARK  status: ('A' for Active; 'I' for Inactive)
REMARK    1  A    between atoms: C_6  and  C_7 
REMARK    2  A    between atoms: C_7  and  C_8 
REMARK       I    between atoms: C_8  and  N_9 
REMARK    3  A    between atoms: N_9  and  C_10 
REMARK    4  A    between atoms: C_10  and  C_11 
REMARK    5  A    between atoms: C_11  and  N_12 
REMARK    6  A    between atoms: C_20  and  C_21 
REMARK    7  A    between atoms: C_24  and  C_25 
REMARK    8  A    between atoms: C_32  and  C_33 
REMARK    9  A    between atoms: C_33  and  O_34 
ROOT
HETATM    1  C   UNL     1      40.824 -12.870   5.863  1.00  0.00     0.071 C 
HETATM    2  C   UNL     1      40.864 -14.011   4.877  1.00  0.00     0.048 C 
HETATM    3  N   UNL     1      39.698 -14.150   4.106  1.00  0.00    -0.229 NA
HETATM    4  C   UNL     1      39.836 -14.637   2.911  1.00  0.00     0.170 C 
HETATM    5  N   UNL     1      41.232 -15.203   2.386  1.00  0.00    -0.319 N 
HETATM    6  C   UNL     1      41.449 -14.402   1.379  1.00  0.00     0.011 C 
HETATM    7  C   UNL     1      41.855 -15.798   3.584  1.00  0.00     0.166 C 
HETATM    8  S   UNL     1      38.770 -14.347   1.571  1.00  0.00    -0.086 SA
HETATM    9  C   UNL     1      40.241 -14.404   0.438  1.00  0.00     0.135 C 
HETATM   10  C   UNL     1      41.973 -14.743   4.620  1.00  0.00     0.069 C 
ENDROOT
BRANCH   6  11
HETATM   11  C   UNL     1      42.268 -13.153   1.581  1.00  0.00     0.156 C 
BRANCH  11  12
HETATM   12  C   UNL     1      42.042 -11.929   0.740  1.00  0.00     0.223 C 
HETATM   13  N   UNL     1      40.834 -11.323   0.970  1.00  0.00    -0.359 N 
HETATM   14  H   UNL     1      40.311 -11.609   1.806  1.00  0.00     0.162 HD
HETATM   15  O   UNL     1      42.815 -11.600  -0.157  1.00  0.00    -0.273 OA
BRANCH  13  16
HETATM   16  C   UNL     1      40.045 -10.491   0.060  1.00  0.00     0.150 C 
BRANCH  16  17
HETATM   17  C   UNL     1      39.790 -10.947  -1.388  1.00  0.00     0.254 C 
BRANCH  17  18
HETATM   18  N   UNL     1      40.979 -10.797  -2.321  1.00  0.00    -0.070 N 
HETATM   19  H   UNL     1      41.802 -11.081  -1.751  1.00  0.00     0.279 HD
HETATM   20  C   UNL     1      40.936 -11.664  -3.556  1.00  0.00     0.235 C 
HETATM   21  C   UNL     1      42.220 -11.493  -4.357  1.00  0.00     0.028 C 
HETATM   22  C   UNL     1      42.476 -10.035  -4.714  1.00  0.00     0.003 C 
HETATM   23  C   UNL     1      42.465  -9.162  -3.466  1.00  0.00     0.028 C 
HETATM   24  C   UNL     1      41.179  -9.336  -2.673  1.00  0.00     0.235 C 
ENDBRANCH  17  18
ENDBRANCH  16  17
ENDBRANCH  13  16
ENDBRANCH  11  12
ENDBRANCH   6  11
BRANCH   7  25
HETATM   25  C   UNL     1      42.870 -16.917   3.429  1.00  0.00    -0.030 A 
HETATM   26  C   UNL     1      43.504 -17.241   2.221  1.00  0.00     0.010 A 
HETATM   27  C   UNL     1      44.129 -18.490   2.058  1.00  0.00     0.008 A 
HETATM   28  C   UNL     1      44.142 -19.444   3.087  1.00  0.00    -0.055 A 
HETATM   29  C   UNL     1      43.600 -19.086   4.321  1.00  0.00     0.008 A 
HETATM   30  C   UNL     1      42.962 -17.856   4.481  1.00  0.00     0.010 A 
BRANCH  28  31
HETATM   31  C   UNL     1      44.690 -20.843   2.839  1.00  0.00     0.010 C 
HETATM   32  C   UNL     1      44.805 -21.632   4.143  1.00  0.00     0.015 C 
HETATM   33  C   UNL     1      43.865 -21.631   1.810  1.00  0.00     0.015 C 
ENDBRANCH  28  31
ENDBRANCH   7  25
BRANCH  10  34
HETATM   34  C   UNL     1      43.329 -14.325   5.001  1.00  0.00     0.293 C 
HETATM   35  O   UNL     1      44.010 -13.663   4.228  1.00  0.00    -0.259 OA
BRANCH  34  36
HETATM   36  O   UNL     1      43.702 -14.877   6.168  1.00  0.00    -0.323 OA
HETATM   37  C   UNL     1      44.728 -14.151   6.857  1.00  0.00     0.213 C 
ENDBRANCH  34  36
ENDBRANCH  10  34
TORSDOF 9
ENDMDL
MODEL 3
REMARK VINA RESULT:      -8.8      2.177      4.773
REMARK  9 active torsions:
REMARK  status: ('A' for Active; 'I' for Inactive)
REMARK    1  A    between atoms: C_6  and  C_7 
REMARK    2  A    between atoms: C_7  and  C_8 
REMARK       I    between atoms: C_8  and  N_9 
REMARK    3  A    between atoms: N_9  and  C_10 
REMARK    4  A    between atoms: C_10  and  C_11 
REMARK    5  A    between atoms: C_11  and  N_12 
REMARK    6  A    between atoms: C_20  and  C_21 
REMARK    7  A    between atoms: C_24  and  C_25 
REMARK    8  A    between atoms: C_32  and  C_33 
REMARK    9  A    between atoms: C_33  and  O_34 
ROOT
HETATM    1  C   UNL     1      41.091 -12.784   5.839  1.00  0.00     0.071 C 
HETATM    2  C   UNL     1      41.054 -13.958   4.892  1.00  0.00     0.048 C 
HETATM    3  N   UNL     1      39.842 -14.102   4.198  1.00  0.00    -0.229 NA
HETATM    4  C   UNL     1      39.901 -14.631   3.014  1.00  0.00     0.170 C 
HETATM    5  N   UNL     1      41.254 -15.238   2.426  1.00  0.00    -0.319 N 
HETATM    6  C   UNL     1      41.422 -14.475   1.382  1.00  0.00     0.011 C 
HETATM    7  C   UNL     1      41.939 -15.803   3.605  1.00  0.00     0.166 C 
HETATM    8  S   UNL     1      38.761 -14.369   1.731  1.00  0.00    -0.086 SA
HETATM    9  C   UNL     1      40.160 -14.489   0.515  1.00  0.00     0.135 C 
HETATM   10  C   UNL     1      42.136 -14.716   4.595  1.00  0.00     0.069 C 
ENDROOT
BRANCH   6  11
HETATM   11  C   UNL     1      42.271 -13.234   1.491  1.00  0.00     0.156 C 
BRANCH  11  12
HETATM   12  C   UNL     1      41.663 -11.864   1.383  1.00  0.00     0.223 C 
HETATM   13  N   UNL     1      41.181 -11.384   2.573  1.00  0.00    -0.359 N 
HETATM   14  H   UNL     1      41.458 -11.876   3.431  1.00  0.00     0.162 HD
HETATM   15  O   UNL     1      41.500 -11.304   0.301  1.00  0.00    -0.273 OA
BRANCH  13  16
HETATM   16  C   UNL     1      40.114 -10.406   2.795  1.00  0.00     0.150 C 
BRANCH  16  17
HETATM   17  C   UNL     1      40.454  -8.961   3.200  1.00  0.00     0.254 C 
BRANCH  17  18
HETATM   18  N   UNL     1      40.277  -8.656   4.677  1.00  0.00    -0.070 N 
HETATM   19  H   UNL     1      40.016  -7.650   4.711  1.00  0.00     0.279 HD
HETATM   20  C   UNL     1      39.195  -9.450   5.369  1.00  0.00     0.235 C 
HETATM   21  C   UNL     1      39.053  -8.988   6.813  1.00  0.00     0.028 C 
HETATM   22  C   UNL     1      40.372  -9.075   7.569  1.00  0.00     0.003 C 
HETATM   23  C   UNL     1      41.468  -8.315   6.834  1.00  0.00     0.028 C 
HETATM   24  C   UNL     1      41.606  -8.784   5.395  1.00  0.00     0.235 C 
ENDBRANCH  17  18
ENDBRANCH  16  17
ENDBRANCH  13  16
ENDBRANCH  11  12
ENDBRANCH   6  11
BRANCH   7  25
HETATM   25  C   UNL     1      42.926 -16.944   3.428  1.00  0.00    -0.030 A 
HETATM   26  C   UNL     1      43.535 -17.275   2.209  1.00  0.00     0.010 A 
HETATM   27  C   UNL     1      44.129 -18.536   2.030  1.00  0.00     0.008 A 
HETATM   28  C   UNL     1      44.136 -19.497   3.053  1.00  0.00    -0.055 A 
HETATM   29  C   UNL     1      43.622 -19.133   4.297  1.00  0.00     0.008 A 
HETATM   30  C   UNL     1      43.013 -17.890   4.474  1.00  0.00     0.010 A 
BRANCH  28  31
HETATM   31  C   UNL     1      44.649 -20.906   2.789  1.00  0.00     0.010 C 
HETATM   32  C   UNL     1      44.768 -21.704   4.087  1.00  0.00     0.015 C 
HETATM   33  C   UNL     1      43.790 -21.670   1.770  1.00  0.00     0.015 C 
ENDBRANCH  28  31
ENDBRANCH   7  25
BRANCH  10  34
HETATM   34  C   UNL     1      43.518 -14.309   4.880  1.00  0.00     0.293 C 
HETATM   35  O   UNL     1      44.141 -13.636   4.069  1.00  0.00    -0.259 OA
BRANCH  34  36
HETATM   36  O   UNL     1      43.975 -14.881   6.006  1.00  0.00    -0.323 OA
HETATM   37  C   UNL     1      44.736 -14.000   6.843  1.00  0.00     0.213 C 
ENDBRANCH  34  36
ENDBRANCH  10  34
TORSDOF 9
ENDMDL
MODEL 4
REMARK VINA RESULT:      -8.6      1.990      2.770
REMARK  9 active torsions:
REMARK  status: ('A' for Active; 'I' for Inactive)
REMARK    1  A    between atoms: C_6  and  C_7 
REMARK    2  A    between atoms: C_7  and  C_8 
REMARK       I    between atoms: C_8  and  N_9 
REMARK    3  A    between atoms: N_9  and  C_10 
REMARK    4  A    between atoms: C_10  and  C_11 
REMARK    5  A    between atoms: C_11  and  N_12 
REMARK    6  A    between atoms: C_20  and  C_21 
REMARK    7  A    between atoms: C_24  and  C_25 
REMARK    8  A    between atoms: C_32  and  C_33 
REMARK    9  A    between atoms: C_33  and  O_34 
ROOT
HETATM    1  C   UNL     1      40.991 -12.843   5.546  1.00  0.00     0.071 C 
HETATM    2  C   UNL     1      40.971 -14.026   4.611  1.00  0.00     0.048 C 
HETATM    3  N   UNL     1      39.754 -14.206   3.934  1.00  0.00    -0.229 NA
HETATM    4  C   UNL     1      39.810 -14.745   2.754  1.00  0.00     0.170 C 
HETATM    5  N   UNL     1      41.170 -15.324   2.154  1.00  0.00    -0.319 N 
HETATM    6  C   UNL     1      41.306 -14.567   1.100  1.00  0.00     0.011 C 
HETATM    7  C   UNL     1      41.884 -15.862   3.329  1.00  0.00     0.166 C 
HETATM    8  S   UNL     1      38.647 -14.521   1.484  1.00  0.00    -0.086 SA
HETATM    9  C   UNL     1      40.033 -14.619   0.250  1.00  0.00     0.135 C 
HETATM   10  C   UNL     1      42.066 -14.761   4.307  1.00  0.00     0.069 C 
ENDROOT
BRANCH   6  11
HETATM   11  C   UNL     1      42.125 -13.305   1.188  1.00  0.00     0.156 C 
BRANCH  11  12
HETATM   12  C   UNL     1      41.505 -11.956   0.956  1.00  0.00     0.223 C 
HETATM   13  N   UNL     1      40.767 -11.504   2.019  1.00  0.00    -0.359 N 
HETATM   14  H   UNL     1      40.876 -11.993   2.915  1.00  0.00     0.162 HD
HETATM   15  O   UNL     1      41.552 -11.394  -0.136  1.00  0.00    -0.273 OA
BRANCH  13  16
HETATM   16  C   UNL     1      39.642 -10.566   2.013  1.00  0.00     0.150 C 
BRANCH  16  17
HETATM   17  C   UNL     1      38.264 -11.002   2.542  1.00  0.00     0.254 C 
BRANCH  17  18
HETATM   18  N   UNL     1      37.213 -11.227   1.469  1.00  0.00    -0.070 N 
HETATM   19  H   UNL     1      36.920 -12.218   1.589  1.00  0.00     0.279 HD
HETATM   20  C   UNL     1      35.987 -10.353   1.581  1.00  0.00     0.235 C 
HETATM   21  C   UNL     1      34.974 -10.739   0.512  1.00  0.00     0.028 C 
HETATM   22  C   UNL     1      35.573 -10.675  -0.887  1.00  0.00     0.003 C 
HETATM   23  C   UNL     1      36.838 -11.518  -0.972  1.00  0.00     0.028 C 
HETATM   24  C   UNL     1      37.845 -11.125   0.096  1.00  0.00     0.235 C 
ENDBRANCH  17  18
ENDBRANCH  16  17
ENDBRANCH  13  16
ENDBRANCH  11  12
ENDBRANCH   6  11
BRANCH   7  25
HETATM   25  C   UNL     1      42.895 -16.980   3.149  1.00  0.00    -0.030 A 
HETATM   26  C   UNL     1      43.358 -17.429   1.905  1.00  0.00     0.010 A 
HETATM   27  C   UNL     1      43.986 -18.682   1.788  1.00  0.00     0.008 A 
HETATM   28  C   UNL     1      44.173 -19.515   2.902  1.00  0.00    -0.055 A 
HETATM   29  C   UNL     1      43.805 -19.028   4.155  1.00  0.00     0.008 A 
HETATM   30  C   UNL     1      43.163 -17.795   4.272  1.00  0.00     0.010 A 
BRANCH  28  31
HETATM   31  C   UNL     1      44.718 -20.927   2.729  1.00  0.00     0.010 C 
HETATM   32  C   UNL     1      44.718 -21.685   4.055  1.00  0.00     0.015 C 
HETATM   33  C   UNL     1      43.964 -21.728   1.657  1.00  0.00     0.015 C 
ENDBRANCH  28  31
ENDBRANCH   7  25
BRANCH  10  34
HETATM   34  C   UNL     1      43.442 -14.318   4.570  1.00  0.00     0.293 C 
HETATM   35  O   UNL     1      44.058 -13.684   3.722  1.00  0.00    -0.259 OA
BRANCH  34  36
HETATM   36  O   UNL     1      43.904 -14.818   5.728  1.00  0.00    -0.323 OA
HETATM   37  C   UNL     1      44.400 -13.825   6.636  1.00  0.00     0.213 C 
ENDBRANCH  34  36
ENDBRANCH  10  34
TORSDOF 9
ENDMDL
MODEL 5
REMARK VINA RESULT:      -8.1      2.135      3.563
REMARK  9 active torsions:
REMARK  status: ('A' for Active; 'I' for Inactive)
REMARK    1  A    between atoms: C_6  and  C_7 
REMARK    2  A    between atoms: C_7  and  C_8 
REMARK       I    between atoms: C_8  and  N_9 
REMARK    3  A    between atoms: N_9  and  C_10 
REMARK    4  A    between atoms: C_10  and  C_11 
REMARK    5  A    between atoms: C_11  and  N_12 
REMARK    6  A    between atoms: C_20  and  C_21 
REMARK    7  A    between atoms: C_24  and  C_25 
REMARK    8  A    between atoms: C_32  and  C_33 
REMARK    9  A    between atoms: C_33  and  O_34 
ROOT
HETATM    1  C   UNL     1      41.089 -12.312   5.133  1.00  0.00     0.071 C 
HETATM    2  C   UNL     1      40.727 -13.513   4.296  1.00  0.00     0.048 C 
HETATM    3  N   UNL     1      39.520 -13.381   3.588  1.00  0.00    -0.229 NA
HETATM    4  C   UNL     1      39.428 -14.013   2.458  1.00  0.00     0.170 C 
HETATM    5  N   UNL     1      40.559 -15.022   1.960  1.00  0.00    -0.319 N 
HETATM    6  C   UNL     1      40.929 -14.435   0.855  1.00  0.00     0.011 C 
HETATM    7  C   UNL     1      41.063 -15.642   3.200  1.00  0.00     0.166 C 
HETATM    8  S   UNL     1      38.402 -13.567   1.130  1.00  0.00    -0.086 SA
HETATM    9  C   UNL     1      39.711 -14.180  -0.037  1.00  0.00     0.135 C 
HETATM   10  C   UNL     1      41.555 -14.564   4.093  1.00  0.00     0.069 C 
ENDROOT
BRANCH   6  11
HETATM   11  C   UNL     1      42.088 -13.471   0.873  1.00  0.00     0.156 C 
BRANCH  11  12
HETATM   12  C   UNL     1      41.897 -12.018   0.542  1.00  0.00     0.223 C 
HETATM   13  N   UNL     1      41.436 -11.274   1.596  1.00  0.00    -0.359 N 
HETATM   14  H   UNL     1      41.469 -11.700   2.529  1.00  0.00     0.162 HD
HETATM   15  O   UNL     1      42.017 -11.587  -0.603  1.00  0.00    -0.273 OA
BRANCH  13  16
HETATM   16  C   UNL     1      40.661 -10.032   1.562  1.00  0.00     0.150 C 
BRANCH  16  17
HETATM   17  C   UNL     1      41.370  -8.677   1.391  1.00  0.00     0.254 C 
BRANCH  17  18
HETATM   18  N   UNL     1      42.220  -8.558   0.138  1.00  0.00    -0.070 N 
HETATM   19  H   UNL     1      42.642  -9.500   0.012  1.00  0.00     0.279 HD
HETATM   20  C   UNL     1      41.461  -8.208  -1.119  1.00  0.00     0.235 C 
HETATM   21  C   UNL     1      42.404  -8.212  -2.315  1.00  0.00     0.028 C 
HETATM   22  C   UNL     1      43.588  -7.277  -2.107  1.00  0.00     0.003 C 
HETATM   23  C   UNL     1      44.314  -7.606  -0.810  1.00  0.00     0.028 C 
HETATM   24  C   UNL     1      43.368  -7.597   0.379  1.00  0.00     0.235 C 
ENDBRANCH  17  18
ENDBRANCH  16  17
ENDBRANCH  13  16
ENDBRANCH  11  12
ENDBRANCH   6  11
BRANCH   7  25
HETATM   25  C   UNL     1      41.696 -17.022   3.150  1.00  0.00    -0.030 A 
HETATM   26  C   UNL     1      42.045 -17.769   4.284  1.00  0.00     0.010 A 
HETATM   27  C   UNL     1      42.947 -18.842   4.179  1.00  0.00     0.008 A 
HETATM   28  C   UNL     1      43.520 -19.202   2.950  1.00  0.00    -0.055 A 
HETATM   29  C   UNL     1      43.098 -18.526   1.807  1.00  0.00     0.008 A 
HETATM   30  C   UNL     1      42.219 -17.447   1.908  1.00  0.00     0.010 A 
BRANCH  28  31
HETATM   31  C   UNL     1      44.606 -20.268   2.885  1.00  0.00     0.010 C 
HETATM   32  C   UNL     1      45.039 -20.701   4.286  1.00  0.00     0.015 C 
HETATM   33  C   UNL     1      44.190 -21.490   2.053  1.00  0.00     0.015 C 
ENDBRANCH  28  31
ENDBRANCH   7  25
BRANCH  10  34
HETATM   34  C   UNL     1      42.996 -14.530   4.373  1.00  0.00     0.293 C 
HETATM   35  O   UNL     1      43.793 -14.287   3.475  1.00  0.00    -0.259 OA
BRANCH  34  36
HETATM   36  O   UNL     1      43.261 -14.924   5.629  1.00  0.00    -0.323 OA
HETATM   37  C   UNL     1      44.266 -14.142   6.289  1.00  0.00     0.213 C 
ENDBRANCH  34  36
ENDBRANCH  10  34
TORSDOF 9
ENDMDL
MODEL 6
REMARK VINA RESULT:      -7.9      2.309      3.522
REMARK  9 active torsions:
REMARK  status: ('A' for Active; 'I' for Inactive)
REMARK    1  A    between atoms: C_6  and  C_7 
REMARK    2  A    between atoms: C_7  and  C_8 
REMARK       I    between atoms: C_8  and  N_9 
REMARK    3  A    between atoms: N_9  and  C_10 
REMARK    4  A    between atoms: C_10  and  C_11 
REMARK    5  A    between atoms: C_11  and  N_12 
REMARK    6  A    between atoms: C_20  and  C_21 
REMARK    7  A    between atoms: C_24  and  C_25 
REMARK    8  A    between atoms: C_32  and  C_33 
REMARK    9  A    between atoms: C_33  and  O_34 
ROOT
HETATM    1  C   UNL     1      40.058 -11.958   3.134  1.00  0.00     0.071 C 
HETATM    2  C   UNL     1      40.007 -13.244   2.348  1.00  0.00     0.048 C 
HETATM    3  N   UNL     1      39.014 -13.274   1.355  1.00  0.00    -0.229 NA
HETATM    4  C   UNL     1      39.257 -13.992   0.300  1.00  0.00     0.170 C 
HETATM    5  N   UNL     1      40.546 -14.926   0.193  1.00  0.00    -0.319 N 
HETATM    6  C   UNL     1      41.143 -14.389  -0.835  1.00  0.00     0.011 C 
HETATM    7  C   UNL     1      40.760 -15.407   1.572  1.00  0.00     0.166 C 
HETATM    8  S   UNL     1      38.574 -13.737  -1.276  1.00  0.00    -0.086 SA
HETATM    9  C   UNL     1      40.177 -14.311  -2.020  1.00  0.00     0.135 C 
HETATM   10  C   UNL     1      40.931 -14.227   2.455  1.00  0.00     0.069 C 
ENDROOT
BRANCH   6  11
HETATM   11  C   UNL     1      42.189 -13.324  -0.619  1.00  0.00     0.156 C 
BRANCH  11  12
HETATM   12  C   UNL     1      41.950 -11.902  -1.041  1.00  0.00     0.223 C 
HETATM   13  N   UNL     1      41.372 -11.133  -0.065  1.00  0.00    -0.359 N 
HETATM   14  H   UNL     1      41.356 -11.510   0.889  1.00  0.00     0.162 HD
HETATM   15  O   UNL     1      42.134 -11.523  -2.195  1.00  0.00    -0.273 OA
BRANCH  13  16
HETATM   16  C   UNL     1      40.540  -9.938  -0.222  1.00  0.00     0.150 C 
BRANCH  16  17
HETATM   17  C   UNL     1      39.121 -10.050  -0.808  1.00  0.00     0.254 C 
BRANCH  17  18
HETATM   18  N   UNL     1      38.040 -10.384   0.204  1.00  0.00    -0.070 N 
HETATM   19  H   UNL     1      38.326 -11.300   0.606  1.00  0.00     0.279 HD
HETATM   20  C   UNL     1      37.895  -9.396   1.336  1.00  0.00     0.235 C 
HETATM   21  C   UNL     1      36.850  -9.889   2.328  1.00  0.00     0.028 C 
HETATM   22  C   UNL     1      35.511 -10.159   1.655  1.00  0.00     0.003 C 
HETATM   23  C   UNL     1      35.679 -11.116   0.482  1.00  0.00     0.028 C 
HETATM   24  C   UNL     1      36.720 -10.615  -0.505  1.00  0.00     0.235 C 
ENDBRANCH  17  18
ENDBRANCH  16  17
ENDBRANCH  13  16
ENDBRANCH  11  12
ENDBRANCH   6  11
BRANCH   7  25
HETATM   25  C   UNL     1      41.479 -16.723   1.808  1.00  0.00    -0.030 A 
HETATM   26  C   UNL     1      41.382 -17.471   2.989  1.00  0.00     0.010 A 
HETATM   27  C   UNL     1      42.339 -18.458   3.288  1.00  0.00     0.008 A 
HETATM   28  C   UNL     1      43.411 -18.726   2.423  1.00  0.00    -0.055 A 
HETATM   29  C   UNL     1      43.453 -18.054   1.203  1.00  0.00     0.008 A 
HETATM   30  C   UNL     1      42.517 -17.061   0.911  1.00  0.00     0.010 A 
BRANCH  28  31
HETATM   31  C   UNL     1      44.516 -19.690   2.836  1.00  0.00     0.010 C 
HETATM   32  C   UNL     1      44.657 -19.749   4.357  1.00  0.00     0.015 C 
HETATM   33  C   UNL     1      44.319 -21.101   2.264  1.00  0.00     0.015 C 
ENDBRANCH  28  31
ENDBRANCH   7  25
BRANCH  10  34
HETATM   34  C   UNL     1      42.247 -14.041   3.079  1.00  0.00     0.293 C 
HETATM   35  O   UNL     1      43.192 -13.633   2.415  1.00  0.00    -0.259 OA
BRANCH  34  36
HETATM   36  O   UNL     1      42.261 -14.500   4.341  1.00  0.00    -0.323 OA
HETATM   37  C   UNL     1      42.920 -13.631   5.273  1.00  0.00     0.213 C 
ENDBRANCH  34  36
ENDBRANCH  10  34
TORSDOF 9
ENDMDL
MODEL 7
REMARK VINA RESULT:      -7.7      2.895      8.244
REMARK  9 active torsions:
REMARK  status: ('A' for Active; 'I' for Inactive)
REMARK    1  A    between atoms: C_6  and  C_7 
REMARK    2  A    between atoms: C_7  and  C_8 
REMARK       I    between atoms: C_8  and  N_9 
REMARK    3  A    between atoms: N_9  and  C_10 
REMARK    4  A    between atoms: C_10  and  C_11 
REMARK    5  A    between atoms: C_11  and  N_12 
REMARK    6  A    between atoms: C_20  and  C_21 
REMARK    7  A    between atoms: C_24  and  C_25 
REMARK    8  A    between atoms: C_32  and  C_33 
REMARK    9  A    between atoms: C_33  and  O_34 
ROOT
HETATM    1  C   UNL     1      41.075 -16.936   0.849  1.00  0.00     0.071 C 
HETATM    2  C   UNL     1      40.288 -15.913   1.629  1.00  0.00     0.048 C 
HETATM    3  N   UNL     1      40.168 -16.198   2.999  1.00  0.00    -0.229 NA
HETATM    4  C   UNL     1      40.075 -15.185   3.806  1.00  0.00     0.170 C 
HETATM    5  N   UNL     1      39.941 -13.688   3.270  1.00  0.00    -0.319 N 
HETATM    6  C   UNL     1      41.020 -13.158   3.775  1.00  0.00     0.011 C 
HETATM    7  C   UNL     1      39.150 -13.817   2.030  1.00  0.00     0.166 C 
HETATM    8  S   UNL     1      40.538 -15.178   5.479  1.00  0.00    -0.086 SA
HETATM    9  C   UNL     1      41.070 -13.409   5.285  1.00  0.00     0.135 C 
HETATM   10  C   UNL     1      39.871 -14.733   1.112  1.00  0.00     0.069 C 
ENDROOT
BRANCH   6  11
HETATM   11  C   UNL     1      42.286 -13.117   2.957  1.00  0.00     0.156 C 
BRANCH  11  12
HETATM   12  C   UNL     1      43.453 -14.006   3.283  1.00  0.00     0.223 C 
HETATM   13  N   UNL     1      43.353 -15.260   2.739  1.00  0.00    -0.359 N 
HETATM   14  H   UNL     1      42.641 -15.408   2.015  1.00  0.00     0.162 HD
HETATM   15  O   UNL     1      44.331 -13.668   4.074  1.00  0.00    -0.273 OA
BRANCH  13  16
HETATM   16  C   UNL     1      43.952 -16.508   3.216  1.00  0.00     0.150 C 
BRANCH  16  17
HETATM   17  C   UNL     1      43.111 -17.519   4.017  1.00  0.00     0.254 C 
BRANCH  17  18
HETATM   18  N   UNL     1      43.327 -18.972   3.631  1.00  0.00    -0.070 N 
HETATM   19  H   UNL     1      42.497 -19.473   4.009  1.00  0.00     0.279 HD
HETATM   20  C   UNL     1      43.402 -19.235   2.146  1.00  0.00     0.235 C 
HETATM   21  C   UNL     1      43.523 -20.731   1.888  1.00  0.00     0.028 C 
HETATM   22  C   UNL     1      44.714 -21.338   2.618  1.00  0.00     0.003 C 
HETATM   23  C   UNL     1      44.654 -21.021   4.107  1.00  0.00     0.028 C 
HETATM   24  C   UNL     1      44.536 -19.526   4.356  1.00  0.00     0.235 C 
ENDBRANCH  17  18
ENDBRANCH  16  17
ENDBRANCH  13  16
ENDBRANCH  11  12
ENDBRANCH   6  11
BRANCH   7  25
HETATM   25  C   UNL     1      38.323 -12.643   1.539  1.00  0.00    -0.030 A 
HETATM   26  C   UNL     1      38.359 -11.362   2.108  1.00  0.00     0.010 A 
HETATM   27  C   UNL     1      37.323 -10.444   1.863  1.00  0.00     0.008 A 
HETATM   28  C   UNL     1      36.230 -10.772   1.046  1.00  0.00    -0.055 A 
HETATM   29  C   UNL     1      36.242 -12.007   0.399  1.00  0.00     0.008 A 
HETATM   30  C   UNL     1      37.257 -12.928   0.656  1.00  0.00     0.010 A 
BRANCH  28  31
HETATM   31  C   UNL     1      35.048  -9.820   0.915  1.00  0.00     0.010 C 
HETATM   32  C   UNL     1      34.018 -10.352  -0.079  1.00  0.00     0.015 C 
HETATM   33  C   UNL     1      34.380  -9.514   2.264  1.00  0.00     0.015 C 
ENDBRANCH  28  31
ENDBRANCH   7  25
BRANCH  10  34
HETATM   34  C   UNL     1      40.398 -14.159  -0.133  1.00  0.00     0.293 C 
HETATM   35  O   UNL     1      39.833 -14.374  -1.198  1.00  0.00    -0.259 OA
BRANCH  34  36
HETATM   36  O   UNL     1      41.576 -13.547   0.070  1.00  0.00    -0.323 OA
HETATM   37  C   UNL     1      41.712 -12.297  -0.619  1.00  0.00     0.213 C 
ENDBRANCH  34  36
ENDBRANCH  10  34
TORSDOF 9
ENDMDL
MODEL 8
REMARK VINA RESULT:      -7.7      2.527      3.965
REMARK  9 active torsions:
REMARK  status: ('A' for Active; 'I' for Inactive)
REMARK    1  A    between atoms: C_6  and  C_7 
REMARK    2  A    between atoms: C_7  and  C_8 
REMARK       I    between atoms: C_8  and  N_9 
REMARK    3  A    between atoms: N_9  and  C_10 
REMARK    4  A    between atoms: C_10  and  C_11 
REMARK    5  A    between atoms: C_11  and  N_12 
REMARK    6  A    between atoms: C_20  and  C_21 
REMARK    7  A    between atoms: C_24  and  C_25 
REMARK    8  A    between atoms: C_32  and  C_33 
REMARK    9  A    between atoms: C_33  and  O_34 
ROOT
HETATM    1  C   UNL     1      37.701 -13.130   0.814  1.00  0.00     0.071 C 
HETATM    2  C   UNL     1      38.820 -14.005   0.308  1.00  0.00     0.048 C 
HETATM    3  N   UNL     1      38.922 -14.060  -1.092  1.00  0.00    -0.229 NA
HETATM    4  C   UNL     1      40.107 -14.244  -1.589  1.00  0.00     0.170 C 
HETATM    5  N   UNL     1      41.371 -14.554  -0.667  1.00  0.00    -0.319 N 
HETATM    6  C   UNL     1      42.126 -13.527  -0.947  1.00  0.00     0.011 C 
HETATM    7  C   UNL     1      40.821 -15.355   0.444  1.00  0.00     0.166 C 
HETATM    8  S   UNL     1      40.630 -13.745  -3.168  1.00  0.00    -0.086 SA
HETATM    9  C   UNL     1      42.316 -13.414  -2.462  1.00  0.00     0.135 C 
HETATM   10  C   UNL     1      39.759 -14.561   1.109  1.00  0.00     0.069 C 
ENDROOT
BRANCH   6  11
HETATM   11  C   UNL     1      42.059 -12.293  -0.083  1.00  0.00     0.156 C 
BRANCH  11  12
HETATM   12  C   UNL     1      41.561 -10.986  -0.631  1.00  0.00     0.223 C 
HETATM   13  N   UNL     1      40.195 -10.889  -0.657  1.00  0.00    -0.359 N 
HETATM   14  H   UNL     1      39.659 -11.585  -0.126  1.00  0.00     0.162 HD
HETATM   15  O   UNL     1      42.318 -10.155  -1.128  1.00  0.00    -0.273 OA
BRANCH  13  16
HETATM   16  C   UNL     1      39.357 -10.075  -1.541  1.00  0.00     0.150 C 
BRANCH  16  17
HETATM   17  C   UNL     1      39.297 -10.376  -3.049  1.00  0.00     0.254 C 
BRANCH  17  18
HETATM   18  N   UNL     1      40.556 -10.018  -3.819  1.00  0.00    -0.070 N 
HETATM   19  H   UNL     1      41.327 -10.487  -3.303  1.00  0.00     0.279 HD
HETATM   20  C   UNL     1      40.587 -10.494  -5.252  1.00  0.00     0.235 C 
HETATM   21  C   UNL     1      41.931 -10.157  -5.884  1.00  0.00     0.028 C 
HETATM   22  C   UNL     1      42.246  -8.670  -5.789  1.00  0.00     0.003 C 
HETATM   23  C   UNL     1      42.160  -8.190  -4.346  1.00  0.00     0.028 C 
HETATM   24  C   UNL     1      40.815  -8.527  -3.724  1.00  0.00     0.235 C 
ENDBRANCH  17  18
ENDBRANCH  16  17
ENDBRANCH  13  16
ENDBRANCH  11  12
ENDBRANCH   6  11
BRANCH   7  25
HETATM   25  C   UNL     1      41.722 -16.318   1.197  1.00  0.00    -0.030 A 
HETATM   26  C   UNL     1      43.116 -16.192   1.275  1.00  0.00     0.010 A 
HETATM   27  C   UNL     1      43.910 -17.289   1.654  1.00  0.00     0.008 A 
HETATM   28  C   UNL     1      43.342 -18.533   1.967  1.00  0.00    -0.055 A 
HETATM   29  C   UNL     1      41.951 -18.632   1.987  1.00  0.00     0.008 A 
HETATM   30  C   UNL     1      41.161 -17.552   1.593  1.00  0.00     0.010 A 
BRANCH  28  31
HETATM   31  C   UNL     1      44.227 -19.745   2.227  1.00  0.00     0.010 C 
HETATM   32  C   UNL     1      44.610 -19.841   3.703  1.00  0.00     0.015 C 
HETATM   33  C   UNL     1      43.588 -21.059   1.755  1.00  0.00     0.015 C 
ENDBRANCH  28  31
ENDBRANCH   7  25
BRANCH  10  34
HETATM   34  C   UNL     1      40.008 -14.129   2.490  1.00  0.00     0.293 C 
HETATM   35  O   UNL     1      39.515 -14.746   3.427  1.00  0.00    -0.259 OA
BRANCH  34  36
HETATM   36  O   UNL     1      40.678 -12.966   2.528  1.00  0.00    -0.323 OA
HETATM   37  C   UNL     1      41.560 -12.834   3.650  1.00  0.00     0.213 C 
ENDBRANCH  34  36
ENDBRANCH  10  34
TORSDOF 9
ENDMDL
MODEL 9
REMARK VINA RESULT:      -7.7      2.318      8.003
REMARK  9 active torsions:
REMARK  status: ('A' for Active; 'I' for Inactive)
REMARK    1  A    between atoms: C_6  and  C_7 
REMARK    2  A    between atoms: C_7  and  C_8 
REMARK       I    between atoms: C_8  and  N_9 
REMARK    3  A    between atoms: N_9  and  C_10 
REMARK    4  A    between atoms: C_10  and  C_11 
REMARK    5  A    between atoms: C_11  and  N_12 
REMARK    6  A    between atoms: C_20  and  C_21 
REMARK    7  A    between atoms: C_24  and  C_25 
REMARK    8  A    between atoms: C_32  and  C_33 
REMARK    9  A    between atoms: C_33  and  O_34 
ROOT
HETATM    1  C   UNL     1      39.752 -16.802   2.273  1.00  0.00     0.071 C 
HETATM    2  C   UNL     1      39.816 -15.408   1.701  1.00  0.00     0.048 C 
HETATM    3  N   UNL     1      39.137 -14.440   2.460  1.00  0.00    -0.229 NA
HETATM    4  C   UNL     1      39.603 -13.229   2.423  1.00  0.00     0.170 C 
HETATM    5  N   UNL     1      40.791 -12.811   1.444  1.00  0.00    -0.319 N 
HETATM    6  C   UNL     1      41.690 -12.433   2.311  1.00  0.00     0.011 C 
HETATM    7  C   UNL     1      40.577 -13.637   0.240  1.00  0.00     0.166 C 
HETATM    8  S   UNL     1      39.405 -12.031   3.664  1.00  0.00    -0.086 SA
HETATM    9  C   UNL     1      41.098 -11.385   3.257  1.00  0.00     0.135 C 
HETATM   10  C   UNL     1      40.592 -15.064   0.647  1.00  0.00     0.069 C 
ENDROOT
BRANCH   6  11
HETATM   11  C   UNL     1      42.718 -13.422   2.799  1.00  0.00     0.156 C 
BRANCH  11  12
HETATM   12  C   UNL     1      42.703 -13.925   4.215  1.00  0.00     0.223 C 
HETATM   13  N   UNL     1      41.777 -14.911   4.435  1.00  0.00    -0.359 N 
HETATM   14  H   UNL     1      41.350 -15.353   3.613  1.00  0.00     0.162 HD
HETATM   15  O   UNL     1      43.367 -13.396   5.104  1.00  0.00    -0.273 OA
BRANCH  13  16
HETATM   16  C   UNL     1      41.109 -15.269   5.688  1.00  0.00     0.150 C 
BRANCH  16  17
HETATM   17  C   UNL     1      41.539 -16.524   6.467  1.00  0.00     0.254 C 
BRANCH  17  18
HETATM   18  N   UNL     1      42.832 -17.159   5.988  1.00  0.00    -0.070 N 
HETATM   19  H   UNL     1      43.282 -16.431   5.397  1.00  0.00     0.279 HD
HETATM   20  C   UNL     1      43.799 -17.545   7.082  1.00  0.00     0.235 C 
HETATM   21  C   UNL     1      45.088 -18.080   6.472  1.00  0.00     0.028 C 
HETATM   22  C   UNL     1      44.828 -19.246   5.527  1.00  0.00     0.003 C 
HETATM   23  C   UNL     1      43.812 -18.861   4.460  1.00  0.00     0.028 C 
HETATM   24  C   UNL     1      42.527 -18.331   5.076  1.00  0.00     0.235 C 
ENDBRANCH  17  18
ENDBRANCH  16  17
ENDBRANCH  13  16
ENDBRANCH  11  12
ENDBRANCH   6  11
BRANCH   7  25
HETATM   25  C   UNL     1      41.094 -13.159  -1.105  1.00  0.00    -0.030 A 
HETATM   26  C   UNL     1      42.235 -12.361  -1.269  1.00  0.00     0.010 A 
HETATM   27  C   UNL     1      42.444 -11.654  -2.467  1.00  0.00     0.008 A 
HETATM   28  C   UNL     1      41.529 -11.725  -3.529  1.00  0.00    -0.055 A 
HETATM   29  C   UNL     1      40.447 -12.595  -3.406  1.00  0.00     0.008 A 
HETATM   30  C   UNL     1      40.226 -13.282  -2.212  1.00  0.00     0.010 A 
BRANCH  28  31
HETATM   31  C   UNL     1      41.697 -10.837  -4.755  1.00  0.00     0.010 C 
HETATM   32  C   UNL     1      40.342 -10.465  -5.357  1.00  0.00     0.015 C 
HETATM   33  C   UNL     1      42.516  -9.570  -4.463  1.00  0.00     0.015 C 
ENDBRANCH  28  31
ENDBRANCH   7  25
BRANCH  10  34
HETATM   34  C   UNL     1      41.696 -15.893   0.145  1.00  0.00     0.293 C 
HETATM   35  O   UNL     1      41.566 -16.528  -0.894  1.00  0.00    -0.259 OA
BRANCH  34  36
HETATM   36  O   UNL     1      42.710 -15.943   1.023  1.00  0.00    -0.323 OA
HETATM   37  C   UNL     1      43.343 -17.226   1.114  1.00  0.00     0.213 C 
ENDBRANCH  34  36
ENDBRANCH  10  34
TORSDOF 9
ENDMDL
MODEL 10
REMARK VINA RESULT:      -7.6      2.637      6.034
REMARK  9 active torsions:
REMARK  status: ('A' for Active; 'I' for Inactive)
REMARK    1  A    between atoms: C_6  and  C_7 
REMARK    2  A    between atoms: C_7  and  C_8 
REMARK       I    between atoms: C_8  and  N_9 
REMARK    3  A    between atoms: N_9  and  C_10 
REMARK    4  A    between atoms: C_10  and  C_11 
REMARK    5  A    between atoms: C_11  and  N_12 
REMARK    6  A    between atoms: C_20  and  C_21 
REMARK    7  A    between atoms: C_24  and  C_25 
REMARK    8  A    between atoms: C_32  and  C_33 
REMARK    9  A    between atoms: C_33  and  O_34 
ROOT
HETATM    1  C   UNL     1      37.536 -13.040  -2.142  1.00  0.00     0.071 C 
HETATM    2  C   UNL     1      38.913 -13.531  -1.772  1.00  0.00     0.048 C 
HETATM    3  N   UNL     1      39.884 -13.331  -2.767  1.00  0.00    -0.229 NA
HETATM    4  C   UNL     1      41.106 -13.145  -2.369  1.00  0.00     0.170 C 
HETATM    5  N   UNL     1      41.527 -13.293  -0.838  1.00  0.00    -0.319 N 
HETATM    6  C   UNL     1      41.954 -12.085  -0.592  1.00  0.00     0.011 C 
HETATM    7  C   UNL     1      40.659 -14.372  -0.326  1.00  0.00     0.166 C 
HETATM    8  S   UNL     1      42.335 -12.285  -3.244  1.00  0.00    -0.086 SA
HETATM    9  C   UNL     1      43.014 -11.685  -1.622  1.00  0.00     0.135 C 
HETATM   10  C   UNL     1      39.246 -13.971  -0.536  1.00  0.00     0.069 C 
ENDROOT
BRANCH   6  11
HETATM   11  C   UNL     1      41.009 -11.061  -0.018  1.00  0.00     0.156 C 
BRANCH  11  12
HETATM   12  C   UNL     1      41.289 -10.395   1.300  1.00  0.00     0.223 C 
HETATM   13  N   UNL     1      41.245 -11.255   2.366  1.00  0.00    -0.359 N 
HETATM   14  H   UNL     1      41.245 -12.262   2.165  1.00  0.00     0.162 HD
HETATM   15  O   UNL     1      41.408  -9.177   1.405  1.00  0.00    -0.273 OA
BRANCH  13  16
HETATM   16  C   UNL     1      40.946 -10.952   3.767  1.00  0.00     0.150 C 
BRANCH  16  17
HETATM   17  C   UNL     1      39.928 -11.804   4.547  1.00  0.00     0.254 C 
BRANCH  17  18
HETATM   18  N   UNL     1      40.526 -12.979   5.300  1.00  0.00    -0.070 N 
HETATM   19  H   UNL     1      40.268 -12.816   6.295  1.00  0.00     0.279 HD
HETATM   20  C   UNL     1      40.002 -14.334   4.891  1.00  0.00     0.235 C 
HETATM   21  C   UNL     1      40.605 -15.415   5.778  1.00  0.00     0.028 C 
HETATM   22  C   UNL     1      42.127 -15.382   5.759  1.00  0.00     0.003 C 
HETATM   23  C   UNL     1      42.643 -13.996   6.122  1.00  0.00     0.028 C 
HETATM   24  C   UNL     1      42.039 -12.923   5.230  1.00  0.00     0.235 C 
ENDBRANCH  17  18
ENDBRANCH  16  17
ENDBRANCH  13  16
ENDBRANCH  11  12
ENDBRANCH   6  11
BRANCH   7  25
HETATM   25  C   UNL     1      41.112 -15.203   0.861  1.00  0.00    -0.030 A 
HETATM   26  C   UNL     1      42.328 -15.018   1.533  1.00  0.00     0.010 A 
HETATM   27  C   UNL     1      42.847 -16.031   2.358  1.00  0.00     0.008 A 
HETATM   28  C   UNL     1      42.174 -17.249   2.538  1.00  0.00    -0.055 A 
HETATM   29  C   UNL     1      40.918 -17.396   1.951  1.00  0.00     0.008 A 
HETATM   30  C   UNL     1      40.407 -16.401   1.116  1.00  0.00     0.010 A 
BRANCH  28  31
HETATM   31  C   UNL     1      42.825 -18.387   3.312  1.00  0.00     0.010 C 
HETATM   32  C   UNL     1      43.303 -19.492   2.371  1.00  0.00     0.015 C 
HETATM   33  C   UNL     1      43.979 -17.912   4.207  1.00  0.00     0.015 C 
ENDBRANCH  28  31
ENDBRANCH   7  25
BRANCH  10  34
HETATM   34  C   UNL     1      38.433 -13.725   0.662  1.00  0.00     0.293 C 
HETATM   35  O   UNL     1      37.522 -14.489   0.955  1.00  0.00    -0.259 OA
BRANCH  34  36
HETATM   36  O   UNL     1      38.740 -12.547   1.229  1.00  0.00    -0.323 OA
HETATM   37  C   UNL     1      37.611 -11.693   1.454  1.00  0.00     0.213 C 
ENDBRANCH  34  36
ENDBRANCH  10  34
TORSDOF 9
ENDMDL
