MODEL 1
REMARK VINA RESULT:      -9.2      0.000      0.000
REMARK  3 active torsions:
REMARK  status: ('A' for Active; 'I' for Inactive)
REMARK    1  A    between atoms: C_4  and  C_5 
REMARK    2  A    between atoms: C_11  and  C_12 
REMARK    3  A    between atoms: C_21  and  N_22 
ROOT
HETATM    1  C   UNL     1      43.842 -19.180   5.754  1.00  0.00     0.071 A 
HETATM    2  N   UNL     1      43.772 -19.290   7.128  1.00  0.00    -0.274 N 
HETATM    3  H   UNL     1      43.953 -20.117   7.688  1.00  0.00     0.189 HD
HETATM    4  N   UNL     1      43.469 -18.145   7.760  1.00  0.00    -0.148 NA
HETATM    5  C   UNL     1      43.346 -17.292   6.752  1.00  0.00     0.199 A 
HETATM    6  C   UNL     1      43.509 -17.857   5.478  1.00  0.00     0.036 A 
HETATM    7  C   UNL     1      43.404 -17.017   4.231  1.00  0.00     0.079 A 
HETATM    8  C   UNL     1      43.247 -15.527   4.661  1.00  0.00     0.063 A 
HETATM    9  C   UNL     1      43.106 -14.508   3.541  1.00  0.00     0.020 C 
HETATM   10  N   UNL     1      42.989 -13.663   2.613  1.00  0.00    -0.096 N 
HETATM   11  C   UNL     1      43.114 -15.106   5.944  1.00  0.00     0.139 A 
HETATM   12  O   UNL     1      43.132 -15.994   7.019  1.00  0.00    -0.277 OA
ENDROOT
BRANCH   7  13
HETATM   13  C   UNL     1      42.277 -17.451   3.186  1.00  0.00     0.022 C 
HETATM   14  C   UNL     1      42.694 -17.489   1.730  1.00  0.00    -0.025 C 
HETATM   15  C   UNL     1      42.120 -16.785   0.744  1.00  0.00    -0.030 C 
HETATM   16  C   UNL     1      40.923 -15.918   0.953  1.00  0.00     0.027 C 
HETATM   17  C   UNL     1      40.117 -16.421   2.138  1.00  0.00     0.004 C 
HETATM   18  C   UNL     1      40.996 -16.576   3.376  1.00  0.00     0.010 C 
ENDBRANCH   7  13
BRANCH  11  19
HETATM   19  N   UNL     1      42.928 -13.800   6.339  1.00  0.00    -0.282 NA
HETATM   20  H   UNL     1      43.543 -13.109   5.918  1.00  0.00     0.126 HD
HETATM   21  H   UNL     1      41.946 -13.533   6.311  1.00  0.00     0.126 HD
ENDBRANCH  11  19
BRANCH   1  22
HETATM   22  C   UNL     1      44.213 -20.320   4.921  1.00  0.00    -0.007 A 
HETATM   23  C   UNL     1      44.480 -21.567   5.509  1.00  0.00     0.014 A 
HETATM   24  C   UNL     1      44.813 -22.669   4.719  1.00  0.00     0.001 A 
HETATM   25  C   UNL     1      44.890 -22.534   3.336  1.00  0.00     0.000 A 
HETATM   26  C   UNL     1      44.634 -21.298   2.743  1.00  0.00     0.001 A 
HETATM   27  C   UNL     1      44.295 -20.195   3.530  1.00  0.00     0.014 A 
ENDBRANCH   1  22
TORSDOF 3
ENDMDL
MODEL 2
REMARK VINA RESULT:      -9.0      3.293      4.984
REMARK  3 active torsions:
REMARK  status: ('A' for Active; 'I' for Inactive)
REMARK    1  A    between atoms: C_4  and  C_5 
REMARK    2  A    between atoms: C_11  and  C_12 
REMARK    3  A    between atoms: C_21  and  N_22 
ROOT
HETATM    1  C   UNL     1      43.253 -17.533   3.564  1.00  0.00     0.071 A 
HETATM    2  N   UNL     1      44.047 -18.363   2.798  1.00  0.00    -0.274 N 
HETATM    3  H   UNL     1      44.719 -19.047   3.130  1.00  0.00     0.189 HD
HETATM    4  N   UNL     1      43.847 -18.254   1.476  1.00  0.00    -0.148 NA
HETATM    5  C   UNL     1      42.900 -17.328   1.409  1.00  0.00     0.199 A 
HETATM    6  C   UNL     1      42.513 -16.792   2.647  1.00  0.00     0.036 A 
HETATM    7  C   UNL     1      41.443 -15.734   2.741  1.00  0.00     0.079 A 
HETATM    8  C   UNL     1      40.842 -15.523   1.318  1.00  0.00     0.063 A 
HETATM    9  C   UNL     1      39.750 -14.474   1.190  1.00  0.00     0.020 C 
HETATM   10  N   UNL     1      38.843 -13.604   1.084  1.00  0.00    -0.096 N 
HETATM   11  C   UNL     1      41.305 -16.122   0.191  1.00  0.00     0.139 A 
HETATM   12  O   UNL     1      42.371 -17.020   0.215  1.00  0.00    -0.277 OA
ENDROOT
BRANCH   7  13
HETATM   13  C   UNL     1      41.883 -14.351   3.405  1.00  0.00     0.022 C 
HETATM   14  C   UNL     1      43.373 -14.143   3.592  1.00  0.00    -0.025 C 
HETATM   15  C   UNL     1      43.979 -13.908   4.765  1.00  0.00    -0.030 C 
HETATM   16  C   UNL     1      43.233 -13.742   6.048  1.00  0.00     0.027 C 
HETATM   17  C   UNL     1      41.826 -13.240   5.770  1.00  0.00     0.004 C 
HETATM   18  C   UNL     1      41.117 -14.127   4.750  1.00  0.00     0.010 C 
ENDBRANCH   7  13
BRANCH  11  19
HETATM   19  N   UNL     1      40.817 -15.913  -1.080  1.00  0.00    -0.282 NA
HETATM   20  H   UNL     1      39.831 -16.113  -1.223  1.00  0.00     0.126 HD
HETATM   21  H   UNL     1      41.101 -15.007  -1.449  1.00  0.00     0.126 HD
ENDBRANCH  11  19
BRANCH   1  22
HETATM   22  C   UNL     1      43.308 -17.566   5.022  1.00  0.00    -0.007 A 
HETATM   23  C   UNL     1      44.521 -17.833   5.677  1.00  0.00     0.014 A 
HETATM   24  C   UNL     1      44.588 -17.846   7.071  1.00  0.00     0.001 A 
HETATM   25  C   UNL     1      43.444 -17.598   7.824  1.00  0.00     0.000 A 
HETATM   26  C   UNL     1      42.233 -17.339   7.184  1.00  0.00     0.001 A 
HETATM   27  C   UNL     1      42.164 -17.321   5.789  1.00  0.00     0.014 A 
ENDBRANCH   1  22
TORSDOF 3
ENDMDL
MODEL 3
REMARK VINA RESULT:      -8.7      2.765      4.199
REMARK  3 active torsions:
REMARK  status: ('A' for Active; 'I' for Inactive)
REMARK    1  A    between atoms: C_4  and  C_5 
REMARK    2  A    between atoms: C_11  and  C_12 
REMARK    3  A    between atoms: C_21  and  N_22 
ROOT
HETATM    1  C   UNL     1      41.472 -15.789   5.070  1.00  0.00     0.071 A 
HETATM    2  N   UNL     1      40.359 -15.695   5.881  1.00  0.00    -0.274 N 
HETATM    3  H   UNL     1      40.161 -16.234   6.717  1.00  0.00     0.189 HD
HETATM    4  N   UNL     1      39.486 -14.744   5.512  1.00  0.00    -0.148 NA
HETATM    5  C   UNL     1      40.068 -14.227   4.439  1.00  0.00     0.199 A 
HETATM    6  C   UNL     1      41.271 -14.847   4.066  1.00  0.00     0.036 A 
HETATM    7  C   UNL     1      42.058 -14.371   2.871  1.00  0.00     0.079 A 
HETATM    8  C   UNL     1      41.370 -13.086   2.317  1.00  0.00     0.063 A 
HETATM    9  C   UNL     1      42.003 -12.452   1.089  1.00  0.00     0.020 C 
HETATM   10  N   UNL     1      42.529 -11.926   0.071  1.00  0.00    -0.096 N 
HETATM   11  C   UNL     1      40.202 -12.576   2.784  1.00  0.00     0.139 A 
HETATM   12  O   UNL     1      39.510 -13.162   3.843  1.00  0.00    -0.277 OA
ENDROOT
BRANCH   7  13
HETATM   13  C   UNL     1      42.303 -15.450   1.720  1.00  0.00     0.022 C 
HETATM   14  C   UNL     1      41.152 -16.391   1.429  1.00  0.00    -0.025 C 
HETATM   15  C   UNL     1      41.210 -17.729   1.505  1.00  0.00    -0.030 C 
HETATM   16  C   UNL     1      42.466 -18.473   1.815  1.00  0.00     0.027 C 
HETATM   17  C   UNL     1      43.674 -17.651   1.398  1.00  0.00     0.004 C 
HETATM   18  C   UNL     1      43.619 -16.248   1.997  1.00  0.00     0.010 C 
ENDBRANCH   7  13
BRANCH  11  19
HETATM   19  N   UNL     1      39.558 -11.470   2.277  1.00  0.00    -0.282 NA
HETATM   20  H   UNL     1      38.658 -11.242   2.692  1.00  0.00     0.126 HD
HETATM   21  H   UNL     1      40.181 -10.668   2.207  1.00  0.00     0.126 HD
ENDBRANCH  11  19
BRANCH   1  22
HETATM   22  C   UNL     1      42.544 -16.736   5.363  1.00  0.00    -0.007 A 
HETATM   23  C   UNL     1      43.740 -16.289   5.947  1.00  0.00     0.014 A 
HETATM   24  C   UNL     1      44.763 -17.190   6.251  1.00  0.00     0.001 A 
HETATM   25  C   UNL     1      44.602 -18.543   5.969  1.00  0.00     0.000 A 
HETATM   26  C   UNL     1      43.421 -18.996   5.382  1.00  0.00     0.001 A 
HETATM   27  C   UNL     1      42.395 -18.098   5.081  1.00  0.00     0.014 A 
ENDBRANCH   1  22
TORSDOF 3
ENDMDL
MODEL 4
REMARK VINA RESULT:      -8.7      1.799      5.250
REMARK  3 active torsions:
REMARK  status: ('A' for Active; 'I' for Inactive)
REMARK    1  A    between atoms: C_4  and  C_5 
REMARK    2  A    between atoms: C_11  and  C_12 
REMARK    3  A    between atoms: C_21  and  N_22 
ROOT
HETATM    1  C   UNL     1      42.239 -15.202   4.638  1.00  0.00     0.071 A 
HETATM    2  N   UNL     1      42.444 -14.049   5.369  1.00  0.00    -0.274 N 
HETATM    3  H   UNL     1      42.189 -13.103   5.108  1.00  0.00     0.189 HD
HETATM    4  N   UNL     1      43.006 -14.250   6.572  1.00  0.00    -0.148 NA
HETATM    5  C   UNL     1      43.159 -15.567   6.595  1.00  0.00     0.199 A 
HETATM    6  C   UNL     1      42.760 -16.227   5.423  1.00  0.00     0.036 A 
HETATM    7  C   UNL     1      42.865 -17.725   5.295  1.00  0.00     0.079 A 
HETATM    8  C   UNL     1      43.322 -18.299   6.671  1.00  0.00     0.063 A 
HETATM    9  C   UNL     1      43.508 -19.806   6.750  1.00  0.00     0.020 C 
HETATM   10  N   UNL     1      43.662 -21.056   6.817  1.00  0.00    -0.096 N 
HETATM   11  C   UNL     1      43.668 -17.544   7.743  1.00  0.00     0.139 A 
HETATM   12  O   UNL     1      43.620 -16.151   7.713  1.00  0.00    -0.277 OA
ENDROOT
BRANCH   7  13
HETATM   13  C   UNL     1      43.777 -18.264   4.100  1.00  0.00     0.022 C 
HETATM   14  C   UNL     1      44.300 -17.219   3.135  1.00  0.00    -0.025 C 
HETATM   15  C   UNL     1      44.076 -17.208   1.812  1.00  0.00    -0.030 C 
HETATM   16  C   UNL     1      43.334 -18.293   1.103  1.00  0.00     0.027 C 
HETATM   17  C   UNL     1      43.455 -19.596   1.875  1.00  0.00     0.004 C 
HETATM   18  C   UNL     1      43.044 -19.412   3.334  1.00  0.00     0.010 C 
ENDBRANCH   7  13
BRANCH  11  19
HETATM   19  N   UNL     1      44.117 -18.031   8.950  1.00  0.00    -0.282 NA
HETATM   20  H   UNL     1      45.123 -18.016   9.097  1.00  0.00     0.126 HD
HETATM   21  H   UNL     1      43.591 -17.647   9.733  1.00  0.00     0.126 HD
ENDBRANCH  11  19
BRANCH   1  22
HETATM   22  C   UNL     1      41.588 -15.165   3.332  1.00  0.00    -0.007 A 
HETATM   23  C   UNL     1      41.918 -14.161   2.408  1.00  0.00     0.014 A 
HETATM   24  C   UNL     1      41.318 -14.129   1.148  1.00  0.00     0.001 A 
HETATM   25  C   UNL     1      40.378 -15.095   0.803  1.00  0.00     0.000 A 
HETATM   26  C   UNL     1      40.037 -16.093   1.716  1.00  0.00     0.001 A 
HETATM   27  C   UNL     1      40.640 -16.129   2.975  1.00  0.00     0.014 A 
ENDBRANCH   1  22
TORSDOF 3
ENDMDL
MODEL 5
REMARK VINA RESULT:      -8.6      3.678      5.681
REMARK  3 active torsions:
REMARK  status: ('A' for Active; 'I' for Inactive)
REMARK    1  A    between atoms: C_4  and  C_5 
REMARK    2  A    between atoms: C_11  and  C_12 
REMARK    3  A    between atoms: C_21  and  N_22 
ROOT
HETATM    1  C   UNL     1      41.672 -16.441   1.731  1.00  0.00     0.071 A 
HETATM    2  N   UNL     1      41.902 -16.906   0.452  1.00  0.00    -0.274 N 
HETATM    3  H   UNL     1      42.397 -17.750   0.185  1.00  0.00     0.189 HD
HETATM    4  N   UNL     1      41.358 -16.151  -0.516  1.00  0.00    -0.148 NA
HETATM    5  C   UNL     1      40.771 -15.185   0.176  1.00  0.00     0.199 A 
HETATM    6  C   UNL     1      40.958 -15.258   1.565  1.00  0.00     0.036 A 
HETATM    7  C   UNL     1      40.348 -14.237   2.491  1.00  0.00     0.079 A 
HETATM    8  C   UNL     1      39.444 -13.291   1.644  1.00  0.00     0.063 A 
HETATM    9  C   UNL     1      38.744 -12.169   2.393  1.00  0.00     0.020 C 
HETATM   10  N   UNL     1      38.163 -11.238   3.014  1.00  0.00    -0.096 N 
HETATM   11  C   UNL     1      39.338 -13.336   0.292  1.00  0.00     0.139 A 
HETATM   12  O   UNL     1      40.030 -14.274  -0.474  1.00  0.00    -0.277 OA
ENDROOT
BRANCH   7  13
HETATM   13  C   UNL     1      41.372 -13.416   3.400  1.00  0.00     0.022 C 
HETATM   14  C   UNL     1      42.831 -13.488   2.995  1.00  0.00    -0.025 C 
HETATM   15  C   UNL     1      43.829 -13.927   3.776  1.00  0.00    -0.030 C 
HETATM   16  C   UNL     1      43.630 -14.333   5.199  1.00  0.00     0.027 C 
HETATM   17  C   UNL     1      42.426 -13.613   5.783  1.00  0.00     0.004 C 
HETATM   18  C   UNL     1      41.192 -13.801   4.904  1.00  0.00     0.010 C 
ENDBRANCH   7  13
BRANCH  11  19
HETATM   19  N   UNL     1      38.581 -12.480  -0.477  1.00  0.00    -0.282 NA
HETATM   20  H   UNL     1      37.883 -11.929   0.015  1.00  0.00     0.126 HD
HETATM   21  H   UNL     1      39.159 -11.926  -1.106  1.00  0.00     0.126 HD
ENDBRANCH  11  19
BRANCH   1  22
HETATM   22  C   UNL     1      42.149 -17.175   2.900  1.00  0.00    -0.007 A 
HETATM   23  C   UNL     1      43.447 -17.710   2.915  1.00  0.00     0.014 A 
HETATM   24  C   UNL     1      43.920 -18.394   4.037  1.00  0.00     0.001 A 
HETATM   25  C   UNL     1      43.099 -18.556   5.149  1.00  0.00     0.000 A 
HETATM   26  C   UNL     1      41.806 -18.034   5.141  1.00  0.00     0.001 A 
HETATM   27  C   UNL     1      41.332 -17.345   4.022  1.00  0.00     0.014 A 
ENDBRANCH   1  22
TORSDOF 3
ENDMDL
MODEL 6
REMARK VINA RESULT:      -8.5      2.666      6.334
REMARK  3 active torsions:
REMARK  status: ('A' for Active; 'I' for Inactive)
REMARK    1  A    between atoms: C_4  and  C_5 
REMARK    2  A    between atoms: C_11  and  C_12 
REMARK    3  A    between atoms: C_21  and  N_22 
ROOT
HETATM    1  C   UNL     1      43.201 -16.480   2.481  1.00  0.00     0.071 A 
HETATM    2  N   UNL     1      42.977 -16.452   1.119  1.00  0.00    -0.274 N 
HETATM    3  H   UNL     1      42.740 -15.645   0.553  1.00  0.00     0.189 HD
HETATM    4  N   UNL     1      43.141 -17.636   0.508  1.00  0.00    -0.148 NA
HETATM    5  C   UNL     1      43.477 -18.430   1.516  1.00  0.00     0.199 A 
HETATM    6  C   UNL     1      43.488 -17.810   2.775  1.00  0.00     0.036 A 
HETATM    7  C   UNL     1      43.856 -18.576   4.020  1.00  0.00     0.079 A 
HETATM    8  C   UNL     1      44.314 -20.004   3.594  1.00  0.00     0.063 A 
HETATM    9  C   UNL     1      44.715 -20.952   4.713  1.00  0.00     0.020 C 
HETATM   10  N   UNL     1      45.048 -21.737   5.642  1.00  0.00    -0.096 N 
HETATM   11  C   UNL     1      44.268 -20.480   2.324  1.00  0.00     0.139 A 
HETATM   12  O   UNL     1      43.817 -19.703   1.259  1.00  0.00    -0.277 OA
ENDROOT
BRANCH   7  13
HETATM   13  C   UNL     1      42.742 -18.632   5.163  1.00  0.00     0.022 C 
HETATM   14  C   UNL     1      41.377 -18.088   4.792  1.00  0.00    -0.025 C 
HETATM   15  C   UNL     1      40.746 -17.088   5.425  1.00  0.00    -0.030 C 
HETATM   16  C   UNL     1      41.290 -16.427   6.648  1.00  0.00     0.027 C 
HETATM   17  C   UNL     1      42.203 -17.385   7.395  1.00  0.00     0.004 C 
HETATM   18  C   UNL     1      43.273 -17.959   6.470  1.00  0.00     0.010 C 
ENDBRANCH   7  13
BRANCH  11  19
HETATM   19  N   UNL     1      44.625 -21.753   1.937  1.00  0.00    -0.282 NA
HETATM   20  H   UNL     1      44.713 -21.912   0.937  1.00  0.00     0.126 HD
HETATM   21  H   UNL     1      45.419 -22.101   2.471  1.00  0.00     0.126 HD
ENDBRANCH  11  19
BRANCH   1  22
HETATM   22  C   UNL     1      43.117 -15.266   3.287  1.00  0.00    -0.007 A 
HETATM   23  C   UNL     1      43.867 -15.150   4.469  1.00  0.00     0.014 A 
HETATM   24  C   UNL     1      43.810 -13.984   5.235  1.00  0.00     0.001 A 
HETATM   25  C   UNL     1      42.999 -12.927   4.831  1.00  0.00     0.000 A 
HETATM   26  C   UNL     1      42.244 -13.035   3.664  1.00  0.00     0.001 A 
HETATM   27  C   UNL     1      42.303 -14.199   2.893  1.00  0.00     0.014 A 
ENDBRANCH   1  22
TORSDOF 3
ENDMDL
MODEL 7
REMARK VINA RESULT:      -8.4      2.341      5.493
REMARK  3 active torsions:
REMARK  status: ('A' for Active; 'I' for Inactive)
REMARK    1  A    between atoms: C_4  and  C_5 
REMARK    2  A    between atoms: C_11  and  C_12 
REMARK    3  A    between atoms: C_21  and  N_22 
ROOT
HETATM    1  C   UNL     1      42.756 -15.630   6.044  1.00  0.00     0.071 A 
HETATM    2  N   UNL     1      43.542 -15.568   7.178  1.00  0.00    -0.274 N 
HETATM    3  H   UNL     1      43.492 -14.881   7.922  1.00  0.00     0.189 HD
HETATM    4  N   UNL     1      44.428 -16.570   7.291  1.00  0.00    -0.148 NA
HETATM    5  C   UNL     1      44.192 -17.281   6.197  1.00  0.00     0.199 A 
HETATM    6  C   UNL     1      43.213 -16.744   5.346  1.00  0.00     0.036 A 
HETATM    7  C   UNL     1      42.826 -17.438   4.065  1.00  0.00     0.079 A 
HETATM    8  C   UNL     1      43.576 -18.803   4.006  1.00  0.00     0.063 A 
HETATM    9  C   UNL     1      43.335 -19.658   2.771  1.00  0.00     0.020 C 
HETATM   10  N   UNL     1      43.135 -20.367   1.748  1.00  0.00    -0.096 N 
HETATM   11  C   UNL     1      44.498 -19.214   4.912  1.00  0.00     0.139 A 
HETATM   12  O   UNL     1      44.846 -18.439   6.017  1.00  0.00    -0.277 OA
ENDROOT
BRANCH   7  13
HETATM   13  C   UNL     1      43.029 -16.595   2.724  1.00  0.00     0.022 C 
HETATM   14  C   UNL     1      43.560 -15.185   2.895  1.00  0.00    -0.025 C 
HETATM   15  C   UNL     1      42.940 -14.071   2.478  1.00  0.00    -0.030 C 
HETATM   16  C   UNL     1      41.660 -14.091   1.709  1.00  0.00     0.027 C 
HETATM   17  C   UNL     1      41.530 -15.400   0.949  1.00  0.00     0.004 C 
HETATM   18  C   UNL     1      41.715 -16.597   1.878  1.00  0.00     0.010 C 
ENDBRANCH   7  13
BRANCH  11  19
HETATM   19  N   UNL     1      45.203 -20.395   4.851  1.00  0.00    -0.282 NA
HETATM   20  H   UNL     1      44.791 -21.192   5.328  1.00  0.00     0.126 HD
HETATM   21  H   UNL     1      45.504 -20.608   3.901  1.00  0.00     0.126 HD
ENDBRANCH  11  19
BRANCH   1  22
HETATM   22  C   UNL     1      41.706 -14.647   5.796  1.00  0.00    -0.007 A 
HETATM   23  C   UNL     1      41.980 -13.275   5.923  1.00  0.00     0.014 A 
HETATM   24  C   UNL     1      40.989 -12.326   5.667  1.00  0.00     0.001 A 
HETATM   25  C   UNL     1      39.714 -12.738   5.289  1.00  0.00     0.000 A 
HETATM   26  C   UNL     1      39.430 -14.098   5.167  1.00  0.00     0.001 A 
HETATM   27  C   UNL     1      40.421 -15.049   5.418  1.00  0.00     0.014 A 
ENDBRANCH   1  22
TORSDOF 3
ENDMDL
MODEL 8
REMARK VINA RESULT:      -8.3      2.111      3.472
REMARK  3 active torsions:
REMARK  status: ('A' for Active; 'I' for Inactive)
REMARK    1  A    between atoms: C_4  and  C_5 
REMARK    2  A    between atoms: C_11  and  C_12 
REMARK    3  A    between atoms: C_21  and  N_22 
ROOT
HETATM    1  C   UNL     1      43.020 -16.037   4.479  1.00  0.00     0.071 A 
HETATM    2  N   UNL     1      43.017 -15.980   5.858  1.00  0.00    -0.274 N 
HETATM    3  H   UNL     1      43.304 -16.708   6.503  1.00  0.00     0.189 HD
HETATM    4  N   UNL     1      42.623 -14.800   6.362  1.00  0.00    -0.148 NA
HETATM    5  C   UNL     1      42.371 -14.096   5.266  1.00  0.00     0.199 A 
HETATM    6  C   UNL     1      42.540 -14.799   4.063  1.00  0.00     0.036 A 
HETATM    7  C   UNL     1      42.299 -14.136   2.731  1.00  0.00     0.079 A 
HETATM    8  C   UNL     1      42.005 -12.626   2.985  1.00  0.00     0.063 A 
HETATM    9  C   UNL     1      41.714 -11.775   1.759  1.00  0.00     0.020 C 
HETATM   10  N   UNL     1      41.473 -11.069   0.743  1.00  0.00    -0.096 N 
HETATM   11  C   UNL     1      41.881 -12.063   4.213  1.00  0.00     0.139 A 
HETATM   12  O   UNL     1      42.035 -12.802   5.385  1.00  0.00    -0.277 OA
ENDROOT
BRANCH   7  13
HETATM   13  C   UNL     1      41.181 -14.807   1.808  1.00  0.00     0.022 C 
HETATM   14  C   UNL     1      40.289 -15.833   2.477  1.00  0.00    -0.025 C 
HETATM   15  C   UNL     1      40.151 -17.108   2.085  1.00  0.00    -0.030 C 
HETATM   16  C   UNL     1      40.813 -17.663   0.868  1.00  0.00     0.027 C 
HETATM   17  C   UNL     1      41.074 -16.551  -0.135  1.00  0.00     0.004 C 
HETATM   18  C   UNL     1      41.829 -15.393   0.511  1.00  0.00     0.010 C 
ENDBRANCH   7  13
BRANCH  11  19
HETATM   19  N   UNL     1      41.577 -10.742   4.456  1.00  0.00    -0.282 NA
HETATM   20  H   UNL     1      41.454 -10.479   5.430  1.00  0.00     0.126 HD
HETATM   21  H   UNL     1      42.192 -10.112   3.945  1.00  0.00     0.126 HD
ENDBRANCH  11  19
BRANCH   1  22
HETATM   22  C   UNL     1      43.472 -17.231   3.771  1.00  0.00    -0.007 A 
HETATM   23  C   UNL     1      43.922 -17.138   2.445  1.00  0.00     0.014 A 
HETATM   24  C   UNL     1      44.378 -18.271   1.767  1.00  0.00     0.001 A 
HETATM   25  C   UNL     1      44.381 -19.507   2.406  1.00  0.00     0.000 A 
HETATM   26  C   UNL     1      43.929 -19.612   3.721  1.00  0.00     0.001 A 
HETATM   27  C   UNL     1      43.478 -18.480   4.403  1.00  0.00     0.014 A 
ENDBRANCH   1  22
TORSDOF 3
ENDMDL
MODEL 9
REMARK VINA RESULT:      -8.2      3.373      5.635
REMARK  3 active torsions:
REMARK  status: ('A' for Active; 'I' for Inactive)
REMARK    1  A    between atoms: C_4  and  C_5 
REMARK    2  A    between atoms: C_11  and  C_12 
REMARK    3  A    between atoms: C_21  and  N_22 
ROOT
HETATM    1  C   UNL     1      41.067 -16.159   3.699  1.00  0.00     0.071 A 
HETATM    2  N   UNL     1      40.501 -17.399   3.923  1.00  0.00    -0.274 N 
HETATM    3  H   UNL     1      39.893 -17.918   3.299  1.00  0.00     0.189 HD
HETATM    4  N   UNL     1      40.854 -17.965   5.088  1.00  0.00    -0.148 NA
HETATM    5  C   UNL     1      41.664 -17.054   5.610  1.00  0.00     0.199 A 
HETATM    6  C   UNL     1      41.810 -15.887   4.844  1.00  0.00     0.036 A 
HETATM    7  C   UNL     1      42.702 -14.760   5.299  1.00  0.00     0.079 A 
HETATM    8  C   UNL     1      43.446 -15.220   6.589  1.00  0.00     0.063 A 
HETATM    9  C   UNL     1      44.391 -14.212   7.224  1.00  0.00     0.020 C 
HETATM   10  N   UNL     1      45.174 -13.376   7.751  1.00  0.00    -0.096 N 
HETATM   11  C   UNL     1      43.222 -16.395   7.230  1.00  0.00     0.139 A 
HETATM   12  O   UNL     1      42.296 -17.327   6.763  1.00  0.00    -0.277 OA
ENDROOT
BRANCH   7  13
HETATM   13  C   UNL     1      41.991 -13.344   5.502  1.00  0.00     0.022 C 
HETATM   14  C   UNL     1      40.547 -13.380   5.960  1.00  0.00    -0.025 C 
HETATM   15  C   UNL     1      39.514 -12.836   5.300  1.00  0.00    -0.030 C 
HETATM   16  C   UNL     1      39.676 -12.042   4.046  1.00  0.00     0.027 C 
HETATM   17  C   UNL     1      41.061 -11.419   4.000  1.00  0.00     0.004 C 
HETATM   18  C   UNL     1      42.146 -12.472   4.214  1.00  0.00     0.010 C 
ENDBRANCH   7  13
BRANCH  11  19
HETATM   19  N   UNL     1      43.836 -16.797   8.395  1.00  0.00    -0.282 NA
HETATM   20  H   UNL     1      44.665 -16.277   8.671  1.00  0.00     0.126 HD
HETATM   21  H   UNL     1      43.167 -16.918   9.153  1.00  0.00     0.126 HD
ENDBRANCH  11  19
BRANCH   1  22
HETATM   22  C   UNL     1      40.828 -15.432   2.456  1.00  0.00    -0.007 A 
HETATM   23  C   UNL     1      41.905 -15.080   1.627  1.00  0.00     0.014 A 
HETATM   24  C   UNL     1      41.685 -14.403   0.425  1.00  0.00     0.001 A 
HETATM   25  C   UNL     1      40.389 -14.067   0.046  1.00  0.00     0.000 A 
HETATM   26  C   UNL     1      39.313 -14.405   0.866  1.00  0.00     0.001 A 
HETATM   27  C   UNL     1      39.530 -15.086   2.066  1.00  0.00     0.014 A 
ENDBRANCH   1  22
TORSDOF 3
ENDMDL
MODEL 10
REMARK VINA RESULT:      -8.2      4.450      6.785
REMARK  3 active torsions:
REMARK  status: ('A' for Active; 'I' for Inactive)
REMARK    1  A    between atoms: C_4  and  C_5 
REMARK    2  A    between atoms: C_11  and  C_12 
REMARK    3  A    between atoms: C_21  and  N_22 
ROOT
HETATM    1  C   UNL     1      41.135 -15.543   0.527  1.00  0.00     0.071 A 
HETATM    2  N   UNL     1      41.437 -16.884   0.656  1.00  0.00    -0.274 N 
HETATM    3  H   UNL     1      41.795 -17.504  -0.062  1.00  0.00     0.189 HD
HETATM    4  N   UNL     1      41.265 -17.372   1.895  1.00  0.00    -0.148 NA
HETATM    5  C   UNL     1      40.841 -16.307   2.561  1.00  0.00     0.199 A 
HETATM    6  C   UNL     1      40.684 -15.150   1.783  1.00  0.00     0.036 A 
HETATM    7  C   UNL     1      40.216 -13.854   2.396  1.00  0.00     0.079 A 
HETATM    8  C   UNL     1      40.114 -14.055   3.938  1.00  0.00     0.063 A 
HETATM    9  C   UNL     1      39.637 -12.860   4.749  1.00  0.00     0.020 C 
HETATM   10  N   UNL     1      39.242 -11.869   5.421  1.00  0.00    -0.096 N 
HETATM   11  C   UNL     1      40.309 -15.237   4.575  1.00  0.00     0.139 A 
HETATM   12  O   UNL     1      40.651 -16.400   3.887  1.00  0.00    -0.277 OA
ENDROOT
BRANCH   7  13
HETATM   13  C   UNL     1      38.871 -13.240   1.791  1.00  0.00     0.022 C 
HETATM   14  C   UNL     1      38.040 -14.169   0.930  1.00  0.00    -0.025 C 
HETATM   15  C   UNL     1      37.699 -13.940  -0.347  1.00  0.00    -0.030 C 
HETATM   16  C   UNL     1      38.038 -12.675  -1.066  1.00  0.00     0.027 C 
HETATM   17  C   UNL     1      38.193 -11.537  -0.071  1.00  0.00     0.004 C 
HETATM   18  C   UNL     1      39.176 -11.905   1.038  1.00  0.00     0.010 C 
ENDBRANCH   7  13
BRANCH  11  19
HETATM   19  N   UNL     1      40.179 -15.443   5.930  1.00  0.00    -0.282 NA
HETATM   20  H   UNL     1      39.661 -16.270   6.214  1.00  0.00     0.126 HD
HETATM   21  H   UNL     1      41.069 -15.341   6.416  1.00  0.00     0.126 HD
ENDBRANCH  11  19
BRANCH   1  22
HETATM   22  C   UNL     1      41.319 -14.845  -0.741  1.00  0.00    -0.007 A 
HETATM   23  C   UNL     1      40.911 -15.444  -1.943  1.00  0.00     0.014 A 
HETATM   24  C   UNL     1      41.063 -14.776  -3.159  1.00  0.00     0.001 A 
HETATM   25  C   UNL     1      41.630 -13.505  -3.186  1.00  0.00     0.000 A 
HETATM   26  C   UNL     1      42.046 -12.903  -2.000  1.00  0.00     0.001 A 
HETATM   27  C   UNL     1      41.891 -13.569  -0.781  1.00  0.00     0.014 A 
ENDBRANCH   1  22
TORSDOF 3
ENDMDL
