MODEL 1
REMARK VINA RESULT:      -8.7      0.000      0.000
REMARK  6 active torsions:
REMARK  status: ('A' for Active; 'I' for Inactive)
REMARK    1  A    between atoms: C_5  and  C_6 
REMARK    2  A    between atoms: C_6  and  N_7 
REMARK    3  A    between atoms: C_6  and  C_11 
REMARK       I    between atoms: N_7  and  C_8 
REMARK    4  A    between atoms: C_11  and  C_12 
REMARK       I    between atoms: C_12  and  N_13 
REMARK    5  A    between atoms: N_13  and  C_14 
REMARK    6  A    between atoms: C_16  and  C_17 
ROOT
HETATM    1  C   UNL     1      43.467 -15.803   6.691  1.00  0.00     0.224 C 
HETATM    2  N   UNL     1      43.619 -14.434   6.564  1.00  0.00    -0.327 N 
HETATM    3  O   UNL     1      43.917 -16.510   7.587  1.00  0.00    -0.273 OA
HETATM    4  H   UNL     1      43.064 -13.982   5.846  1.00  0.00     0.169 HD
ENDROOT
BRANCH   1   5
HETATM    5  C   UNL     1      42.604 -16.407   5.601  1.00  0.00     0.133 C 
BRANCH   5   6
HETATM    6  C   UNL     1      43.354 -16.384   4.264  1.00  0.00     0.126 C 
BRANCH   6   7
HETATM    7  C   UNL     1      43.579 -17.772   3.678  1.00  0.00    -0.035 A 
HETATM    8  C   UNL     1      43.202 -18.037   2.352  1.00  0.00     0.010 A 
HETATM    9  C   UNL     1      43.426 -19.294   1.782  1.00  0.00     0.007 A 
HETATM   10  C   UNL     1      44.034 -20.311   2.522  1.00  0.00    -0.062 A 
HETATM   11  C   UNL     1      44.263 -21.668   1.925  1.00  0.00     0.048 C 
HETATM   12  C   UNL     1      44.404 -20.056   3.846  1.00  0.00     0.007 A 
HETATM   13  C   UNL     1      44.181 -18.800   4.416  1.00  0.00     0.010 A 
ENDBRANCH   6   7
BRANCH   6  14
HETATM   14  N   UNL     1      42.784 -15.483   3.262  1.00  0.00    -0.352 N 
HETATM   15  C   UNL     1      43.195 -14.191   3.032  1.00  0.00     0.214 C 
HETATM   16  C   UNL     1      42.362 -13.459   2.014  1.00  0.00     0.117 C 
HETATM   17  O   UNL     1      44.143 -13.653   3.595  1.00  0.00    -0.274 OA
HETATM   18  H   UNL     1      41.886 -15.759   2.888  1.00  0.00     0.163 HD
ENDBRANCH   6  14
ENDBRANCH   5   6
ENDBRANCH   1   5
BRANCH   2  19
HETATM   19  C   UNL     1      44.393 -13.574   7.371  1.00  0.00     0.035 A 
HETATM   20  C   UNL     1      43.912 -12.934   8.517  1.00  0.00     0.042 A 
HETATM   21  C   UNL     1      44.741 -12.099   9.286  1.00  0.00    -0.021 A 
HETATM   22  C   UNL     1      46.073 -11.920   8.888  1.00  0.00     0.012 A 
HETATM   23  C   UNL     1      46.563 -12.558   7.748  1.00  0.00     0.003 A 
HETATM   24  C   UNL     1      45.727 -13.381   6.995  1.00  0.00     0.029 A 
BRANCH  21  25
HETATM   25  C   UNL     1      44.243 -11.433  10.483  1.00  0.00     0.010 A 
HETATM   26  C   UNL     1      44.066 -10.059  10.775  1.00  0.00     0.152 A 
HETATM   27  N   UNL     1      43.566  -9.845  11.995  1.00  0.00    -0.187 NA
HETATM   28  N   UNL     1      43.425 -11.083  12.495  1.00  0.00    -0.289 N 
HETATM   29  H   UNL     1      43.056 -11.185  13.435  1.00  0.00     0.188 HD
HETATM   30  C   UNL     1      43.808 -12.065  11.629  1.00  0.00     0.123 A 
ENDBRANCH  21  25
ENDBRANCH   2  19
TORSDOF 6
ENDMDL
MODEL 2
REMARK VINA RESULT:      -8.6      3.633      8.124
REMARK  6 active torsions:
REMARK  status: ('A' for Active; 'I' for Inactive)
REMARK    1  A    between atoms: C_5  and  C_6 
REMARK    2  A    between atoms: C_6  and  N_7 
REMARK    3  A    between atoms: C_6  and  C_11 
REMARK       I    between atoms: N_7  and  C_8 
REMARK    4  A    between atoms: C_11  and  C_12 
REMARK       I    between atoms: C_12  and  N_13 
REMARK    5  A    between atoms: N_13  and  C_14 
REMARK    6  A    between atoms: C_16  and  C_17 
ROOT
HETATM    1  C   UNL     1      40.952 -16.008   4.493  1.00  0.00     0.224 C 
HETATM    2  N   UNL     1      40.387 -16.322   3.270  1.00  0.00    -0.327 N 
HETATM    3  O   UNL     1      41.223 -14.886   4.909  1.00  0.00    -0.273 OA
HETATM    4  H   UNL     1      40.095 -17.284   3.140  1.00  0.00     0.169 HD
ENDROOT
BRANCH   1   5
HETATM    5  C   UNL     1      41.184 -17.224   5.368  1.00  0.00     0.133 C 
BRANCH   5   6
HETATM    6  C   UNL     1      42.687 -17.477   5.529  1.00  0.00     0.126 C 
BRANCH   6   7
HETATM    7  C   UNL     1      43.228 -18.513   4.553  1.00  0.00    -0.035 A 
HETATM    8  C   UNL     1      44.134 -19.487   5.003  1.00  0.00     0.010 A 
HETATM    9  C   UNL     1      44.621 -20.468   4.134  1.00  0.00     0.007 A 
HETATM   10  C   UNL     1      44.211 -20.500   2.799  1.00  0.00    -0.062 A 
HETATM   11  C   UNL     1      44.741 -21.538   1.854  1.00  0.00     0.048 C 
HETATM   12  C   UNL     1      43.316 -19.528   2.342  1.00  0.00     0.007 A 
HETATM   13  C   UNL     1      42.828 -18.548   3.210  1.00  0.00     0.010 A 
ENDBRANCH   6   7
BRANCH   6  14
HETATM   14  N   UNL     1      43.512 -16.269   5.515  1.00  0.00    -0.352 N 
HETATM   15  C   UNL     1      43.995 -15.625   6.629  1.00  0.00     0.214 C 
HETATM   16  C   UNL     1      44.728 -14.346   6.325  1.00  0.00     0.117 C 
HETATM   17  O   UNL     1      43.851 -16.026   7.780  1.00  0.00    -0.274 OA
HETATM   18  H   UNL     1      43.523 -15.759   4.642  1.00  0.00     0.163 HD
ENDBRANCH   6  14
ENDBRANCH   5   6
ENDBRANCH   1   5
BRANCH   2  19
HETATM   19  C   UNL     1      40.090 -15.444   2.207  1.00  0.00     0.035 A 
HETATM   20  C   UNL     1      40.694 -15.508   0.948  1.00  0.00     0.042 A 
HETATM   21  C   UNL     1      40.343 -14.611  -0.075  1.00  0.00    -0.021 A 
HETATM   22  C   UNL     1      39.363 -13.643   0.186  1.00  0.00     0.012 A 
HETATM   23  C   UNL     1      38.752 -13.572   1.438  1.00  0.00     0.003 A 
HETATM   24  C   UNL     1      39.114 -14.470   2.442  1.00  0.00     0.029 A 
BRANCH  21  25
HETATM   25  C   UNL     1      40.968 -14.678  -1.389  1.00  0.00     0.010 A 
HETATM   26  C   UNL     1      40.834 -15.624  -2.434  1.00  0.00     0.152 A 
HETATM   27  N   UNL     1      41.577 -15.329  -3.505  1.00  0.00    -0.187 NA
HETATM   28  N   UNL     1      42.196 -14.192  -3.149  1.00  0.00    -0.289 N 
HETATM   29  H   UNL     1      42.833 -13.762  -3.812  1.00  0.00     0.188 HD
HETATM   30  C   UNL     1      41.861 -13.759  -1.900  1.00  0.00     0.123 A 
ENDBRANCH  21  25
ENDBRANCH   2  19
TORSDOF 6
ENDMDL
MODEL 3
REMARK VINA RESULT:      -8.6      2.539      7.955
REMARK  6 active torsions:
REMARK  status: ('A' for Active; 'I' for Inactive)
REMARK    1  A    between atoms: C_5  and  C_6 
REMARK    2  A    between atoms: C_6  and  N_7 
REMARK    3  A    between atoms: C_6  and  C_11 
REMARK       I    between atoms: N_7  and  C_8 
REMARK    4  A    between atoms: C_11  and  C_12 
REMARK       I    between atoms: C_12  and  N_13 
REMARK    5  A    between atoms: N_13  and  C_14 
REMARK    6  A    between atoms: C_16  and  C_17 
ROOT
HETATM    1  C   UNL     1      43.435 -14.407   4.328  1.00  0.00     0.224 C 
HETATM    2  N   UNL     1      42.774 -15.603   4.113  1.00  0.00    -0.327 N 
HETATM    3  O   UNL     1      44.297 -13.908   3.611  1.00  0.00    -0.273 OA
HETATM    4  H   UNL     1      41.989 -15.802   4.723  1.00  0.00     0.169 HD
ENDROOT
BRANCH   1   5
HETATM    5  C   UNL     1      42.955 -13.679   5.567  1.00  0.00     0.133 C 
BRANCH   5   6
HETATM    6  C   UNL     1      43.723 -14.173   6.799  1.00  0.00     0.126 C 
BRANCH   6   7
HETATM    7  C   UNL     1      43.775 -15.691   6.903  1.00  0.00    -0.035 A 
HETATM    8  C   UNL     1      42.615 -16.406   7.243  1.00  0.00     0.010 A 
HETATM    9  C   UNL     1      42.629 -17.802   7.315  1.00  0.00     0.007 A 
HETATM   10  C   UNL     1      43.801 -18.514   7.047  1.00  0.00    -0.062 A 
HETATM   11  C   UNL     1      43.831 -20.011   7.138  1.00  0.00     0.048 C 
HETATM   12  C   UNL     1      44.962 -17.809   6.716  1.00  0.00     0.007 A 
HETATM   13  C   UNL     1      44.948 -16.413   6.643  1.00  0.00     0.010 A 
ENDBRANCH   6   7
BRANCH   6  14
HETATM   14  N   UNL     1      45.058 -13.595   6.955  1.00  0.00    -0.352 N 
HETATM   15  C   UNL     1      45.509 -12.931   8.071  1.00  0.00     0.214 C 
HETATM   16  C   UNL     1      46.889 -12.348   7.918  1.00  0.00     0.117 C 
HETATM   17  O   UNL     1      44.866 -12.799   9.107  1.00  0.00    -0.274 OA
HETATM   18  H   UNL     1      45.586 -13.481   6.100  1.00  0.00     0.163 HD
ENDBRANCH   6  14
ENDBRANCH   5   6
ENDBRANCH   1   5
BRANCH   2  19
HETATM   19  C   UNL     1      43.008 -16.546   3.091  1.00  0.00     0.035 A 
HETATM   20  C   UNL     1      43.384 -17.872   3.321  1.00  0.00     0.042 A 
HETATM   21  C   UNL     1      43.589 -18.767   2.256  1.00  0.00    -0.021 A 
HETATM   22  C   UNL     1      43.401 -18.307   0.945  1.00  0.00     0.012 A 
HETATM   23  C   UNL     1      43.022 -16.986   0.705  1.00  0.00     0.003 A 
HETATM   24  C   UNL     1      42.826 -16.111   1.773  1.00  0.00     0.029 A 
BRANCH  21  25
HETATM   25  C   UNL     1      43.978 -20.150   2.493  1.00  0.00     0.010 A 
HETATM   26  C   UNL     1      43.813 -21.311   1.699  1.00  0.00     0.152 A 
HETATM   27  N   UNL     1      44.323 -22.408   2.267  1.00  0.00    -0.187 NA
HETATM   28  N   UNL     1      44.813 -21.957   3.432  1.00  0.00    -0.289 N 
HETATM   29  H   UNL     1      45.259 -22.620   4.057  1.00  0.00     0.188 HD
HETATM   30  C   UNL     1      44.639 -20.616   3.611  1.00  0.00     0.123 A 
ENDBRANCH  21  25
ENDBRANCH   2  19
TORSDOF 6
ENDMDL
MODEL 4
REMARK VINA RESULT:      -8.3      5.973      9.203
REMARK  6 active torsions:
REMARK  status: ('A' for Active; 'I' for Inactive)
REMARK    1  A    between atoms: C_5  and  C_6 
REMARK    2  A    between atoms: C_6  and  N_7 
REMARK    3  A    between atoms: C_6  and  C_11 
REMARK       I    between atoms: N_7  and  C_8 
REMARK    4  A    between atoms: C_11  and  C_12 
REMARK       I    between atoms: C_12  and  N_13 
REMARK    5  A    between atoms: N_13  and  C_14 
REMARK    6  A    between atoms: C_16  and  C_17 
ROOT
HETATM    1  C   UNL     1      41.473 -16.587   0.575  1.00  0.00     0.224 C 
HETATM    2  N   UNL     1      42.781 -16.834   0.951  1.00  0.00    -0.327 N 
HETATM    3  O   UNL     1      40.465 -16.817   1.236  1.00  0.00    -0.273 OA
HETATM    4  H   UNL     1      43.504 -16.453   0.351  1.00  0.00     0.169 HD
ENDROOT
BRANCH   1   5
HETATM    5  C   UNL     1      41.362 -15.920  -0.781  1.00  0.00     0.133 C 
BRANCH   5   6
HETATM    6  C   UNL     1      40.787 -14.507  -0.626  1.00  0.00     0.126 C 
BRANCH   6   7
HETATM    7  C   UNL     1      41.189 -13.569  -1.755  1.00  0.00    -0.035 A 
HETATM    8  C   UNL     1      40.260 -13.245  -2.757  1.00  0.00     0.010 A 
HETATM    9  C   UNL     1      40.595 -12.361  -3.787  1.00  0.00     0.007 A 
HETATM   10  C   UNL     1      41.864 -11.779  -3.837  1.00  0.00    -0.062 A 
HETATM   11  C   UNL     1      42.240 -10.843  -4.947  1.00  0.00     0.048 C 
HETATM   12  C   UNL     1      42.798 -12.103  -2.848  1.00  0.00     0.007 A 
HETATM   13  C   UNL     1      42.463 -12.986  -1.817  1.00  0.00     0.010 A 
ENDBRANCH   6   7
BRANCH   6  14
HETATM   14  N   UNL     1      39.342 -14.461  -0.401  1.00  0.00    -0.352 N 
HETATM   15  C   UNL     1      38.728 -13.918   0.702  1.00  0.00     0.214 C 
HETATM   16  C   UNL     1      37.233 -14.102   0.721  1.00  0.00     0.117 C 
HETATM   17  O   UNL     1      39.315 -13.339   1.609  1.00  0.00    -0.274 OA
HETATM   18  H   UNL     1      38.790 -15.075  -0.986  1.00  0.00     0.163 HD
ENDBRANCH   6  14
ENDBRANCH   5   6
ENDBRANCH   1   5
BRANCH   2  19
HETATM   19  C   UNL     1      43.235 -17.483   2.118  1.00  0.00     0.035 A 
HETATM   20  C   UNL     1      43.561 -18.841   2.182  1.00  0.00     0.042 A 
HETATM   21  C   UNL     1      44.021 -19.425   3.375  1.00  0.00    -0.021 A 
HETATM   22  C   UNL     1      44.157 -18.615   4.511  1.00  0.00     0.012 A 
HETATM   23  C   UNL     1      43.838 -17.258   4.458  1.00  0.00     0.003 A 
HETATM   24  C   UNL     1      43.380 -16.696   3.266  1.00  0.00     0.029 A 
BRANCH  21  25
HETATM   25  C   UNL     1      44.364 -20.839   3.442  1.00  0.00     0.010 A 
HETATM   26  C   UNL     1      44.374 -21.841   2.441  1.00  0.00     0.152 A 
HETATM   27  N   UNL     1      44.765 -23.033   2.900  1.00  0.00    -0.187 NA
HETATM   28  N   UNL     1      45.003 -22.803   4.201  1.00  0.00    -0.289 N 
HETATM   29  H   UNL     1      45.317 -23.576   4.778  1.00  0.00     0.188 HD
HETATM   30  C   UNL     1      44.786 -21.508   4.572  1.00  0.00     0.123 A 
ENDBRANCH  21  25
ENDBRANCH   2  19
TORSDOF 6
ENDMDL
MODEL 5
REMARK VINA RESULT:      -8.3      4.244      8.859
REMARK  6 active torsions:
REMARK  status: ('A' for Active; 'I' for Inactive)
REMARK    1  A    between atoms: C_5  and  C_6 
REMARK    2  A    between atoms: C_6  and  N_7 
REMARK    3  A    between atoms: C_6  and  C_11 
REMARK       I    between atoms: N_7  and  C_8 
REMARK    4  A    between atoms: C_11  and  C_12 
REMARK       I    between atoms: C_12  and  N_13 
REMARK    5  A    between atoms: N_13  and  C_14 
REMARK    6  A    between atoms: C_16  and  C_17 
ROOT
HETATM    1  C   UNL     1      42.094 -15.293   2.980  1.00  0.00     0.224 C 
HETATM    2  N   UNL     1      42.371 -14.804   1.716  1.00  0.00    -0.327 N 
HETATM    3  O   UNL     1      40.992 -15.353   3.516  1.00  0.00    -0.273 OA
HETATM    4  H   UNL     1      43.311 -14.958   1.367  1.00  0.00     0.169 HD
ENDROOT
BRANCH   1   5
HETATM    5  C   UNL     1      43.319 -15.836   3.687  1.00  0.00     0.133 C 
BRANCH   5   6
HETATM    6  C   UNL     1      42.963 -17.118   4.448  1.00  0.00     0.126 C 
BRANCH   6   7
HETATM    7  C   UNL     1      43.376 -18.386   3.713  1.00  0.00    -0.035 A 
HETATM    8  C   UNL     1      44.309 -19.257   4.297  1.00  0.00     0.010 A 
HETATM    9  C   UNL     1      44.681 -20.442   3.656  1.00  0.00     0.007 A 
HETATM   10  C   UNL     1      44.126 -20.785   2.420  1.00  0.00    -0.062 A 
HETATM   11  C   UNL     1      44.531 -22.047   1.717  1.00  0.00     0.048 C 
HETATM   12  C   UNL     1      43.203 -19.919   1.829  1.00  0.00     0.007 A 
HETATM   13  C   UNL     1      42.830 -18.734   2.469  1.00  0.00     0.010 A 
ENDBRANCH   6   7
BRANCH   6  14
HETATM   14  N   UNL     1      43.422 -17.149   5.836  1.00  0.00    -0.352 N 
HETATM   15  C   UNL     1      42.610 -17.059   6.942  1.00  0.00     0.214 C 
HETATM   16  C   UNL     1      43.360 -17.012   8.247  1.00  0.00     0.117 C 
HETATM   17  O   UNL     1      41.385 -17.011   6.903  1.00  0.00    -0.274 OA
HETATM   18  H   UNL     1      44.412 -16.992   5.972  1.00  0.00     0.163 HD
ENDBRANCH   6  14
ENDBRANCH   5   6
ENDBRANCH   1   5
BRANCH   2  19
HETATM   19  C   UNL     1      41.478 -14.186   0.816  1.00  0.00     0.035 A 
HETATM   20  C   UNL     1      41.034 -14.774  -0.372  1.00  0.00     0.042 A 
HETATM   21  C   UNL     1      40.131 -14.110  -1.221  1.00  0.00    -0.021 A 
HETATM   22  C   UNL     1      39.672 -12.838  -0.851  1.00  0.00     0.012 A 
HETATM   23  C   UNL     1      40.107 -12.244   0.334  1.00  0.00     0.003 A 
HETATM   24  C   UNL     1      41.005 -12.916   1.162  1.00  0.00     0.029 A 
BRANCH  21  25
HETATM   25  C   UNL     1      39.664 -14.722  -2.457  1.00  0.00     0.010 A 
HETATM   26  C   UNL     1      40.197 -15.786  -3.226  1.00  0.00     0.152 A 
HETATM   27  N   UNL     1      39.463 -16.068  -4.306  1.00  0.00    -0.187 NA
HETATM   28  N   UNL     1      38.457 -15.182  -4.238  1.00  0.00    -0.289 N 
HETATM   29  H   UNL     1      37.752 -15.195  -4.968  1.00  0.00     0.188 HD
HETATM   30  C   UNL     1      38.528 -14.362  -3.151  1.00  0.00     0.123 A 
ENDBRANCH  21  25
ENDBRANCH   2  19
TORSDOF 6
ENDMDL
MODEL 6
REMARK VINA RESULT:      -8.2      4.365      7.557
REMARK  6 active torsions:
REMARK  status: ('A' for Active; 'I' for Inactive)
REMARK    1  A    between atoms: C_5  and  C_6 
REMARK    2  A    between atoms: C_6  and  N_7 
REMARK    3  A    between atoms: C_6  and  C_11 
REMARK       I    between atoms: N_7  and  C_8 
REMARK    4  A    between atoms: C_11  and  C_12 
REMARK       I    between atoms: C_12  and  N_13 
REMARK    5  A    between atoms: N_13  and  C_14 
REMARK    6  A    between atoms: C_16  and  C_17 
ROOT
HETATM    1  C   UNL     1      41.075 -16.302   1.196  1.00  0.00     0.224 C 
HETATM    2  N   UNL     1      42.421 -16.544   1.401  1.00  0.00    -0.327 N 
HETATM    3  O   UNL     1      40.139 -16.778   1.832  1.00  0.00    -0.273 OA
HETATM    4  H   UNL     1      43.070 -15.962   0.883  1.00  0.00     0.169 HD
ENDROOT
BRANCH   1   5
HETATM    5  C   UNL     1      40.815 -15.301   0.088  1.00  0.00     0.133 C 
BRANCH   5   6
HETATM    6  C   UNL     1      41.761 -14.103   0.230  1.00  0.00     0.126 C 
BRANCH   6   7
HETATM    7  C   UNL     1      41.913 -13.303  -1.057  1.00  0.00    -0.035 A 
HETATM    8  C   UNL     1      42.567 -12.061  -1.032  1.00  0.00     0.010 A 
HETATM    9  C   UNL     1      42.746 -11.322  -2.205  1.00  0.00     0.007 A 
HETATM   10  C   UNL     1      42.279 -11.809  -3.428  1.00  0.00    -0.062 A 
HETATM   11  C   UNL     1      42.450 -11.016  -4.690  1.00  0.00     0.048 C 
HETATM   12  C   UNL     1      41.619 -13.041  -3.460  1.00  0.00     0.007 A 
HETATM   13  C   UNL     1      41.440 -13.781  -2.287  1.00  0.00     0.010 A 
ENDBRANCH   6   7
BRANCH   6  14
HETATM   14  N   UNL     1      41.462 -13.222   1.358  1.00  0.00    -0.352 N 
HETATM   15  C   UNL     1      42.219 -13.110   2.500  1.00  0.00     0.214 C 
HETATM   16  C   UNL     1      41.620 -12.205   3.543  1.00  0.00     0.117 C 
HETATM   17  O   UNL     1      43.284 -13.690   2.687  1.00  0.00    -0.274 OA
HETATM   18  H   UNL     1      40.520 -12.855   1.387  1.00  0.00     0.163 HD
ENDBRANCH   6  14
ENDBRANCH   5   6
ENDBRANCH   1   5
BRANCH   2  19
HETATM   19  C   UNL     1      43.005 -17.451   2.309  1.00  0.00     0.035 A 
HETATM   20  C   UNL     1      42.957 -17.306   3.699  1.00  0.00     0.042 A 
HETATM   21  C   UNL     1      43.548 -18.255   4.552  1.00  0.00    -0.021 A 
HETATM   22  C   UNL     1      44.188 -19.365   3.982  1.00  0.00     0.012 A 
HETATM   23  C   UNL     1      44.238 -19.521   2.597  1.00  0.00     0.003 A 
HETATM   24  C   UNL     1      43.648 -18.569   1.766  1.00  0.00     0.029 A 
BRANCH  21  25
HETATM   25  C   UNL     1      43.497 -18.107   6.000  1.00  0.00     0.010 A 
HETATM   26  C   UNL     1      43.031 -17.042   6.809  1.00  0.00     0.152 A 
HETATM   27  N   UNL     1      43.143 -17.293   8.116  1.00  0.00    -0.187 NA
HETATM   28  N   UNL     1      43.687 -18.519   8.153  1.00  0.00    -0.289 N 
HETATM   29  H   UNL     1      43.876 -18.936   9.058  1.00  0.00     0.188 HD
HETATM   30  C   UNL     1      43.911 -19.051   6.917  1.00  0.00     0.123 A 
ENDBRANCH  21  25
ENDBRANCH   2  19
TORSDOF 6
ENDMDL
MODEL 7
REMARK VINA RESULT:      -8.2      4.099      7.549
REMARK  6 active torsions:
REMARK  status: ('A' for Active; 'I' for Inactive)
REMARK    1  A    between atoms: C_5  and  C_6 
REMARK    2  A    between atoms: C_6  and  N_7 
REMARK    3  A    between atoms: C_6  and  C_11 
REMARK       I    between atoms: N_7  and  C_8 
REMARK    4  A    between atoms: C_11  and  C_12 
REMARK       I    between atoms: C_12  and  N_13 
REMARK    5  A    between atoms: N_13  and  C_14 
REMARK    6  A    between atoms: C_16  and  C_17 
ROOT
HETATM    1  C   UNL     1      41.569 -16.785   0.856  1.00  0.00     0.224 C 
HETATM    2  N   UNL     1      42.875 -17.062   1.219  1.00  0.00    -0.327 N 
HETATM    3  O   UNL     1      40.563 -16.990   1.528  1.00  0.00    -0.273 OA
HETATM    4  H   UNL     1      43.600 -16.699   0.611  1.00  0.00     0.169 HD
ENDROOT
BRANCH   1   5
HETATM    5  C   UNL     1      41.460 -16.117  -0.500  1.00  0.00     0.133 C 
BRANCH   5   6
HETATM    6  C   UNL     1      40.901 -14.698  -0.344  1.00  0.00     0.126 C 
BRANCH   6   7
HETATM    7  C   UNL     1      41.365 -13.747  -1.438  1.00  0.00    -0.035 A 
HETATM    8  C   UNL     1      40.850 -13.877  -2.738  1.00  0.00     0.010 A 
HETATM    9  C   UNL     1      41.236 -12.997  -3.753  1.00  0.00     0.007 A 
HETATM   10  C   UNL     1      42.142 -11.966  -3.491  1.00  0.00    -0.062 A 
HETATM   11  C   UNL     1      42.576 -11.027  -4.577  1.00  0.00     0.048 C 
HETATM   12  C   UNL     1      42.665 -11.835  -2.201  1.00  0.00     0.007 A 
HETATM   13  C   UNL     1      42.279 -12.715  -1.186  1.00  0.00     0.010 A 
ENDBRANCH   6   7
BRANCH   6  14
HETATM   14  N   UNL     1      39.450 -14.632  -0.177  1.00  0.00    -0.352 N 
HETATM   15  C   UNL     1      38.799 -14.068   0.895  1.00  0.00     0.214 C 
HETATM   16  C   UNL     1      37.303 -14.233   0.856  1.00  0.00     0.117 C 
HETATM   17  O   UNL     1      39.358 -13.485   1.818  1.00  0.00    -0.274 OA
HETATM   18  H   UNL     1      38.913 -15.246  -0.776  1.00  0.00     0.163 HD
ENDBRANCH   6  14
ENDBRANCH   5   6
ENDBRANCH   1   5
BRANCH   2  19
HETATM   19  C   UNL     1      43.325 -17.720   2.383  1.00  0.00     0.035 A 
HETATM   20  C   UNL     1      43.270 -17.166   3.665  1.00  0.00     0.042 A 
HETATM   21  C   UNL     1      43.723 -17.881   4.788  1.00  0.00    -0.021 A 
HETATM   22  C   UNL     1      44.231 -19.175   4.602  1.00  0.00     0.012 A 
HETATM   23  C   UNL     1      44.287 -19.738   3.327  1.00  0.00     0.003 A 
HETATM   24  C   UNL     1      43.835 -19.013   2.224  1.00  0.00     0.029 A 
BRANCH  21  25
HETATM   25  C   UNL     1      43.663 -17.307   6.126  1.00  0.00     0.010 A 
HETATM   26  C   UNL     1      43.632 -17.924   7.400  1.00  0.00     0.152 A 
HETATM   27  N   UNL     1      43.589 -17.044   8.404  1.00  0.00    -0.187 NA
HETATM   28  N   UNL     1      43.587 -15.857   7.778  1.00  0.00    -0.289 N 
HETATM   29  H   UNL     1      43.554 -15.013   8.342  1.00  0.00     0.188 HD
HETATM   30  C   UNL     1      43.637 -15.960   6.419  1.00  0.00     0.123 A 
ENDBRANCH  21  25
ENDBRANCH   2  19
TORSDOF 6
ENDMDL
MODEL 8
REMARK VINA RESULT:      -8.2      4.538      8.483
REMARK  6 active torsions:
REMARK  status: ('A' for Active; 'I' for Inactive)
REMARK    1  A    between atoms: C_5  and  C_6 
REMARK    2  A    between atoms: C_6  and  N_7 
REMARK    3  A    between atoms: C_6  and  C_11 
REMARK       I    between atoms: N_7  and  C_8 
REMARK    4  A    between atoms: C_11  and  C_12 
REMARK       I    between atoms: C_12  and  N_13 
REMARK    5  A    between atoms: N_13  and  C_14 
REMARK    6  A    between atoms: C_16  and  C_17 
ROOT
HETATM    1  C   UNL     1      42.004 -16.858   0.601  1.00  0.00     0.224 C 
HETATM    2  N   UNL     1      42.068 -15.785  -0.269  1.00  0.00    -0.327 N 
HETATM    3  O   UNL     1      41.022 -17.559   0.828  1.00  0.00    -0.273 OA
HETATM    4  H   UNL     1      42.990 -15.403  -0.450  1.00  0.00     0.169 HD
ENDROOT
BRANCH   1   5
HETATM    5  C   UNL     1      43.332 -17.165   1.262  1.00  0.00     0.133 C 
BRANCH   5   6
HETATM    6  C   UNL     1      43.149 -17.284   2.780  1.00  0.00     0.126 C 
BRANCH   6   7
HETATM    7  C   UNL     1      43.719 -18.574   3.354  1.00  0.00    -0.035 A 
HETATM    8  C   UNL     1      43.971 -18.671   4.731  1.00  0.00     0.010 A 
HETATM    9  C   UNL     1      44.465 -19.855   5.287  1.00  0.00     0.007 A 
HETATM   10  C   UNL     1      44.713 -20.968   4.480  1.00  0.00    -0.062 A 
HETATM   11  C   UNL     1      45.259 -22.238   5.063  1.00  0.00     0.048 C 
HETATM   12  C   UNL     1      44.472 -20.875   3.106  1.00  0.00     0.007 A 
HETATM   13  C   UNL     1      43.978 -19.692   2.550  1.00  0.00     0.010 A 
ENDBRANCH   6   7
BRANCH   6  14
HETATM   14  N   UNL     1      43.616 -16.125   3.541  1.00  0.00    -0.352 N 
HETATM   15  C   UNL     1      42.881 -14.990   3.789  1.00  0.00     0.214 C 
HETATM   16  C   UNL     1      43.647 -13.912   4.508  1.00  0.00     0.117 C 
HETATM   17  O   UNL     1      41.710 -14.835   3.459  1.00  0.00    -0.274 OA
HETATM   18  H   UNL     1      44.616 -16.072   3.686  1.00  0.00     0.163 HD
ENDBRANCH   6  14
ENDBRANCH   5   6
ENDBRANCH   1   5
BRANCH   2  19
HETATM   19  C   UNL     1      41.012 -15.206  -1.003  1.00  0.00     0.035 A 
HETATM   20  C   UNL     1      40.012 -14.409  -0.439  1.00  0.00     0.042 A 
HETATM   21  C   UNL     1      38.993 -13.849  -1.230  1.00  0.00    -0.021 A 
HETATM   22  C   UNL     1      38.998 -14.100  -2.609  1.00  0.00     0.012 A 
HETATM   23  C   UNL     1      39.994 -14.891  -3.183  1.00  0.00     0.003 A 
HETATM   24  C   UNL     1      40.996 -15.440  -2.383  1.00  0.00     0.029 A 
BRANCH  21  25
HETATM   25  C   UNL     1      37.952 -13.016  -0.645  1.00  0.00     0.010 A 
HETATM   26  C   UNL     1      37.297 -11.863  -1.141  1.00  0.00     0.152 A 
HETATM   27  N   UNL     1      36.377 -11.382  -0.300  1.00  0.00    -0.187 NA
HETATM   28  N   UNL     1      36.441 -12.224   0.744  1.00  0.00    -0.289 N 
HETATM   29  H   UNL     1      35.824 -12.061   1.534  1.00  0.00     0.188 HD
HETATM   30  C   UNL     1      37.359 -13.219   0.585  1.00  0.00     0.123 A 
ENDBRANCH  21  25
ENDBRANCH   2  19
TORSDOF 6
ENDMDL
MODEL 9
REMARK VINA RESULT:      -8.0      4.589      9.443
REMARK  6 active torsions:
REMARK  status: ('A' for Active; 'I' for Inactive)
REMARK    1  A    between atoms: C_5  and  C_6 
REMARK    2  A    between atoms: C_6  and  N_7 
REMARK    3  A    between atoms: C_6  and  C_11 
REMARK       I    between atoms: N_7  and  C_8 
REMARK    4  A    between atoms: C_11  and  C_12 
REMARK       I    between atoms: C_12  and  N_13 
REMARK    5  A    between atoms: N_13  and  C_14 
REMARK    6  A    between atoms: C_16  and  C_17 
ROOT
HETATM    1  C   UNL     1      41.610 -16.420   0.841  1.00  0.00     0.224 C 
HETATM    2  N   UNL     1      41.974 -15.673  -0.265  1.00  0.00    -0.327 N 
HETATM    3  O   UNL     1      40.542 -16.366   1.442  1.00  0.00    -0.273 OA
HETATM    4  H   UNL     1      42.835 -15.941  -0.729  1.00  0.00     0.169 HD
ENDROOT
BRANCH   1   5
HETATM    5  C   UNL     1      42.673 -17.417   1.258  1.00  0.00     0.133 C 
BRANCH   5   6
HETATM    6  C   UNL     1      42.807 -17.434   2.785  1.00  0.00     0.126 C 
BRANCH   6   7
HETATM    7  C   UNL     1      43.492 -18.687   3.314  1.00  0.00    -0.035 A 
HETATM    8  C   UNL     1      43.755 -18.810   4.687  1.00  0.00     0.010 A 
HETATM    9  C   UNL     1      44.355 -19.964   5.201  1.00  0.00     0.007 A 
HETATM   10  C   UNL     1      44.701 -21.020   4.355  1.00  0.00    -0.062 A 
HETATM   11  C   UNL     1      45.360 -22.256   4.893  1.00  0.00     0.048 C 
HETATM   12  C   UNL     1      44.449 -20.901   2.985  1.00  0.00     0.007 A 
HETATM   13  C   UNL     1      43.850 -19.748   2.470  1.00  0.00     0.010 A 
ENDBRANCH   6   7
BRANCH   6  14
HETATM   14  N   UNL     1      43.413 -16.230   3.354  1.00  0.00    -0.352 N 
HETATM   15  C   UNL     1      42.755 -15.294   4.116  1.00  0.00     0.214 C 
HETATM   16  C   UNL     1      43.598 -14.103   4.483  1.00  0.00     0.117 C 
HETATM   17  O   UNL     1      41.585 -15.388   4.473  1.00  0.00    -0.274 OA
HETATM   18  H   UNL     1      44.308 -15.965   2.963  1.00  0.00     0.163 HD
ENDBRANCH   6  14
ENDBRANCH   5   6
ENDBRANCH   1   5
BRANCH   2  19
HETATM   19  C   UNL     1      41.248 -14.631  -0.878  1.00  0.00     0.035 A 
HETATM   20  C   UNL     1      40.187 -14.834  -1.765  1.00  0.00     0.042 A 
HETATM   21  C   UNL     1      39.494 -13.750  -2.333  1.00  0.00    -0.021 A 
HETATM   22  C   UNL     1      39.882 -12.448  -1.986  1.00  0.00     0.012 A 
HETATM   23  C   UNL     1      40.937 -12.235  -1.099  1.00  0.00     0.003 A 
HETATM   24  C   UNL     1      41.615 -13.322  -0.547  1.00  0.00     0.029 A 
BRANCH  21  25
HETATM   25  C   UNL     1      38.387 -13.959  -3.255  1.00  0.00     0.010 A 
HETATM   26  C   UNL     1      37.868 -15.145  -3.830  1.00  0.00     0.152 A 
HETATM   27  N   UNL     1      36.823 -14.923  -4.631  1.00  0.00    -0.187 NA
HETATM   28  N   UNL     1      36.668 -13.591  -4.578  1.00  0.00    -0.289 N 
HETATM   29  H   UNL     1      35.920 -13.170  -5.120  1.00  0.00     0.188 HD
HETATM   30  C   UNL     1      37.571 -12.971  -3.766  1.00  0.00     0.123 A 
ENDBRANCH  21  25
ENDBRANCH   2  19
TORSDOF 6
ENDMDL
MODEL 10
REMARK VINA RESULT:      -7.9      4.862      8.424
REMARK  6 active torsions:
REMARK  status: ('A' for Active; 'I' for Inactive)
REMARK    1  A    between atoms: C_5  and  C_6 
REMARK    2  A    between atoms: C_6  and  N_7 
REMARK    3  A    between atoms: C_6  and  C_11 
REMARK       I    between atoms: N_7  and  C_8 
REMARK    4  A    between atoms: C_11  and  C_12 
REMARK       I    between atoms: C_12  and  N_13 
REMARK    5  A    between atoms: N_13  and  C_14 
REMARK    6  A    between atoms: C_16  and  C_17 
ROOT
HETATM    1  C   UNL     1      41.848 -16.768   0.662  1.00  0.00     0.224 C 
HETATM    2  N   UNL     1      40.928 -15.938   0.048  1.00  0.00    -0.327 N 
HETATM    3  O   UNL     1      43.037 -16.881   0.380  1.00  0.00    -0.273 OA
HETATM    4  H   UNL     1      40.022 -15.857   0.494  1.00  0.00     0.169 HD
ENDROOT
BRANCH   1   5
HETATM    5  C   UNL     1      41.260 -17.547   1.822  1.00  0.00     0.133 C 
BRANCH   5   6
HETATM    6  C   UNL     1      42.041 -17.246   3.107  1.00  0.00     0.126 C 
BRANCH   6   7
HETATM    7  C   UNL     1      42.867 -18.426   3.598  1.00  0.00    -0.035 A 
HETATM    8  C   UNL     1      43.403 -19.335   2.671  1.00  0.00     0.010 A 
HETATM    9  C   UNL     1      44.191 -20.409   3.094  1.00  0.00     0.007 A 
HETATM   10  C   UNL     1      44.463 -20.597   4.452  1.00  0.00    -0.062 A 
HETATM   11  C   UNL     1      45.294 -21.757   4.918  1.00  0.00     0.048 C 
HETATM   12  C   UNL     1      43.926 -19.702   5.381  1.00  0.00     0.007 A 
HETATM   13  C   UNL     1      43.139 -18.627   4.958  1.00  0.00     0.010 A 
ENDBRANCH   6   7
BRANCH   6  14
HETATM   14  N   UNL     1      42.852 -16.029   3.054  1.00  0.00    -0.352 N 
HETATM   15  C   UNL     1      42.831 -15.021   3.988  1.00  0.00     0.214 C 
HETATM   16  C   UNL     1      43.691 -13.838   3.627  1.00  0.00     0.117 C 
HETATM   17  O   UNL     1      42.176 -15.047   5.024  1.00  0.00    -0.274 OA
HETATM   18  H   UNL     1      43.272 -15.824   2.157  1.00  0.00     0.163 HD
ENDBRANCH   6  14
ENDBRANCH   5   6
ENDBRANCH   1   5
BRANCH   2  19
HETATM   19  C   UNL     1      41.127 -15.120  -1.084  1.00  0.00     0.035 A 
HETATM   20  C   UNL     1      41.663 -13.830  -1.033  1.00  0.00     0.042 A 
HETATM   21  C   UNL     1      41.849 -13.071  -2.202  1.00  0.00    -0.021 A 
HETATM   22  C   UNL     1      41.491 -13.635  -3.434  1.00  0.00     0.012 A 
HETATM   23  C   UNL     1      40.959 -14.923  -3.497  1.00  0.00     0.003 A 
HETATM   24  C   UNL     1      40.779 -15.661  -2.327  1.00  0.00     0.029 A 
BRANCH  21  25
HETATM   25  C   UNL     1      42.410 -11.727  -2.150  1.00  0.00     0.010 A 
HETATM   26  C   UNL     1      42.328 -10.651  -3.067  1.00  0.00     0.152 A 
HETATM   27  N   UNL     1      42.977  -9.561  -2.651  1.00  0.00    -0.187 NA
HETATM   28  N   UNL     1      43.484  -9.934  -1.465  1.00  0.00    -0.289 N 
HETATM   29  H   UNL     1      44.034  -9.260  -0.942  1.00  0.00     0.188 HD
HETATM   30  C   UNL     1      43.168 -11.214  -1.118  1.00  0.00     0.123 A 
ENDBRANCH  21  25
ENDBRANCH   2  19
TORSDOF 6
ENDMDL
