MODEL 1
REMARK VINA RESULT:      -8.8      0.000      0.000
REMARK  7 active torsions:
REMARK  status: ('A' for Active; 'I' for Inactive)
REMARK    1  A    between atoms: O_2  and  C_3 
REMARK    2  A    between atoms: C_4  and  N_5 
REMARK    3  A    between atoms: N_5  and  C_6 
REMARK    4  A    between atoms: C_6  and  C_7 
REMARK       I    between atoms: C_7  and  N_8 
REMARK    5  A    between atoms: N_8  and  N_9 
REMARK       I    between atoms: N_9  and  C_10 
REMARK    6  A    between atoms: C_10  and  C_11 
REMARK    7  A    between atoms: N_13  and  C_14 
ROOT
HETATM    1  N   UNL     1      44.095 -14.522   7.630  1.00  0.00    -0.263 N 
HETATM    2  C   UNL     1      45.098 -13.581   7.439  1.00  0.00     0.273 C 
HETATM    3  O   UNL     1      45.976 -13.650   6.587  1.00  0.00    -0.266 OA
HETATM    4  H   UNL     1      43.653 -14.564   8.543  1.00  0.00     0.190 HD
ENDROOT
BRANCH   1   5
HETATM    5  N   UNL     1      44.170 -15.743   6.943  1.00  0.00    -0.266 N 
HETATM    6  C   UNL     1      43.732 -16.897   7.585  1.00  0.00     0.249 C 
HETATM    7  O   UNL     1      43.481 -16.979   8.784  1.00  0.00    -0.270 OA
HETATM    8  H   UNL     1      44.004 -15.721   5.935  1.00  0.00     0.190 HD
BRANCH   6   9
HETATM    9  C   UNL     1      43.571 -18.062   6.605  1.00  0.00     0.197 C 
BRANCH   9  10
HETATM   10  N   UNL     1      42.712 -17.655   5.483  1.00  0.00    -0.282 NA
HETATM   11  H   UNL     1      42.230 -16.764   5.621  1.00  0.00     0.128 HD
BRANCH  10  12
HETATM   12  C   UNL     1      43.199 -17.704   4.161  1.00  0.00     0.042 A 
HETATM   13  C   UNL     1      43.334 -16.489   3.446  1.00  0.00     0.089 A 
HETATM   14  C   UNL     1      43.760 -16.491   2.113  1.00  0.00     0.038 A 
HETATM   15  C   UNL     1      44.014 -17.696   1.459  1.00  0.00     0.003 A 
HETATM   16  C   UNL     1      43.841 -18.898   2.134  1.00  0.00     0.002 A 
HETATM   17  C   UNL     1      43.425 -18.902   3.467  1.00  0.00     0.026 A 
BRANCH  13  18
HETATM   18  O   UNL     1      43.059 -15.346   4.165  1.00  0.00    -0.354 OA
HETATM   19  C   UNL     1      43.620 -14.141   3.655  1.00  0.00     0.210 C 
ENDBRANCH  13  18
ENDBRANCH  10  12
ENDBRANCH   9  10
ENDBRANCH   6   9
ENDBRANCH   1   5
BRANCH   2  20
HETATM   20  C   UNL     1      45.012 -12.478   8.377  1.00  0.00     0.070 A 
HETATM   21  C   UNL     1      43.906 -12.096   9.109  1.00  0.00     0.137 A 
HETATM   22  N   UNL     1      44.263 -10.992   9.852  1.00  0.00    -0.244 N 
HETATM   23  N   UNL     1      45.576 -10.686   9.672  1.00  0.00    -0.179 NA
HETATM   24  C   UNL     1      46.011 -11.574   8.781  1.00  0.00     0.157 A 
BRANCH  22  25
HETATM   25  C   UNL     1      43.446 -10.195  10.699  1.00  0.00     0.059 A 
HETATM   26  C   UNL     1      43.721 -10.070  12.068  1.00  0.00     0.055 A 
HETATM   27  C   UNL     1      42.880  -9.299  12.872  1.00  0.00     0.036 A 
HETATM   28 CL   UNL     1      43.201  -9.168  14.559  1.00  0.00    -0.084 Cl
HETATM   29  C   UNL     1      41.777  -8.640  12.330  1.00  0.00     0.024 A 
HETATM   30  C   UNL     1      41.503  -8.756  10.969  1.00  0.00     0.004 A 
HETATM   31  C   UNL     1      42.330  -9.535  10.157  1.00  0.00     0.031 A 
ENDBRANCH  22  25
ENDBRANCH   2  20
TORSDOF 7
ENDMDL
MODEL 2
REMARK VINA RESULT:      -8.7      3.625     10.033
REMARK  7 active torsions:
REMARK  status: ('A' for Active; 'I' for Inactive)
REMARK    1  A    between atoms: O_2  and  C_3 
REMARK    2  A    between atoms: C_4  and  N_5 
REMARK    3  A    between atoms: N_5  and  C_6 
REMARK    4  A    between atoms: C_6  and  C_7 
REMARK       I    between atoms: C_7  and  N_8 
REMARK    5  A    between atoms: N_8  and  N_9 
REMARK       I    between atoms: N_9  and  C_10 
REMARK    6  A    between atoms: C_10  and  C_11 
REMARK    7  A    between atoms: N_13  and  C_14 
ROOT
HETATM    1  N   UNL     1      44.302 -15.004   6.650  1.00  0.00    -0.263 N 
HETATM    2  C   UNL     1      43.201 -14.860   5.818  1.00  0.00     0.273 C 
HETATM    3  O   UNL     1      42.411 -13.924   5.849  1.00  0.00    -0.266 OA
HETATM    4  H   UNL     1      44.672 -15.939   6.790  1.00  0.00     0.190 HD
ENDROOT
BRANCH   1   5
HETATM    5  N   UNL     1      44.447 -14.133   7.741  1.00  0.00    -0.266 N 
HETATM    6  C   UNL     1      45.431 -13.150   7.682  1.00  0.00     0.249 C 
HETATM    7  O   UNL     1      46.330 -13.108   6.848  1.00  0.00    -0.270 OA
HETATM    8  H   UNL     1      43.596 -13.863   8.237  1.00  0.00     0.190 HD
BRANCH   6   9
HETATM    9  C   UNL     1      45.241 -12.097   8.777  1.00  0.00     0.197 C 
BRANCH   9  10
HETATM   10  N   UNL     1      43.848 -12.111   9.248  1.00  0.00    -0.282 NA
HETATM   11  H   UNL     1      43.500 -13.036   9.512  1.00  0.00     0.128 HD
BRANCH  10  12
HETATM   12  C   UNL     1      43.413 -11.175  10.208  1.00  0.00     0.042 A 
HETATM   13  C   UNL     1      42.368 -10.284   9.857  1.00  0.00     0.089 A 
HETATM   14  C   UNL     1      41.941  -9.300  10.755  1.00  0.00     0.038 A 
HETATM   15  C   UNL     1      42.569  -9.158  11.992  1.00  0.00     0.003 A 
HETATM   16  C   UNL     1      43.626  -9.993  12.331  1.00  0.00     0.002 A 
HETATM   17  C   UNL     1      44.052 -10.984  11.442  1.00  0.00     0.026 A 
BRANCH  13  18
HETATM   18  O   UNL     1      41.806 -10.491   8.617  1.00  0.00    -0.354 OA
HETATM   19  C   UNL     1      40.397 -10.694   8.599  1.00  0.00     0.210 C 
ENDBRANCH  13  18
ENDBRANCH  10  12
ENDBRANCH   9  10
ENDBRANCH   6   9
ENDBRANCH   1   5
BRANCH   2  20
HETATM   20  C   UNL     1      43.062 -15.961   4.883  1.00  0.00     0.070 A 
HETATM   21  C   UNL     1      43.606 -17.224   5.003  1.00  0.00     0.137 A 
HETATM   22  N   UNL     1      43.240 -17.940   3.884  1.00  0.00    -0.244 N 
HETATM   23  N   UNL     1      42.430 -17.204   3.077  1.00  0.00    -0.179 NA
HETATM   24  C   UNL     1      42.339 -16.020   3.678  1.00  0.00     0.157 A 
BRANCH  22  25
HETATM   25  C   UNL     1      43.621 -19.259   3.514  1.00  0.00     0.059 A 
HETATM   26  C   UNL     1      44.248 -20.117   4.429  1.00  0.00     0.055 A 
HETATM   27  C   UNL     1      44.631 -21.396   4.021  1.00  0.00     0.036 A 
HETATM   28 CL   UNL     1      45.426 -22.442   5.135  1.00  0.00    -0.084 Cl
HETATM   29  C   UNL     1      44.386 -21.837   2.720  1.00  0.00     0.024 A 
HETATM   30  C   UNL     1      43.759 -20.989   1.811  1.00  0.00     0.004 A 
HETATM   31  C   UNL     1      43.382 -19.703   2.203  1.00  0.00     0.031 A 
ENDBRANCH  22  25
ENDBRANCH   2  20
TORSDOF 7
ENDMDL
MODEL 3
REMARK VINA RESULT:      -8.6      3.749      9.976
REMARK  7 active torsions:
REMARK  status: ('A' for Active; 'I' for Inactive)
REMARK    1  A    between atoms: O_2  and  C_3 
REMARK    2  A    between atoms: C_4  and  N_5 
REMARK    3  A    between atoms: N_5  and  C_6 
REMARK    4  A    between atoms: C_6  and  C_7 
REMARK       I    between atoms: C_7  and  N_8 
REMARK    5  A    between atoms: N_8  and  N_9 
REMARK       I    between atoms: N_9  and  C_10 
REMARK    6  A    between atoms: C_10  and  C_11 
REMARK    7  A    between atoms: N_13  and  C_14 
ROOT
HETATM    1  N   UNL     1      42.392 -13.739   6.069  1.00  0.00    -0.263 N 
HETATM    2  C   UNL     1      43.427 -14.658   6.173  1.00  0.00     0.273 C 
HETATM    3  O   UNL     1      44.295 -14.648   7.039  1.00  0.00    -0.266 OA
HETATM    4  H   UNL     1      41.957 -13.616   5.160  1.00  0.00     0.190 HD
ENDROOT
BRANCH   1   5
HETATM    5  N   UNL     1      42.416 -12.595   6.881  1.00  0.00    -0.266 N 
HETATM    6  C   UNL     1      41.634 -11.503   6.517  1.00  0.00     0.249 C 
HETATM    7  O   UNL     1      41.084 -11.368   5.428  1.00  0.00    -0.270 OA
HETATM    8  H   UNL     1      42.511 -12.741   7.888  1.00  0.00     0.190 HD
BRANCH   6   9
HETATM    9  C   UNL     1      41.516 -10.488   7.658  1.00  0.00     0.197 C 
BRANCH   9  10
HETATM   10  N   UNL     1      41.495 -11.191   8.950  1.00  0.00    -0.282 NA
HETATM   11  H   UNL     1      41.656 -12.198   8.886  1.00  0.00     0.128 HD
BRANCH  10  12
HETATM   12  C   UNL     1      42.225 -10.686  10.044  1.00  0.00     0.042 A 
HETATM   13  C   UNL     1      43.563 -11.117  10.220  1.00  0.00     0.089 A 
HETATM   14  C   UNL     1      44.311 -10.689  11.323  1.00  0.00     0.038 A 
HETATM   15  C   UNL     1      43.731  -9.864  12.286  1.00  0.00     0.003 A 
HETATM   16  C   UNL     1      42.405  -9.471  12.152  1.00  0.00     0.002 A 
HETATM   17  C   UNL     1      41.656  -9.888  11.048  1.00  0.00     0.026 A 
BRANCH  13  18
HETATM   18  O   UNL     1      44.056 -11.933   9.225  1.00  0.00    -0.354 OA
HETATM   19  C   UNL     1      45.461 -11.865   9.006  1.00  0.00     0.210 C 
ENDBRANCH  13  18
ENDBRANCH  10  12
ENDBRANCH   9  10
ENDBRANCH   6   9
ENDBRANCH   1   5
BRANCH   2  20
HETATM   20  C   UNL     1      43.391 -15.659   5.123  1.00  0.00     0.070 A 
HETATM   21  C   UNL     1      43.688 -17.002   5.247  1.00  0.00     0.137 A 
HETATM   22  N   UNL     1      43.543 -17.573   4.002  1.00  0.00    -0.244 N 
HETATM   23  N   UNL     1      43.105 -16.661   3.093  1.00  0.00    -0.179 NA
HETATM   24  C   UNL     1      43.027 -15.518   3.772  1.00  0.00     0.157 A 
BRANCH  22  25
HETATM   25  C   UNL     1      43.813 -18.913   3.608  1.00  0.00     0.059 A 
HETATM   26  C   UNL     1      44.336 -19.845   4.514  1.00  0.00     0.055 A 
HETATM   27  C   UNL     1      44.611 -21.144   4.083  1.00  0.00     0.036 A 
HETATM   28 CL   UNL     1      45.280 -22.284   5.187  1.00  0.00    -0.084 Cl
HETATM   29  C   UNL     1      44.361 -21.530   2.766  1.00  0.00     0.024 A 
HETATM   30  C   UNL     1      43.835 -20.608   1.864  1.00  0.00     0.004 A 
HETATM   31  C   UNL     1      43.567 -19.303   2.280  1.00  0.00     0.031 A 
ENDBRANCH  22  25
ENDBRANCH   2  20
TORSDOF 7
ENDMDL
MODEL 4
REMARK VINA RESULT:      -8.5      3.852     10.188
REMARK  7 active torsions:
REMARK  status: ('A' for Active; 'I' for Inactive)
REMARK    1  A    between atoms: O_2  and  C_3 
REMARK    2  A    between atoms: C_4  and  N_5 
REMARK    3  A    between atoms: N_5  and  C_6 
REMARK    4  A    between atoms: C_6  and  C_7 
REMARK       I    between atoms: C_7  and  N_8 
REMARK    5  A    between atoms: N_8  and  N_9 
REMARK       I    between atoms: N_9  and  C_10 
REMARK    6  A    between atoms: C_10  and  C_11 
REMARK    7  A    between atoms: N_13  and  C_14 
ROOT
HETATM    1  N   UNL     1      44.163 -13.939   8.093  1.00  0.00    -0.263 N 
HETATM    2  C   UNL     1      43.631 -14.280   6.857  1.00  0.00     0.273 C 
HETATM    3  O   UNL     1      43.235 -13.482   6.015  1.00  0.00    -0.266 OA
HETATM    4  H   UNL     1      44.128 -14.634   8.832  1.00  0.00     0.190 HD
ENDROOT
BRANCH   1   5
HETATM    5  N   UNL     1      44.084 -12.605   8.521  1.00  0.00    -0.266 N 
HETATM    6  C   UNL     1      44.442 -12.303   9.831  1.00  0.00     0.249 C 
HETATM    7  O   UNL     1      44.620 -13.134  10.718  1.00  0.00    -0.270 OA
HETATM    8  H   UNL     1      44.310 -11.882   7.835  1.00  0.00     0.190 HD
BRANCH   6   9
HETATM    9  C   UNL     1      44.619 -10.796  10.036  1.00  0.00     0.197 C 
BRANCH   9  10
HETATM   10  N   UNL     1      43.327 -10.185  10.384  1.00  0.00    -0.282 NA
HETATM   11  H   UNL     1      42.551 -10.464   9.779  1.00  0.00     0.128 HD
BRANCH  10  12
HETATM   12  C   UNL     1      42.879 -10.183  11.720  1.00  0.00     0.042 A 
HETATM   13  C   UNL     1      41.574 -10.658  11.995  1.00  0.00     0.089 A 
HETATM   14  C   UNL     1      41.063 -10.623  13.298  1.00  0.00     0.038 A 
HETATM   15  C   UNL     1      41.821 -10.079  14.334  1.00  0.00     0.003 A 
HETATM   16  C   UNL     1      43.085  -9.565  14.071  1.00  0.00     0.002 A 
HETATM   17  C   UNL     1      43.604  -9.606  12.774  1.00  0.00     0.026 A 
BRANCH  13  18
HETATM   18  O   UNL     1      40.893 -11.175  10.915  1.00  0.00    -0.354 OA
HETATM   19  C   UNL     1      39.687 -10.505  10.563  1.00  0.00     0.210 C 
ENDBRANCH  13  18
ENDBRANCH  10  12
ENDBRANCH   9  10
ENDBRANCH   6   9
ENDBRANCH   1   5
BRANCH   2  20
HETATM   20  C   UNL     1      43.577 -15.715   6.651  1.00  0.00     0.070 A 
HETATM   21  C   UNL     1      44.088 -16.419   5.578  1.00  0.00     0.137 A 
HETATM   22  N   UNL     1      43.796 -17.750   5.781  1.00  0.00    -0.244 N 
HETATM   23  N   UNL     1      43.170 -17.937   6.974  1.00  0.00    -0.179 NA
HETATM   24  C   UNL     1      43.035 -16.713   7.480  1.00  0.00     0.157 A 
BRANCH  22  25
HETATM   25  C   UNL     1      44.047 -18.851   4.917  1.00  0.00     0.059 A 
HETATM   26  C   UNL     1      44.532 -20.068   5.413  1.00  0.00     0.055 A 
HETATM   27  C   UNL     1      44.790 -21.118   4.529  1.00  0.00     0.036 A 
HETATM   28 CL   UNL     1      45.412 -22.606   5.133  1.00  0.00    -0.084 Cl
HETATM   29  C   UNL     1      44.559 -20.976   3.161  1.00  0.00     0.024 A 
HETATM   30  C   UNL     1      44.071 -19.769   2.664  1.00  0.00     0.004 A 
HETATM   31  C   UNL     1      43.821 -18.708   3.537  1.00  0.00     0.031 A 
ENDBRANCH  22  25
ENDBRANCH   2  20
TORSDOF 7
ENDMDL
MODEL 5
REMARK VINA RESULT:      -8.2      4.379     10.226
REMARK  7 active torsions:
REMARK  status: ('A' for Active; 'I' for Inactive)
REMARK    1  A    between atoms: O_2  and  C_3 
REMARK    2  A    between atoms: C_4  and  N_5 
REMARK    3  A    between atoms: N_5  and  C_6 
REMARK    4  A    between atoms: C_6  and  C_7 
REMARK       I    between atoms: C_7  and  N_8 
REMARK    5  A    between atoms: N_8  and  N_9 
REMARK       I    between atoms: N_9  and  C_10 
REMARK    6  A    between atoms: C_10  and  C_11 
REMARK    7  A    between atoms: N_13  and  C_14 
ROOT
HETATM    1  N   UNL     1      42.506 -14.016   6.232  1.00  0.00    -0.263 N 
HETATM    2  C   UNL     1      43.628 -14.832   6.266  1.00  0.00     0.273 C 
HETATM    3  O   UNL     1      44.660 -14.586   6.880  1.00  0.00    -0.266 OA
HETATM    4  H   UNL     1      41.869 -14.118   5.447  1.00  0.00     0.190 HD
ENDROOT
BRANCH   1   5
HETATM    5  N   UNL     1      42.590 -12.723   6.771  1.00  0.00    -0.266 N 
HETATM    6  C   UNL     1      41.546 -11.833   6.535  1.00  0.00     0.249 C 
HETATM    7  O   UNL     1      40.649 -12.008   5.715  1.00  0.00    -0.270 OA
HETATM    8  H   UNL     1      43.040 -12.628   7.683  1.00  0.00     0.190 HD
BRANCH   6   9
HETATM    9  C   UNL     1      41.632 -10.608   7.449  1.00  0.00     0.197 C 
BRANCH   9  10
HETATM   10  N   UNL     1      41.237 -10.977   8.817  1.00  0.00    -0.282 NA
HETATM   11  H   UNL     1      40.823 -11.908   8.901  1.00  0.00     0.128 HD
BRANCH  10  12
HETATM   12  C   UNL     1      42.128 -10.781   9.891  1.00  0.00     0.042 A 
HETATM   13  C   UNL     1      41.601 -10.371  11.140  1.00  0.00     0.089 A 
HETATM   14  C   UNL     1      42.452 -10.109  12.220  1.00  0.00     0.038 A 
HETATM   15  C   UNL     1      43.834 -10.208  12.065  1.00  0.00     0.003 A 
HETATM   16  C   UNL     1      44.368 -10.564  10.833  1.00  0.00     0.002 A 
HETATM   17  C   UNL     1      43.523 -10.836   9.754  1.00  0.00     0.026 A 
BRANCH  13  18
HETATM   18  O   UNL     1      40.227 -10.294  11.205  1.00  0.00    -0.354 OA
HETATM   19  C   UNL     1      39.692  -9.754  12.409  1.00  0.00     0.210 C 
ENDBRANCH  13  18
ENDBRANCH  10  12
ENDBRANCH   9  10
ENDBRANCH   6   9
ENDBRANCH   1   5
BRANCH   2  20
HETATM   20  C   UNL     1      43.464 -16.038   5.476  1.00  0.00     0.070 A 
HETATM   21  C   UNL     1      44.033 -17.272   5.719  1.00  0.00     0.137 A 
HETATM   22  N   UNL     1      43.627 -18.119   4.711  1.00  0.00    -0.244 N 
HETATM   23  N   UNL     1      42.769 -17.493   3.861  1.00  0.00    -0.179 NA
HETATM   24  C   UNL     1      42.687 -16.246   4.322  1.00  0.00     0.157 A 
BRANCH  22  25
HETATM   25  C   UNL     1      44.012 -19.469   4.483  1.00  0.00     0.059 A 
HETATM   26  C   UNL     1      44.028 -20.011   3.191  1.00  0.00     0.055 A 
HETATM   27  C   UNL     1      44.387 -21.348   3.010  1.00  0.00     0.036 A 
HETATM   28 CL   UNL     1      44.381 -22.025   1.426  1.00  0.00    -0.084 Cl
HETATM   29  C   UNL     1      44.743 -22.148   4.096  1.00  0.00     0.024 A 
HETATM   30  C   UNL     1      44.734 -21.611   5.381  1.00  0.00     0.004 A 
HETATM   31  C   UNL     1      44.365 -20.278   5.576  1.00  0.00     0.031 A 
ENDBRANCH  22  25
ENDBRANCH   2  20
TORSDOF 7
ENDMDL
MODEL 6
REMARK VINA RESULT:      -8.1      4.082      9.923
REMARK  7 active torsions:
REMARK  status: ('A' for Active; 'I' for Inactive)
REMARK    1  A    between atoms: O_2  and  C_3 
REMARK    2  A    between atoms: C_4  and  N_5 
REMARK    3  A    between atoms: N_5  and  C_6 
REMARK    4  A    between atoms: C_6  and  C_7 
REMARK       I    between atoms: C_7  and  N_8 
REMARK    5  A    between atoms: N_8  and  N_9 
REMARK       I    between atoms: N_9  and  C_10 
REMARK    6  A    between atoms: C_10  and  C_11 
REMARK    7  A    between atoms: N_13  and  C_14 
ROOT
HETATM    1  N   UNL     1      42.334 -13.657   5.973  1.00  0.00    -0.263 N 
HETATM    2  C   UNL     1      42.455 -13.774   4.595  1.00  0.00     0.273 C 
HETATM    3  O   UNL     1      42.559 -12.835   3.814  1.00  0.00    -0.266 OA
HETATM    4  H   UNL     1      41.910 -14.428   6.479  1.00  0.00     0.190 HD
ENDROOT
BRANCH   1   5
HETATM    5  N   UNL     1      42.124 -12.386   6.530  1.00  0.00    -0.266 N 
HETATM    6  C   UNL     1      40.834 -12.033   6.916  1.00  0.00     0.249 C 
HETATM    7  O   UNL     1      39.819 -12.655   6.617  1.00  0.00    -0.270 OA
HETATM    8  H   UNL     1      42.869 -12.006   7.117  1.00  0.00     0.190 HD
BRANCH   6   9
HETATM    9  C   UNL     1      40.831 -10.777   7.792  1.00  0.00     0.197 C 
BRANCH   9  10
HETATM   10  N   UNL     1      42.212 -10.320   8.014  1.00  0.00    -0.282 NA
HETATM   11  H   UNL     1      42.456  -9.458   7.521  1.00  0.00     0.128 HD
BRANCH  10  12
HETATM   12  C   UNL     1      42.737 -10.256   9.320  1.00  0.00     0.042 A 
HETATM   13  C   UNL     1      43.815 -11.112   9.656  1.00  0.00     0.089 A 
HETATM   14  C   UNL     1      44.334 -11.127  10.956  1.00  0.00     0.038 A 
HETATM   15  C   UNL     1      43.766 -10.328  11.947  1.00  0.00     0.003 A 
HETATM   16  C   UNL     1      42.678  -9.518  11.644  1.00  0.00     0.002 A 
HETATM   17  C   UNL     1      42.162  -9.492  10.346  1.00  0.00     0.026 A 
BRANCH  13  18
HETATM   18  O   UNL     1      44.313 -11.871   8.619  1.00  0.00    -0.354 OA
HETATM   19  C   UNL     1      45.631 -12.378   8.798  1.00  0.00     0.210 C 
ENDBRANCH  13  18
ENDBRANCH  10  12
ENDBRANCH   9  10
ENDBRANCH   6   9
ENDBRANCH   1   5
BRANCH   2  20
HETATM   20  C   UNL     1      42.437 -15.155   4.150  1.00  0.00     0.070 A 
HETATM   21  C   UNL     1      43.304 -16.160   4.530  1.00  0.00     0.137 A 
HETATM   22  N   UNL     1      42.935 -17.301   3.852  1.00  0.00    -0.244 N 
HETATM   23  N   UNL     1      41.825 -17.084   3.097  1.00  0.00    -0.179 NA
HETATM   24  C   UNL     1      41.543 -15.796   3.275  1.00  0.00     0.157 A 
BRANCH  22  25
HETATM   25  C   UNL     1      43.572 -18.572   3.852  1.00  0.00     0.059 A 
HETATM   26  C   UNL     1      43.517 -19.412   2.731  1.00  0.00     0.055 A 
HETATM   27  C   UNL     1      44.133 -20.664   2.777  1.00  0.00     0.036 A 
HETATM   28 CL   UNL     1      44.042 -21.709   1.411  1.00  0.00    -0.084 Cl
HETATM   29  C   UNL     1      44.814 -21.085   3.919  1.00  0.00     0.024 A 
HETATM   30  C   UNL     1      44.877 -20.251   5.033  1.00  0.00     0.004 A 
HETATM   31  C   UNL     1      44.254 -19.002   5.003  1.00  0.00     0.031 A 
ENDBRANCH  22  25
ENDBRANCH   2  20
TORSDOF 7
ENDMDL
MODEL 7
REMARK VINA RESULT:      -8.1      8.149     11.133
REMARK  7 active torsions:
REMARK  status: ('A' for Active; 'I' for Inactive)
REMARK    1  A    between atoms: O_2  and  C_3 
REMARK    2  A    between atoms: C_4  and  N_5 
REMARK    3  A    between atoms: N_5  and  C_6 
REMARK    4  A    between atoms: C_6  and  C_7 
REMARK       I    between atoms: C_7  and  N_8 
REMARK    5  A    between atoms: N_8  and  N_9 
REMARK       I    between atoms: N_9  and  C_10 
REMARK    6  A    between atoms: C_10  and  C_11 
REMARK    7  A    between atoms: N_13  and  C_14 
ROOT
HETATM    1  N   UNL     1      41.901 -15.116  -0.847  1.00  0.00    -0.263 N 
HETATM    2  C   UNL     1      41.168 -14.909   0.313  1.00  0.00     0.273 C 
HETATM    3  O   UNL     1      40.394 -13.978   0.502  1.00  0.00    -0.266 OA
HETATM    4  H   UNL     1      42.744 -15.678  -0.782  1.00  0.00     0.190 HD
ENDROOT
BRANCH   1   5
HETATM    5  N   UNL     1      41.927 -14.107  -1.823  1.00  0.00    -0.266 N 
HETATM    6  C   UNL     1      41.381 -14.376  -3.074  1.00  0.00     0.249 C 
HETATM    7  O   UNL     1      41.065 -15.493  -3.475  1.00  0.00    -0.270 OA
HETATM    8  H   UNL     1      41.813 -13.145  -1.500  1.00  0.00     0.190 HD
BRANCH   6   9
HETATM    9  C   UNL     1      41.190 -13.096  -3.893  1.00  0.00     0.197 C 
BRANCH   9  10
HETATM   10  N   UNL     1      42.475 -12.395  -4.030  1.00  0.00    -0.282 NA
HETATM   11  H   UNL     1      43.055 -12.723  -4.806  1.00  0.00     0.128 HD
BRANCH  10  12
HETATM   12  C   UNL     1      42.523 -10.987  -3.994  1.00  0.00     0.042 A 
HETATM   13  C   UNL     1      42.683 -10.349  -2.740  1.00  0.00     0.089 A 
HETATM   14  C   UNL     1      42.679  -8.952  -2.645  1.00  0.00     0.038 A 
HETATM   15  C   UNL     1      42.475  -8.173  -3.783  1.00  0.00     0.003 A 
HETATM   16  C   UNL     1      42.270  -8.786  -5.014  1.00  0.00     0.002 A 
HETATM   17  C   UNL     1      42.281 -10.179  -5.115  1.00  0.00     0.026 A 
BRANCH  13  18
HETATM   18  O   UNL     1      42.875 -11.192  -1.667  1.00  0.00    -0.354 OA
HETATM   19  C   UNL     1      42.798 -10.588  -0.381  1.00  0.00     0.210 C 
ENDBRANCH  13  18
ENDBRANCH  10  12
ENDBRANCH   9  10
ENDBRANCH   6   9
ENDBRANCH   1   5
BRANCH   2  20
HETATM   20  C   UNL     1      41.418 -15.926   1.318  1.00  0.00     0.070 A 
HETATM   21  C   UNL     1      42.542 -16.718   1.434  1.00  0.00     0.137 A 
HETATM   22  N   UNL     1      42.348 -17.554   2.512  1.00  0.00    -0.244 N 
HETATM   23  N   UNL     1      41.167 -17.288   3.131  1.00  0.00    -0.179 NA
HETATM   24  C   UNL     1      40.615 -16.320   2.403  1.00  0.00     0.157 A 
BRANCH  22  25
HETATM   25  C   UNL     1      43.190 -18.600   2.981  1.00  0.00     0.059 A 
HETATM   26  C   UNL     1      43.491 -19.707   2.175  1.00  0.00     0.055 A 
HETATM   27  C   UNL     1      44.300 -20.727   2.681  1.00  0.00     0.036 A 
HETATM   28 CL   UNL     1      44.648 -22.101   1.703  1.00  0.00    -0.084 Cl
HETATM   29  C   UNL     1      44.824 -20.652   3.971  1.00  0.00     0.024 A 
HETATM   30  C   UNL     1      44.532 -19.551   4.772  1.00  0.00     0.004 A 
HETATM   31  C   UNL     1      43.714 -18.531   4.283  1.00  0.00     0.031 A 
ENDBRANCH  22  25
ENDBRANCH   2  20
TORSDOF 7
ENDMDL
MODEL 8
REMARK VINA RESULT:      -7.7      3.982     10.380
REMARK  7 active torsions:
REMARK  status: ('A' for Active; 'I' for Inactive)
REMARK    1  A    between atoms: O_2  and  C_3 
REMARK    2  A    between atoms: C_4  and  N_5 
REMARK    3  A    between atoms: N_5  and  C_6 
REMARK    4  A    between atoms: C_6  and  C_7 
REMARK       I    between atoms: C_7  and  N_8 
REMARK    5  A    between atoms: N_8  and  N_9 
REMARK       I    between atoms: N_9  and  C_10 
REMARK    6  A    between atoms: C_10  and  C_11 
REMARK    7  A    between atoms: N_13  and  C_14 
ROOT
HETATM    1  N   UNL     1      42.090 -12.189   6.542  1.00  0.00    -0.263 N 
HETATM    2  C   UNL     1      41.309 -13.070   5.806  1.00  0.00     0.273 C 
HETATM    3  O   UNL     1      40.091 -13.177   5.897  1.00  0.00    -0.266 OA
HETATM    4  H   UNL     1      43.074 -12.412   6.658  1.00  0.00     0.190 HD
ENDROOT
BRANCH   1   5
HETATM    5  N   UNL     1      41.504 -11.489   7.607  1.00  0.00    -0.266 N 
HETATM    6  C   UNL     1      42.334 -10.815   8.498  1.00  0.00     0.249 C 
HETATM    7  O   UNL     1      43.552 -10.952   8.561  1.00  0.00    -0.270 OA
HETATM    8  H   UNL     1      40.605 -11.037   7.429  1.00  0.00     0.190 HD
BRANCH   6   9
HETATM    9  C   UNL     1      41.543  -9.848   9.384  1.00  0.00     0.197 C 
BRANCH   9  10
HETATM   10  N   UNL     1      41.130 -10.528  10.621  1.00  0.00    -0.282 NA
HETATM   11  H   UNL     1      41.174 -11.549  10.576  1.00  0.00     0.128 HD
BRANCH  10  12
HETATM   12  C   UNL     1      41.640 -10.109  11.866  1.00  0.00     0.042 A 
HETATM   13  C   UNL     1      40.733  -9.616  12.836  1.00  0.00     0.089 A 
HETATM   14  C   UNL     1      41.197  -9.134  14.065  1.00  0.00     0.038 A 
HETATM   15  C   UNL     1      42.565  -9.097  14.333  1.00  0.00     0.003 A 
HETATM   16  C   UNL     1      43.470  -9.534  13.373  1.00  0.00     0.002 A 
HETATM   17  C   UNL     1      43.012 -10.023  12.148  1.00  0.00     0.026 A 
BRANCH  13  18
HETATM   18  O   UNL     1      39.401  -9.685  12.489  1.00  0.00    -0.354 OA
HETATM   19  C   UNL     1      38.608  -8.557  12.842  1.00  0.00     0.210 C 
ENDBRANCH  13  18
ENDBRANCH  10  12
ENDBRANCH   9  10
ENDBRANCH   6   9
ENDBRANCH   1   5
BRANCH   2  20
HETATM   20  C   UNL     1      42.093 -13.885   4.898  1.00  0.00     0.070 A 
HETATM   21  C   UNL     1      42.060 -15.260   4.779  1.00  0.00     0.137 A 
HETATM   22  N   UNL     1      42.977 -15.612   3.813  1.00  0.00    -0.244 N 
HETATM   23  N   UNL     1      43.555 -14.511   3.262  1.00  0.00    -0.179 NA
HETATM   24  C   UNL     1      43.027 -13.485   3.926  1.00  0.00     0.157 A 
BRANCH  22  25
HETATM   25  C   UNL     1      43.360 -16.916   3.393  1.00  0.00     0.059 A 
HETATM   26  C   UNL     1      43.701 -17.908   4.322  1.00  0.00     0.055 A 
HETATM   27  C   UNL     1      44.097 -19.168   3.870  1.00  0.00     0.036 A 
HETATM   28 CL   UNL     1      44.543 -20.380   5.010  1.00  0.00    -0.084 Cl
HETATM   29  C   UNL     1      44.146 -19.457   2.506  1.00  0.00     0.024 A 
HETATM   30  C   UNL     1      43.802 -18.476   1.580  1.00  0.00     0.004 A 
HETATM   31  C   UNL     1      43.416 -17.208   2.019  1.00  0.00     0.031 A 
ENDBRANCH  22  25
ENDBRANCH   2  20
TORSDOF 7
ENDMDL
MODEL 9
REMARK VINA RESULT:      -7.7      6.772     10.025
REMARK  7 active torsions:
REMARK  status: ('A' for Active; 'I' for Inactive)
REMARK    1  A    between atoms: O_2  and  C_3 
REMARK    2  A    between atoms: C_4  and  N_5 
REMARK    3  A    between atoms: N_5  and  C_6 
REMARK    4  A    between atoms: C_6  and  C_7 
REMARK       I    between atoms: C_7  and  N_8 
REMARK    5  A    between atoms: N_8  and  N_9 
REMARK       I    between atoms: N_9  and  C_10 
REMARK    6  A    between atoms: C_10  and  C_11 
REMARK    7  A    between atoms: N_13  and  C_14 
ROOT
HETATM    1  N   UNL     1      41.475 -14.839   1.749  1.00  0.00    -0.263 N 
HETATM    2  C   UNL     1      42.625 -14.705   2.515  1.00  0.00     0.273 C 
HETATM    3  O   UNL     1      43.238 -13.658   2.688  1.00  0.00    -0.266 OA
HETATM    4  H   UNL     1      41.253 -15.760   1.384  1.00  0.00     0.190 HD
ENDROOT
BRANCH   1   5
HETATM    5  N   UNL     1      41.063 -13.762   0.948  1.00  0.00    -0.266 N 
HETATM    6  C   UNL     1      39.705 -13.609   0.686  1.00  0.00     0.249 C 
HETATM    7  O   UNL     1      38.847 -14.456   0.918  1.00  0.00    -0.270 OA
HETATM    8  H   UNL     1      41.586 -12.890   1.037  1.00  0.00     0.190 HD
BRANCH   6   9
HETATM    9  C   UNL     1      39.397 -12.231   0.094  1.00  0.00     0.197 C 
BRANCH   9  10
HETATM   10  N   UNL     1      39.753 -12.210  -1.333  1.00  0.00    -0.282 NA
HETATM   11  H   UNL     1      40.674 -11.813  -1.532  1.00  0.00     0.128 HD
BRANCH  10  12
HETATM   12  C   UNL     1      39.576 -13.361  -2.126  1.00  0.00     0.042 A 
HETATM   13  C   UNL     1      40.722 -14.104  -2.501  1.00  0.00     0.089 A 
HETATM   14  C   UNL     1      40.604 -15.222  -3.335  1.00  0.00     0.038 A 
HETATM   15  C   UNL     1      39.358 -15.591  -3.842  1.00  0.00     0.003 A 
HETATM   16  C   UNL     1      38.232 -14.843  -3.521  1.00  0.00     0.002 A 
HETATM   17  C   UNL     1      38.342 -13.732  -2.681  1.00  0.00     0.026 A 
BRANCH  13  18
HETATM   18  O   UNL     1      41.912 -13.670  -1.960  1.00  0.00    -0.354 OA
HETATM   19  C   UNL     1      42.740 -12.896  -2.822  1.00  0.00     0.210 C 
ENDBRANCH  13  18
ENDBRANCH  10  12
ENDBRANCH   9  10
ENDBRANCH   6   9
ENDBRANCH   1   5
BRANCH   2  20
HETATM   20  C   UNL     1      43.052 -15.960   3.103  1.00  0.00     0.070 A 
HETATM   21  C   UNL     1      43.279 -17.151   2.442  1.00  0.00     0.137 A 
HETATM   22  N   UNL     1      43.648 -18.083   3.387  1.00  0.00    -0.244 N 
HETATM   23  N   UNL     1      43.727 -17.522   4.623  1.00  0.00    -0.179 NA
HETATM   24  C   UNL     1      43.358 -16.256   4.443  1.00  0.00     0.157 A 
BRANCH  22  25
HETATM   25  C   UNL     1      43.908 -19.469   3.205  1.00  0.00     0.059 A 
HETATM   26  C   UNL     1      44.463 -20.245   4.232  1.00  0.00     0.055 A 
HETATM   27  C   UNL     1      44.728 -21.598   4.006  1.00  0.00     0.036 A 
HETATM   28 CL   UNL     1      45.436 -22.546   5.257  1.00  0.00    -0.084 Cl
HETATM   29  C   UNL     1      44.435 -22.190   2.778  1.00  0.00     0.024 A 
HETATM   30  C   UNL     1      43.877 -21.424   1.757  1.00  0.00     0.004 A 
HETATM   31  C   UNL     1      43.620 -20.068   1.966  1.00  0.00     0.031 A 
ENDBRANCH  22  25
ENDBRANCH   2  20
TORSDOF 7
ENDMDL
MODEL 10
REMARK VINA RESULT:      -7.7      4.171      9.766
REMARK  7 active torsions:
REMARK  status: ('A' for Active; 'I' for Inactive)
REMARK    1  A    between atoms: O_2  and  C_3 
REMARK    2  A    between atoms: C_4  and  N_5 
REMARK    3  A    between atoms: N_5  and  C_6 
REMARK    4  A    between atoms: C_6  and  C_7 
REMARK       I    between atoms: C_7  and  N_8 
REMARK    5  A    between atoms: N_8  and  N_9 
REMARK       I    between atoms: N_9  and  C_10 
REMARK    6  A    between atoms: C_10  and  C_11 
REMARK    7  A    between atoms: N_13  and  C_14 
ROOT
HETATM    1  N   UNL     1      44.296 -14.732   7.233  1.00  0.00    -0.263 N 
HETATM    2  C   UNL     1      43.384 -14.645   6.190  1.00  0.00     0.273 C 
HETATM    3  O   UNL     1      42.567 -13.743   6.041  1.00  0.00    -0.266 OA
HETATM    4  H   UNL     1      44.666 -15.649   7.463  1.00  0.00     0.190 HD
ENDROOT
BRANCH   1   5
HETATM    5  N   UNL     1      44.179 -13.844   8.312  1.00  0.00    -0.266 N 
HETATM    6  C   UNL     1      45.120 -12.827   8.444  1.00  0.00     0.249 C 
HETATM    7  O   UNL     1      46.174 -12.763   7.816  1.00  0.00    -0.270 OA
HETATM    8  H   UNL     1      43.234 -13.598   8.613  1.00  0.00     0.190 HD
BRANCH   6   9
HETATM    9  C   UNL     1      44.670 -11.768   9.454  1.00  0.00     0.197 C 
BRANCH   9  10
HETATM   10  N   UNL     1      43.861 -10.744   8.777  1.00  0.00    -0.282 NA
HETATM   11  H   UNL     1      44.109 -10.589   7.797  1.00  0.00     0.128 HD
BRANCH  10  12
HETATM   12  C   UNL     1      42.456 -10.760   8.889  1.00  0.00     0.042 A 
HETATM   13  C   UNL     1      41.882 -10.734  10.184  1.00  0.00     0.089 A 
HETATM   14  C   UNL     1      40.494 -10.806  10.350  1.00  0.00     0.038 A 
HETATM   15  C   UNL     1      39.662 -10.948   9.240  1.00  0.00     0.003 A 
HETATM   16  C   UNL     1      40.214 -11.023   7.967  1.00  0.00     0.002 A 
HETATM   17  C   UNL     1      41.597 -10.942   7.795  1.00  0.00     0.026 A 
BRANCH  13  18
HETATM   18  O   UNL     1      42.776 -10.596  11.224  1.00  0.00    -0.354 OA
HETATM   19  C   UNL     1      42.645  -9.412  12.003  1.00  0.00     0.210 C 
ENDBRANCH  13  18
ENDBRANCH  10  12
ENDBRANCH   9  10
ENDBRANCH   6   9
ENDBRANCH   1   5
BRANCH   2  20
HETATM   20  C   UNL     1      43.484 -15.761   5.268  1.00  0.00     0.070 A 
HETATM   21  C   UNL     1      43.767 -17.075   5.584  1.00  0.00     0.137 A 
HETATM   22  N   UNL     1      43.782 -17.789   4.406  1.00  0.00    -0.244 N 
HETATM   23  N   UNL     1      43.459 -16.996   3.349  1.00  0.00    -0.179 NA
HETATM   24  C   UNL     1      43.293 -15.784   3.875  1.00  0.00     0.157 A 
BRANCH  22  25
HETATM   25  C   UNL     1      44.104 -19.160   4.208  1.00  0.00     0.059 A 
HETATM   26  C   UNL     1      44.004 -19.754   2.943  1.00  0.00     0.055 A 
HETATM   27  C   UNL     1      44.304 -21.110   2.794  1.00  0.00     0.036 A 
HETATM   28 CL   UNL     1      44.155 -21.849   1.245  1.00  0.00    -0.084 Cl
HETATM   29  C   UNL     1      44.714 -21.877   3.884  1.00  0.00     0.024 A 
HETATM   30  C   UNL     1      44.820 -21.289   5.142  1.00  0.00     0.004 A 
HETATM   31  C   UNL     1      44.511 -19.937   5.306  1.00  0.00     0.031 A 
ENDBRANCH  22  25
ENDBRANCH   2  20
TORSDOF 7
ENDMDL
