MODEL 1
REMARK VINA RESULT:      -9.7      0.000      0.000
REMARK  8 active torsions:
REMARK  status: ('A' for Active; 'I' for Inactive)
REMARK    1  A    between atoms: C_6  and  S_7 
REMARK    2  A    between atoms: S_7  and  C_8 
REMARK    3  A    between atoms: C_8  and  C_9 
REMARK       I    between atoms: C_9  and  N_10 
REMARK    4  A    between atoms: N_10  and  C_11 
REMARK    5  A    between atoms: C_24  and  C_25 
REMARK    6  A    between atoms: C_25  and  C_26 
REMARK       I    between atoms: C_26  and  N_27 
REMARK    7  A    between atoms: N_27  and  C_28 
REMARK    8  A    between atoms: C_28  and  C_29 
ROOT
HETATM    1  C   UNL     1      42.102  -8.795  14.846  1.00  0.00     0.001 A 
HETATM    2  C   UNL     1      42.815  -9.437  13.834  1.00  0.00     0.018 A 
HETATM    3  C   UNL     1      42.275  -9.491  12.547  1.00  0.00     0.039 A 
HETATM    4  C   UNL     1      41.027  -8.925  12.254  1.00  0.00     0.073 A 
HETATM    5  N   UNL     1      40.473  -8.943  10.961  1.00  0.00    -0.223 NA
HETATM    6  C   UNL     1      41.176  -9.476  10.012  1.00  0.00     0.178 A 
HETATM    7  N   UNL     1      42.417 -10.062  10.207  1.00  0.00    -0.241 N 
HETATM    8  C   UNL     1      43.007 -10.096  11.429  1.00  0.00     0.147 A 
HETATM    9  N   UNL     1      44.182 -10.650  11.520  1.00  0.00    -0.256 NA
HETATM   10  C   UNL     1      43.256 -10.703   9.327  1.00  0.00     0.257 C 
HETATM   11  O   UNL     1      43.068 -11.012   8.162  1.00  0.00    -0.270 OA
HETATM   12  C   UNL     1      44.518 -11.005  10.114  1.00  0.00     0.211 C 
HETATM   13  C   UNL     1      40.326  -8.287  13.278  1.00  0.00     0.032 A 
HETATM   14  C   UNL     1      40.860  -8.218  14.567  1.00  0.00     0.002 A 
ENDROOT
BRANCH  12  15
HETATM   15  C   UNL     1      44.989 -12.432   9.896  1.00  0.00     0.140 C 
BRANCH  15  16
HETATM   16  C   UNL     1      45.230 -12.885   8.476  1.00  0.00     0.220 C 
HETATM   17  N   UNL     1      44.334 -13.824   8.024  1.00  0.00    -0.357 N 
HETATM   18  H   UNL     1      43.375 -13.699   8.329  1.00  0.00     0.162 HD
HETATM   19  O   UNL     1      46.209 -12.515   7.836  1.00  0.00    -0.274 OA
BRANCH  17  20
HETATM   20  C   UNL     1      44.552 -14.491   6.761  1.00  0.00     0.161 C 
BRANCH  20  21
HETATM   21  C   UNL     1      44.237 -15.969   6.804  1.00  0.00    -0.038 A 
HETATM   22  C   UNL     1      44.761 -16.803   5.799  1.00  0.00     0.048 A 
HETATM   23  C   UNL     1      44.499 -18.157   5.865  1.00  0.00     0.105 A 
HETATM   24  C   UNL     1      43.752 -18.703   6.879  1.00  0.00     0.105 A 
HETATM   25  O   UNL     1      44.930 -19.093   4.977  1.00  0.00    -0.323 OA
HETATM   26  O   UNL     1      43.610 -20.048   6.756  1.00  0.00    -0.323 OA
HETATM   27  C   UNL     1      43.236 -17.928   7.894  1.00  0.00     0.040 A 
HETATM   28  C   UNL     1      44.366 -20.290   5.551  1.00  0.00     0.352 A 
HETATM   29  C   UNL     1      43.495 -16.553   7.860  1.00  0.00     0.012 A 
ENDBRANCH  20  21
ENDBRANCH  17  20
ENDBRANCH  15  16
ENDBRANCH  12  15
BRANCH   6  30
HETATM   30  S   UNL     1      40.508  -9.401   8.406  1.00  0.00    -0.082 SA
BRANCH  30  31
HETATM   31  C   UNL     1      39.640 -10.996   8.399  1.00  0.00     0.185 C 
BRANCH  31  32
HETATM   32  C   UNL     1      39.753 -11.657   7.035  1.00  0.00     0.232 C 
HETATM   33  N   UNL     1      40.858 -12.489   6.926  1.00  0.00    -0.324 N 
HETATM   34  H   UNL     1      41.245 -12.812   7.809  1.00  0.00     0.169 HD
HETATM   35  O   UNL     1      38.921 -11.432   6.162  1.00  0.00    -0.272 OA
BRANCH  33  36
HETATM   36  C   UNL     1      41.286 -13.167   5.764  1.00  0.00     0.073 A 
HETATM   37  C   UNL     1      41.028 -14.514   5.478  1.00  0.00     0.143 A 
HETATM   38  F   UNL     1      40.241 -15.264   6.262  1.00  0.00    -0.204 F 
HETATM   39  C   UNL     1      41.509 -15.107   4.310  1.00  0.00     0.044 A 
HETATM   40  C   UNL     1      42.240 -14.356   3.395  1.00  0.00     0.003 A 
HETATM   41  C   UNL     1      42.474 -13.005   3.644  1.00  0.00     0.002 A 
HETATM   42  C   UNL     1      41.993 -12.412   4.817  1.00  0.00     0.033 A 
ENDBRANCH  33  36
ENDBRANCH  31  32
ENDBRANCH  30  31
ENDBRANCH   6  30
TORSDOF 8
ENDMDL
MODEL 2
REMARK VINA RESULT:      -9.6      4.655      9.825
REMARK  8 active torsions:
REMARK  status: ('A' for Active; 'I' for Inactive)
REMARK    1  A    between atoms: C_6  and  S_7 
REMARK    2  A    between atoms: S_7  and  C_8 
REMARK    3  A    between atoms: C_8  and  C_9 
REMARK       I    between atoms: C_9  and  N_10 
REMARK    4  A    between atoms: N_10  and  C_11 
REMARK    5  A    between atoms: C_24  and  C_25 
REMARK    6  A    between atoms: C_25  and  C_26 
REMARK       I    between atoms: C_26  and  N_27 
REMARK    7  A    between atoms: N_27  and  C_28 
REMARK    8  A    between atoms: C_28  and  C_29 
ROOT
HETATM    1  C   UNL     1      44.767 -20.727   3.709  1.00  0.00     0.001 A 
HETATM    2  C   UNL     1      44.500 -19.483   4.280  1.00  0.00     0.018 A 
HETATM    3  C   UNL     1      43.626 -18.608   3.629  1.00  0.00     0.039 A 
HETATM    4  C   UNL     1      43.023 -18.949   2.412  1.00  0.00     0.073 A 
HETATM    5  N   UNL     1      42.119 -18.097   1.750  1.00  0.00    -0.223 NA
HETATM    6  C   UNL     1      41.820 -16.975   2.324  1.00  0.00     0.178 A 
HETATM    7  N   UNL     1      42.368 -16.553   3.525  1.00  0.00    -0.241 N 
HETATM    8  C   UNL     1      43.257 -17.314   4.212  1.00  0.00     0.147 A 
HETATM    9  N   UNL     1      43.709 -16.849   5.342  1.00  0.00    -0.256 NA
HETATM   10  C   UNL     1      42.193 -15.386   4.232  1.00  0.00     0.257 C 
HETATM   11  O   UNL     1      41.585 -14.376   3.921  1.00  0.00    -0.270 OA
HETATM   12  C   UNL     1      42.960 -15.575   5.528  1.00  0.00     0.211 C 
HETATM   13  C   UNL     1      43.302 -20.198   1.854  1.00  0.00     0.032 A 
HETATM   14  C   UNL     1      44.166 -21.085   2.500  1.00  0.00     0.002 A 
ENDROOT
BRANCH  12  15
HETATM   15  C   UNL     1      43.810 -14.362   5.860  1.00  0.00     0.140 C 
BRANCH  15  16
HETATM   16  C   UNL     1      44.220 -14.163   7.300  1.00  0.00     0.220 C 
HETATM   17  N   UNL     1      44.529 -12.863   7.623  1.00  0.00    -0.357 N 
HETATM   18  H   UNL     1      43.950 -12.152   7.190  1.00  0.00     0.162 HD
HETATM   19  O   UNL     1      44.364 -15.108   8.068  1.00  0.00    -0.274 OA
BRANCH  17  20
HETATM   20  C   UNL     1      45.122 -12.552   8.904  1.00  0.00     0.161 C 
BRANCH  20  21
HETATM   21  C   UNL     1      44.339 -11.522   9.689  1.00  0.00    -0.038 A 
HETATM   22  C   UNL     1      43.165 -10.991   9.125  1.00  0.00     0.048 A 
HETATM   23  C   UNL     1      42.437 -10.078   9.862  1.00  0.00     0.105 A 
HETATM   24  C   UNL     1      42.825  -9.686  11.119  1.00  0.00     0.105 A 
HETATM   25  O   UNL     1      41.285  -9.475   9.463  1.00  0.00    -0.323 OA
HETATM   26  O   UNL     1      41.974  -8.781  11.669  1.00  0.00    -0.323 OA
HETATM   27  C   UNL     1      43.956 -10.195  11.717  1.00  0.00     0.040 A 
HETATM   28  C   UNL     1      40.995  -8.656  10.616  1.00  0.00     0.352 A 
HETATM   29  C   UNL     1      44.709 -11.131  10.999  1.00  0.00     0.012 A 
ENDBRANCH  20  21
ENDBRANCH  17  20
ENDBRANCH  15  16
ENDBRANCH  12  15
BRANCH   6  30
HETATM   30  S   UNL     1      40.629 -15.983   1.531  1.00  0.00    -0.082 SA
BRANCH  30  31
HETATM   31  C   UNL     1      41.441 -15.827  -0.086  1.00  0.00     0.185 C 
BRANCH  31  32
HETATM   32  C   UNL     1      41.195 -14.447  -0.674  1.00  0.00     0.232 C 
HETATM   33  N   UNL     1      42.203 -14.037  -1.534  1.00  0.00    -0.324 N 
HETATM   34  H   UNL     1      42.776 -14.785  -1.918  1.00  0.00     0.169 HD
HETATM   35  O   UNL     1      40.189 -13.812  -0.376  1.00  0.00    -0.272 OA
BRANCH  33  36
HETATM   36  C   UNL     1      42.310 -12.776  -2.161  1.00  0.00     0.073 A 
HETATM   37  C   UNL     1      41.803 -12.464  -3.429  1.00  0.00     0.143 A 
HETATM   38  F   UNL     1      41.063 -13.334  -4.128  1.00  0.00    -0.204 F 
HETATM   39  C   UNL     1      41.973 -11.192  -3.979  1.00  0.00     0.044 A 
HETATM   40  C   UNL     1      42.637 -10.203  -3.259  1.00  0.00     0.003 A 
HETATM   41  C   UNL     1      43.114 -10.484  -1.980  1.00  0.00     0.002 A 
HETATM   42  C   UNL     1      42.944 -11.760  -1.432  1.00  0.00     0.033 A 
ENDBRANCH  33  36
ENDBRANCH  31  32
ENDBRANCH  30  31
ENDBRANCH   6  30
TORSDOF 8
ENDMDL
MODEL 3
REMARK VINA RESULT:      -9.6      5.183     10.355
REMARK  8 active torsions:
REMARK  status: ('A' for Active; 'I' for Inactive)
REMARK    1  A    between atoms: C_6  and  S_7 
REMARK    2  A    between atoms: S_7  and  C_8 
REMARK    3  A    between atoms: C_8  and  C_9 
REMARK       I    between atoms: C_9  and  N_10 
REMARK    4  A    between atoms: N_10  and  C_11 
REMARK    5  A    between atoms: C_24  and  C_25 
REMARK    6  A    between atoms: C_25  and  C_26 
REMARK       I    between atoms: C_26  and  N_27 
REMARK    7  A    between atoms: N_27  and  C_28 
REMARK    8  A    between atoms: C_28  and  C_29 
ROOT
HETATM    1  C   UNL     1      44.604 -20.360   3.042  1.00  0.00     0.001 A 
HETATM    2  C   UNL     1      44.082 -19.107   2.721  1.00  0.00     0.018 A 
HETATM    3  C   UNL     1      43.882 -18.170   3.738  1.00  0.00     0.039 A 
HETATM    4  C   UNL     1      44.184 -18.467   5.073  1.00  0.00     0.073 A 
HETATM    5  N   UNL     1      44.017 -17.532   6.112  1.00  0.00    -0.223 NA
HETATM    6  C   UNL     1      43.601 -16.347   5.795  1.00  0.00     0.178 A 
HETATM    7  N   UNL     1      43.276 -15.964   4.502  1.00  0.00    -0.241 N 
HETATM    8  C   UNL     1      43.397 -16.816   3.453  1.00  0.00     0.147 A 
HETATM    9  N   UNL     1      43.087 -16.369   2.269  1.00  0.00    -0.256 NA
HETATM   10  C   UNL     1      42.783 -14.777   4.014  1.00  0.00     0.257 C 
HETATM   11  O   UNL     1      42.406 -13.787   4.619  1.00  0.00    -0.270 OA
HETATM   12  C   UNL     1      42.759 -14.936   2.505  1.00  0.00     0.211 C 
HETATM   13  C   UNL     1      44.705 -19.725   5.378  1.00  0.00     0.032 A 
HETATM   14  C   UNL     1      44.918 -20.667   4.368  1.00  0.00     0.002 A 
ENDROOT
BRANCH  12  15
HETATM   15  C   UNL     1      41.445 -14.460   1.910  1.00  0.00     0.140 C 
BRANCH  15  16
HETATM   16  C   UNL     1      41.435 -14.064   0.453  1.00  0.00     0.220 C 
HETATM   17  N   UNL     1      41.410 -15.127  -0.419  1.00  0.00    -0.357 N 
HETATM   18  H   UNL     1      40.839 -15.915  -0.135  1.00  0.00     0.162 HD
HETATM   19  O   UNL     1      41.550 -12.896   0.099  1.00  0.00    -0.274 OA
BRANCH  17  20
HETATM   20  C   UNL     1      41.592 -14.910  -1.836  1.00  0.00     0.161 C 
BRANCH  20  21
HETATM   21  C   UNL     1      40.307 -15.024  -2.627  1.00  0.00    -0.038 A 
HETATM   22  C   UNL     1      39.440 -13.917  -2.672  1.00  0.00     0.048 A 
HETATM   23  C   UNL     1      38.287 -14.015  -3.426  1.00  0.00     0.105 A 
HETATM   24  C   UNL     1      37.974 -15.154  -4.126  1.00  0.00     0.105 A 
HETATM   25  O   UNL     1      37.350 -13.040  -3.573  1.00  0.00    -0.323 OA
HETATM   26  O   UNL     1      36.797 -15.045  -4.797  1.00  0.00    -0.323 OA
HETATM   27  C   UNL     1      38.802 -16.253  -4.127  1.00  0.00     0.040 A 
HETATM   28  C   UNL     1      36.410 -13.700  -4.448  1.00  0.00     0.352 A 
HETATM   29  C   UNL     1      39.984 -16.179  -3.381  1.00  0.00     0.012 A 
ENDBRANCH  20  21
ENDBRANCH  17  20
ENDBRANCH  15  16
ENDBRANCH  12  15
BRANCH   6  30
HETATM   30  S   UNL     1      43.493 -15.183   7.085  1.00  0.00    -0.082 SA
BRANCH  30  31
HETATM   31  C   UNL     1      45.112 -14.389   6.868  1.00  0.00     0.185 C 
BRANCH  31  32
HETATM   32  C   UNL     1      45.256 -13.208   7.814  1.00  0.00     0.232 C 
HETATM   33  N   UNL     1      44.151 -13.033   8.633  1.00  0.00    -0.324 N 
HETATM   34  H   UNL     1      43.561 -13.853   8.747  1.00  0.00     0.169 HD
HETATM   35  O   UNL     1      46.270 -12.518   7.801  1.00  0.00    -0.272 OA
BRANCH  33  36
HETATM   36  C   UNL     1      43.943 -11.976   9.547  1.00  0.00     0.073 A 
HETATM   37  C   UNL     1      44.661 -11.788  10.735  1.00  0.00     0.143 A 
HETATM   38  F   UNL     1      45.706 -12.561  11.059  1.00  0.00    -0.204 F 
HETATM   39  C   UNL     1      44.373 -10.722  11.589  1.00  0.00     0.044 A 
HETATM   40  C   UNL     1      43.373  -9.813  11.258  1.00  0.00     0.003 A 
HETATM   41  C   UNL     1      42.674  -9.962  10.063  1.00  0.00     0.002 A 
HETATM   42  C   UNL     1      42.963 -11.032   9.208  1.00  0.00     0.033 A 
ENDBRANCH  33  36
ENDBRANCH  31  32
ENDBRANCH  30  31
ENDBRANCH   6  30
TORSDOF 8
ENDMDL
MODEL 4
REMARK VINA RESULT:      -9.5      5.014     10.619
REMARK  8 active torsions:
REMARK  status: ('A' for Active; 'I' for Inactive)
REMARK    1  A    between atoms: C_6  and  S_7 
REMARK    2  A    between atoms: S_7  and  C_8 
REMARK    3  A    between atoms: C_8  and  C_9 
REMARK       I    between atoms: C_9  and  N_10 
REMARK    4  A    between atoms: N_10  and  C_11 
REMARK    5  A    between atoms: C_24  and  C_25 
REMARK    6  A    between atoms: C_25  and  C_26 
REMARK       I    between atoms: C_26  and  N_27 
REMARK    7  A    between atoms: N_27  and  C_28 
REMARK    8  A    between atoms: C_28  and  C_29 
ROOT
HETATM    1  C   UNL     1      44.437 -20.196   2.496  1.00  0.00     0.001 A 
HETATM    2  C   UNL     1      43.751 -19.103   1.968  1.00  0.00     0.018 A 
HETATM    3  C   UNL     1      43.309 -18.095   2.829  1.00  0.00     0.039 A 
HETATM    4  C   UNL     1      43.530 -18.165   4.211  1.00  0.00     0.073 A 
HETATM    5  N   UNL     1      43.119 -17.151   5.096  1.00  0.00    -0.223 NA
HETATM    6  C   UNL     1      42.547 -16.105   4.589  1.00  0.00     0.178 A 
HETATM    7  N   UNL     1      42.285 -15.949   3.236  1.00  0.00    -0.241 N 
HETATM    8  C   UNL     1      42.639 -16.891   2.326  1.00  0.00     0.147 A 
HETATM    9  N   UNL     1      42.370 -16.656   1.073  1.00  0.00    -0.256 NA
HETATM   10  C   UNL     1      41.653 -14.935   2.555  1.00  0.00     0.257 C 
HETATM   11  O   UNL     1      41.067 -13.958   2.989  1.00  0.00    -0.270 OA
HETATM   12  C   UNL     1      41.794 -15.283   1.084  1.00  0.00     0.211 C 
HETATM   13  C   UNL     1      44.218 -19.266   4.723  1.00  0.00     0.032 A 
HETATM   14  C   UNL     1      44.673 -20.276   3.870  1.00  0.00     0.002 A 
ENDROOT
BRANCH  12  15
HETATM   15  C   UNL     1      40.481 -15.120   0.339  1.00  0.00     0.140 C 
BRANCH  15  16
HETATM   16  C   UNL     1      40.539 -14.645  -1.093  1.00  0.00     0.220 C 
HETATM   17  N   UNL     1      41.813 -14.506  -1.589  1.00  0.00    -0.357 N 
HETATM   18  H   UNL     1      42.479 -15.210  -1.294  1.00  0.00     0.162 HD
HETATM   19  O   UNL     1      39.529 -14.314  -1.706  1.00  0.00    -0.274 OA
BRANCH  17  20
HETATM   20  C   UNL     1      42.030 -13.878  -2.873  1.00  0.00     0.161 C 
BRANCH  20  21
HETATM   21  C   UNL     1      42.335 -12.400  -2.770  1.00  0.00    -0.038 A 
HETATM   22  C   UNL     1      42.860 -11.900  -1.564  1.00  0.00     0.048 A 
HETATM   23  C   UNL     1      43.170 -10.557  -1.489  1.00  0.00     0.105 A 
HETATM   24  C   UNL     1      42.985  -9.709  -2.553  1.00  0.00     0.105 A 
HETATM   25  O   UNL     1      43.683  -9.920  -0.402  1.00  0.00    -0.323 OA
HETATM   26  O   UNL     1      43.349  -8.431  -2.271  1.00  0.00    -0.323 OA
HETATM   27  C   UNL     1      42.493 -10.159  -3.758  1.00  0.00     0.040 A 
HETATM   28  C   UNL     1      43.797  -8.573  -0.907  1.00  0.00     0.352 A 
HETATM   29  C   UNL     1      42.180 -11.519  -3.867  1.00  0.00     0.012 A 
ENDBRANCH  20  21
ENDBRANCH  17  20
ENDBRANCH  15  16
ENDBRANCH  12  15
BRANCH   6  30
HETATM   30  S   UNL     1      42.134 -14.825   5.694  1.00  0.00    -0.082 SA
BRANCH  30  31
HETATM   31  C   UNL     1      43.746 -13.991   5.757  1.00  0.00     0.185 C 
BRANCH  31  32
HETATM   32  C   UNL     1      44.124 -13.671   7.194  1.00  0.00     0.232 C 
HETATM   33  N   UNL     1      43.727 -12.401   7.587  1.00  0.00    -0.324 N 
HETATM   34  H   UNL     1      42.982 -11.988   7.032  1.00  0.00     0.169 HD
HETATM   35  O   UNL     1      44.720 -14.493   7.880  1.00  0.00    -0.272 OA
BRANCH  33  36
HETATM   36  C   UNL     1      44.013 -11.778   8.822  1.00  0.00     0.073 A 
HETATM   37  C   UNL     1      45.298 -11.569   9.338  1.00  0.00     0.143 A 
HETATM   38  F   UNL     1      46.399 -11.859   8.632  1.00  0.00    -0.204 F 
HETATM   39  C   UNL     1      45.484 -10.961  10.581  1.00  0.00     0.044 A 
HETATM   40  C   UNL     1      44.387 -10.531  11.320  1.00  0.00     0.003 A 
HETATM   41  C   UNL     1      43.102 -10.696  10.805  1.00  0.00     0.002 A 
HETATM   42  C   UNL     1      42.917 -11.308   9.561  1.00  0.00     0.033 A 
ENDBRANCH  33  36
ENDBRANCH  31  32
ENDBRANCH  30  31
ENDBRANCH   6  30
TORSDOF 8
ENDMDL
MODEL 5
REMARK VINA RESULT:      -9.5      3.260      8.227
REMARK  8 active torsions:
REMARK  status: ('A' for Active; 'I' for Inactive)
REMARK    1  A    between atoms: C_6  and  S_7 
REMARK    2  A    between atoms: S_7  and  C_8 
REMARK    3  A    between atoms: C_8  and  C_9 
REMARK       I    between atoms: C_9  and  N_10 
REMARK    4  A    between atoms: N_10  and  C_11 
REMARK    5  A    between atoms: C_24  and  C_25 
REMARK    6  A    between atoms: C_25  and  C_26 
REMARK       I    between atoms: C_26  and  N_27 
REMARK    7  A    between atoms: N_27  and  C_28 
REMARK    8  A    between atoms: C_28  and  C_29 
ROOT
HETATM    1  C   UNL     1      39.868  -9.989   4.378  1.00  0.00     0.001 A 
HETATM    2  C   UNL     1      40.916 -10.799   4.813  1.00  0.00     0.018 A 
HETATM    3  C   UNL     1      40.915 -12.155   4.476  1.00  0.00     0.039 A 
HETATM    4  C   UNL     1      39.879 -12.719   3.721  1.00  0.00     0.073 A 
HETATM    5  N   UNL     1      39.867 -14.076   3.346  1.00  0.00    -0.223 NA
HETATM    6  C   UNL     1      40.881 -14.805   3.692  1.00  0.00     0.178 A 
HETATM    7  N   UNL     1      41.949 -14.335   4.440  1.00  0.00    -0.241 N 
HETATM    8  C   UNL     1      42.021 -13.043   4.851  1.00  0.00     0.147 A 
HETATM    9  N   UNL     1      43.069 -12.681   5.535  1.00  0.00    -0.256 NA
HETATM   10  C   UNL     1      43.063 -14.982   4.923  1.00  0.00     0.257 C 
HETATM   11  O   UNL     1      43.338 -16.169   4.900  1.00  0.00    -0.270 OA
HETATM   12  C   UNL     1      43.922 -13.901   5.552  1.00  0.00     0.211 C 
HETATM   13  C   UNL     1      38.837 -11.895   3.294  1.00  0.00     0.032 A 
HETATM   14  C   UNL     1      38.832 -10.535   3.617  1.00  0.00     0.002 A 
ENDROOT
BRANCH  12  15
HETATM   15  C   UNL     1      44.437 -14.317   6.919  1.00  0.00     0.140 C 
BRANCH  15  16
HETATM   16  C   UNL     1      45.116 -13.266   7.765  1.00  0.00     0.220 C 
HETATM   17  N   UNL     1      44.285 -12.645   8.666  1.00  0.00    -0.357 N 
HETATM   18  H   UNL     1      43.593 -13.239   9.109  1.00  0.00     0.162 HD
HETATM   19  O   UNL     1      46.282 -12.935   7.573  1.00  0.00    -0.274 OA
BRANCH  17  20
HETATM   20  C   UNL     1      44.744 -11.490   9.404  1.00  0.00     0.161 C 
BRANCH  20  21
HETATM   21  C   UNL     1      43.744 -11.001  10.428  1.00  0.00    -0.038 A 
HETATM   22  C   UNL     1      42.372 -11.096  10.133  1.00  0.00     0.048 A 
HETATM   23  C   UNL     1      41.464 -10.681  11.088  1.00  0.00     0.105 A 
HETATM   24  C   UNL     1      41.865 -10.188  12.305  1.00  0.00     0.105 A 
HETATM   25  O   UNL     1      40.110 -10.707  10.959  1.00  0.00    -0.323 OA
HETATM   26  O   UNL     1      40.818  -9.834  13.095  1.00  0.00    -0.323 OA
HETATM   27  C   UNL     1      43.197 -10.096  12.644  1.00  0.00     0.040 A 
HETATM   28  C   UNL     1      39.707 -10.173  12.238  1.00  0.00     0.352 A 
HETATM   29  C   UNL     1      44.140 -10.520  11.700  1.00  0.00     0.012 A 
ENDBRANCH  20  21
ENDBRANCH  17  20
ENDBRANCH  15  16
ENDBRANCH  12  15
BRANCH   6  30
HETATM   30  S   UNL     1      40.886 -16.454   3.135  1.00  0.00    -0.082 SA
BRANCH  30  31
HETATM   31  C   UNL     1      42.014 -16.259   1.725  1.00  0.00     0.185 C 
BRANCH  31  32
HETATM   32  C   UNL     1      42.914 -17.476   1.591  1.00  0.00     0.232 C 
HETATM   33  N   UNL     1      42.668 -18.440   2.557  1.00  0.00    -0.324 N 
HETATM   34  H   UNL     1      41.754 -18.388   2.999  1.00  0.00     0.169 HD
HETATM   35  O   UNL     1      43.755 -17.535   0.700  1.00  0.00    -0.272 OA
BRANCH  33  36
HETATM   36  C   UNL     1      43.396 -19.634   2.756  1.00  0.00     0.073 A 
HETATM   37  C   UNL     1      44.243 -19.887   3.842  1.00  0.00     0.143 A 
HETATM   38  F   UNL     1      44.354 -19.030   4.866  1.00  0.00    -0.204 F 
HETATM   39  C   UNL     1      44.940 -21.092   3.947  1.00  0.00     0.044 A 
HETATM   40  C   UNL     1      44.784 -22.075   2.974  1.00  0.00     0.003 A 
HETATM   41  C   UNL     1      43.917 -21.857   1.906  1.00  0.00     0.002 A 
HETATM   42  C   UNL     1      43.220 -20.647   1.802  1.00  0.00     0.033 A 
ENDBRANCH  33  36
ENDBRANCH  31  32
ENDBRANCH  30  31
ENDBRANCH   6  30
TORSDOF 8
ENDMDL
MODEL 6
REMARK VINA RESULT:      -9.3      2.681      6.744
REMARK  8 active torsions:
REMARK  status: ('A' for Active; 'I' for Inactive)
REMARK    1  A    between atoms: C_6  and  S_7 
REMARK    2  A    between atoms: S_7  and  C_8 
REMARK    3  A    between atoms: C_8  and  C_9 
REMARK       I    between atoms: C_9  and  N_10 
REMARK    4  A    between atoms: N_10  and  C_11 
REMARK    5  A    between atoms: C_24  and  C_25 
REMARK    6  A    between atoms: C_25  and  C_26 
REMARK       I    between atoms: C_26  and  N_27 
REMARK    7  A    between atoms: N_27  and  C_28 
REMARK    8  A    between atoms: C_28  and  C_29 
ROOT
HETATM    1  C   UNL     1      45.140 -14.157   6.510  1.00  0.00     0.001 A 
HETATM    2  C   UNL     1      44.049 -14.043   5.649  1.00  0.00     0.018 A 
HETATM    3  C   UNL     1      42.994 -13.192   5.992  1.00  0.00     0.039 A 
HETATM    4  C   UNL     1      43.005 -12.461   7.187  1.00  0.00     0.073 A 
HETATM    5  N   UNL     1      41.969 -11.578   7.542  1.00  0.00    -0.223 NA
HETATM    6  C   UNL     1      40.995 -11.423   6.703  1.00  0.00     0.178 A 
HETATM    7  N   UNL     1      40.898 -12.105   5.499  1.00  0.00    -0.241 N 
HETATM    8  C   UNL     1      41.851 -12.983   5.097  1.00  0.00     0.147 A 
HETATM    9  N   UNL     1      41.691 -13.568   3.944  1.00  0.00    -0.256 NA
HETATM   10  C   UNL     1      39.920 -12.089   4.533  1.00  0.00     0.257 C 
HETATM   11  O   UNL     1      38.830 -11.542   4.544  1.00  0.00    -0.270 OA
HETATM   12  C   UNL     1      40.452 -12.946   3.400  1.00  0.00     0.211 C 
HETATM   13  C   UNL     1      44.104 -12.587   8.038  1.00  0.00     0.032 A 
HETATM   14  C   UNL     1      45.169 -13.427   7.701  1.00  0.00     0.002 A 
ENDROOT
BRANCH  12  15
HETATM   15  C   UNL     1      39.403 -13.919   2.891  1.00  0.00     0.140 C 
BRANCH  15  16
HETATM   16  C   UNL     1      39.871 -15.076   2.040  1.00  0.00     0.220 C 
HETATM   17  N   UNL     1      40.336 -16.152   2.759  1.00  0.00    -0.357 N 
HETATM   18  H   UNL     1      39.831 -16.361   3.613  1.00  0.00     0.162 HD
HETATM   19  O   UNL     1      39.925 -15.001   0.817  1.00  0.00    -0.274 OA
BRANCH  17  20
HETATM   20  C   UNL     1      40.993 -17.249   2.086  1.00  0.00     0.161 C 
BRANCH  20  21
HETATM   21  C   UNL     1      42.159 -17.815   2.866  1.00  0.00    -0.038 A 
HETATM   22  C   UNL     1      42.399 -17.335   4.166  1.00  0.00     0.048 A 
HETATM   23  C   UNL     1      43.443 -17.883   4.886  1.00  0.00     0.105 A 
HETATM   24  C   UNL     1      44.239 -18.875   4.369  1.00  0.00     0.105 A 
HETATM   25  O   UNL     1      43.805 -17.532   6.149  1.00  0.00    -0.323 OA
HETATM   26  O   UNL     1      45.208 -19.270   5.235  1.00  0.00    -0.323 OA
HETATM   27  C   UNL     1      44.028 -19.388   3.109  1.00  0.00     0.040 A 
HETATM   28  C   UNL     1      44.923 -18.419   6.366  1.00  0.00     0.352 A 
HETATM   29  C   UNL     1      42.969 -18.860   2.360  1.00  0.00     0.012 A 
ENDBRANCH  20  21
ENDBRANCH  17  20
ENDBRANCH  15  16
ENDBRANCH  12  15
BRANCH   6  30
HETATM   30  S   UNL     1      39.774 -10.255   7.125  1.00  0.00    -0.082 SA
BRANCH  30  31
HETATM   31  C   UNL     1      39.134 -11.063   8.620  1.00  0.00     0.185 C 
BRANCH  31  32
HETATM   32  C   UNL     1      39.699 -10.401   9.866  1.00  0.00     0.232 C 
HETATM   33  N   UNL     1      40.861 -11.007  10.321  1.00  0.00    -0.324 N 
HETATM   34  H   UNL     1      41.359 -11.562   9.631  1.00  0.00     0.169 HD
HETATM   35  O   UNL     1      39.135  -9.435  10.370  1.00  0.00    -0.272 OA
BRANCH  33  36
HETATM   36  C   UNL     1      41.568 -10.685  11.501  1.00  0.00     0.073 A 
HETATM   37  C   UNL     1      41.142 -10.989  12.800  1.00  0.00     0.143 A 
HETATM   38  F   UNL     1      40.045 -11.723  13.031  1.00  0.00    -0.204 F 
HETATM   39  C   UNL     1      41.899 -10.614  13.912  1.00  0.00     0.044 A 
HETATM   40  C   UNL     1      43.107  -9.946  13.740  1.00  0.00     0.003 A 
HETATM   41  C   UNL     1      43.566  -9.670  12.454  1.00  0.00     0.002 A 
HETATM   42  C   UNL     1      42.805 -10.045  11.341  1.00  0.00     0.033 A 
ENDBRANCH  33  36
ENDBRANCH  31  32
ENDBRANCH  30  31
ENDBRANCH   6  30
TORSDOF 8
ENDMDL
MODEL 7
REMARK VINA RESULT:      -9.3      4.742      8.251
REMARK  8 active torsions:
REMARK  status: ('A' for Active; 'I' for Inactive)
REMARK    1  A    between atoms: C_6  and  S_7 
REMARK    2  A    between atoms: S_7  and  C_8 
REMARK    3  A    between atoms: C_8  and  C_9 
REMARK       I    between atoms: C_9  and  N_10 
REMARK    4  A    between atoms: N_10  and  C_11 
REMARK    5  A    between atoms: C_24  and  C_25 
REMARK    6  A    between atoms: C_25  and  C_26 
REMARK       I    between atoms: C_26  and  N_27 
REMARK    7  A    between atoms: N_27  and  C_28 
REMARK    8  A    between atoms: C_28  and  C_29 
ROOT
HETATM    1  C   UNL     1      42.762 -11.199  -2.288  1.00  0.00     0.001 A 
HETATM    2  C   UNL     1      42.196 -12.270  -1.597  1.00  0.00     0.018 A 
HETATM    3  C   UNL     1      41.669 -12.057  -0.321  1.00  0.00     0.039 A 
HETATM    4  C   UNL     1      41.707 -10.794   0.284  1.00  0.00     0.073 A 
HETATM    5  N   UNL     1      41.160 -10.547   1.556  1.00  0.00    -0.223 NA
HETATM    6  C   UNL     1      40.572 -11.532   2.160  1.00  0.00     0.178 A 
HETATM    7  N   UNL     1      40.487 -12.814   1.642  1.00  0.00    -0.241 N 
HETATM    8  C   UNL     1      41.005 -13.130   0.427  1.00  0.00     0.147 A 
HETATM    9  N   UNL     1      40.866 -14.356   0.008  1.00  0.00    -0.256 NA
HETATM   10  C   UNL     1      39.947 -13.963   2.169  1.00  0.00     0.257 C 
HETATM   11  O   UNL     1      39.493 -14.165   3.283  1.00  0.00    -0.270 OA
HETATM   12  C   UNL     1      40.048 -15.004   1.070  1.00  0.00     0.211 C 
HETATM   13  C   UNL     1      42.277  -9.733  -0.421  1.00  0.00     0.032 A 
HETATM   14  C   UNL     1      42.799  -9.931  -1.702  1.00  0.00     0.002 A 
ENDROOT
BRANCH  12  15
HETATM   15  C   UNL     1      40.585 -16.324   1.593  1.00  0.00     0.140 C 
BRANCH  15  16
HETATM   16  C   UNL     1      42.079 -16.455   1.772  1.00  0.00     0.220 C 
HETATM   17  N   UNL     1      42.622 -17.571   1.180  1.00  0.00    -0.357 N 
HETATM   18  H   UNL     1      42.225 -17.830   0.284  1.00  0.00     0.162 HD
HETATM   19  O   UNL     1      42.716 -15.681   2.479  1.00  0.00    -0.274 OA
BRANCH  17  20
HETATM   20  C   UNL     1      43.999 -17.930   1.430  1.00  0.00     0.161 C 
BRANCH  20  21
HETATM   21  C   UNL     1      44.159 -18.946   2.539  1.00  0.00    -0.038 A 
HETATM   22  C   UNL     1      44.268 -20.307   2.199  1.00  0.00     0.048 A 
HETATM   23  C   UNL     1      44.450 -21.225   3.214  1.00  0.00     0.105 A 
HETATM   24  C   UNL     1      44.531 -20.844   4.531  1.00  0.00     0.105 A 
HETATM   25  O   UNL     1      44.573 -22.570   3.055  1.00  0.00    -0.323 OA
HETATM   26  O   UNL     1      44.707 -21.899   5.369  1.00  0.00    -0.323 OA
HETATM   27  C   UNL     1      44.450 -19.522   4.907  1.00  0.00     0.040 A 
HETATM   28  C   UNL     1      44.740 -22.991   4.425  1.00  0.00     0.352 A 
HETATM   29  C   UNL     1      44.276 -18.567   3.899  1.00  0.00     0.012 A 
ENDBRANCH  20  21
ENDBRANCH  17  20
ENDBRANCH  15  16
ENDBRANCH  12  15
BRANCH   6  30
HETATM   30  S   UNL     1      39.822 -11.176   3.691  1.00  0.00    -0.082 SA
BRANCH  30  31
HETATM   31  C   UNL     1      41.317 -10.760   4.634  1.00  0.00     0.185 C 
BRANCH  31  32
HETATM   32  C   UNL     1      41.651 -11.868   5.618  1.00  0.00     0.232 C 
HETATM   33  N   UNL     1      42.038 -13.046   4.996  1.00  0.00    -0.324 N 
HETATM   34  H   UNL     1      42.367 -12.943   4.040  1.00  0.00     0.169 HD
HETATM   35  O   UNL     1      41.562 -11.677   6.826  1.00  0.00    -0.272 OA
BRANCH  33  36
HETATM   36  C   UNL     1      42.320 -14.277   5.630  1.00  0.00     0.073 A 
HETATM   37  C   UNL     1      43.557 -14.631   6.182  1.00  0.00     0.143 A 
HETATM   38  F   UNL     1      44.576 -13.764   6.247  1.00  0.00    -0.204 F 
HETATM   39  C   UNL     1      43.750 -15.880   6.774  1.00  0.00     0.044 A 
HETATM   40  C   UNL     1      42.699 -16.790   6.841  1.00  0.00     0.003 A 
HETATM   41  C   UNL     1      41.451 -16.441   6.332  1.00  0.00     0.002 A 
HETATM   42  C   UNL     1      41.260 -15.188   5.737  1.00  0.00     0.033 A 
ENDBRANCH  33  36
ENDBRANCH  31  32
ENDBRANCH  30  31
ENDBRANCH   6  30
TORSDOF 8
ENDMDL
MODEL 8
REMARK VINA RESULT:      -9.2      3.162      9.536
REMARK  8 active torsions:
REMARK  status: ('A' for Active; 'I' for Inactive)
REMARK    1  A    between atoms: C_6  and  S_7 
REMARK    2  A    between atoms: S_7  and  C_8 
REMARK    3  A    between atoms: C_8  and  C_9 
REMARK       I    between atoms: C_9  and  N_10 
REMARK    4  A    between atoms: N_10  and  C_11 
REMARK    5  A    between atoms: C_24  and  C_25 
REMARK    6  A    between atoms: C_25  and  C_26 
REMARK       I    between atoms: C_26  and  N_27 
REMARK    7  A    between atoms: N_27  and  C_28 
REMARK    8  A    between atoms: C_28  and  C_29 
ROOT
HETATM    1  C   UNL     1      43.955 -19.959   2.369  1.00  0.00     0.001 A 
HETATM    2  C   UNL     1      43.255 -18.757   2.465  1.00  0.00     0.018 A 
HETATM    3  C   UNL     1      43.340 -18.010   3.643  1.00  0.00     0.039 A 
HETATM    4  C   UNL     1      44.102 -18.449   4.733  1.00  0.00     0.073 A 
HETATM    5  N   UNL     1      44.225 -17.703   5.920  1.00  0.00    -0.223 NA
HETATM    6  C   UNL     1      43.631 -16.553   5.973  1.00  0.00     0.178 A 
HETATM    7  N   UNL     1      42.854 -16.039   4.946  1.00  0.00    -0.241 N 
HETATM    8  C   UNL     1      42.678 -16.709   3.779  1.00  0.00     0.147 A 
HETATM    9  N   UNL     1      41.946 -16.145   2.860  1.00  0.00    -0.256 NA
HETATM   10  C   UNL     1      42.128 -14.874   4.865  1.00  0.00     0.257 C 
HETATM   11  O   UNL     1      41.902 -14.041   5.727  1.00  0.00    -0.270 OA
HETATM   12  C   UNL     1      41.603 -14.818   3.443  1.00  0.00     0.211 C 
HETATM   13  C   UNL     1      44.797 -19.654   4.621  1.00  0.00     0.032 A 
HETATM   14  C   UNL     1      44.728 -20.405   3.444  1.00  0.00     0.002 A 
ENDROOT
BRANCH  12  15
HETATM   15  C   UNL     1      40.131 -14.448   3.401  1.00  0.00     0.140 C 
BRANCH  15  16
HETATM   16  C   UNL     1      39.776 -12.999   3.163  1.00  0.00     0.220 C 
HETATM   17  N   UNL     1      40.578 -12.106   3.834  1.00  0.00    -0.357 N 
HETATM   18  H   UNL     1      41.559 -12.353   3.891  1.00  0.00     0.162 HD
HETATM   19  O   UNL     1      38.788 -12.673   2.513  1.00  0.00    -0.274 OA
BRANCH  17  20
HETATM   20  C   UNL     1      40.240 -10.701   3.858  1.00  0.00     0.161 C 
BRANCH  20  21
HETATM   21  C   UNL     1      40.019 -10.165   5.255  1.00  0.00    -0.038 A 
HETATM   22  C   UNL     1      39.663 -11.064   6.276  1.00  0.00     0.048 A 
HETATM   23  C   UNL     1      39.499 -10.573   7.556  1.00  0.00     0.105 A 
HETATM   24  C   UNL     1      39.677  -9.244   7.852  1.00  0.00     0.105 A 
HETATM   25  O   UNL     1      39.158 -11.307   8.650  1.00  0.00    -0.323 OA
HETATM   26  O   UNL     1      39.463  -8.970   9.166  1.00  0.00    -0.323 OA
HETATM   27  C   UNL     1      40.044  -8.333   6.888  1.00  0.00     0.040 A 
HETATM   28  C   UNL     1      39.142 -10.284   9.668  1.00  0.00     0.352 A 
HETATM   29  C   UNL     1      40.229  -8.803   5.583  1.00  0.00     0.012 A 
ENDBRANCH  20  21
ENDBRANCH  17  20
ENDBRANCH  15  16
ENDBRANCH  12  15
BRANCH   6  30
HETATM   30  S   UNL     1      43.876 -15.610   7.415  1.00  0.00    -0.082 SA
BRANCH  30  31
HETATM   31  C   UNL     1      45.100 -14.436   6.766  1.00  0.00     0.185 C 
BRANCH  31  32
HETATM   32  C   UNL     1      45.265 -13.260   7.714  1.00  0.00     0.232 C 
HETATM   33  N   UNL     1      44.158 -13.061   8.526  1.00  0.00    -0.324 N 
HETATM   34  H   UNL     1      43.550 -13.868   8.635  1.00  0.00     0.169 HD
HETATM   35  O   UNL     1      46.294 -12.593   7.708  1.00  0.00    -0.272 OA
BRANCH  33  36
HETATM   36  C   UNL     1      43.968 -12.000   9.439  1.00  0.00     0.073 A 
HETATM   37  C   UNL     1      44.675 -11.835  10.637  1.00  0.00     0.143 A 
HETATM   38  F   UNL     1      45.694 -12.638  10.972  1.00  0.00    -0.204 F 
HETATM   39  C   UNL     1      44.406 -10.763  11.490  1.00  0.00     0.044 A 
HETATM   40  C   UNL     1      43.436  -9.826  11.148  1.00  0.00     0.003 A 
HETATM   41  C   UNL     1      42.749  -9.952   9.943  1.00  0.00     0.002 A 
HETATM   42  C   UNL     1      43.019 -11.028   9.090  1.00  0.00     0.033 A 
ENDBRANCH  33  36
ENDBRANCH  31  32
ENDBRANCH  30  31
ENDBRANCH   6  30
TORSDOF 8
ENDMDL
MODEL 9
REMARK VINA RESULT:      -9.1      4.581      9.720
REMARK  8 active torsions:
REMARK  status: ('A' for Active; 'I' for Inactive)
REMARK    1  A    between atoms: C_6  and  S_7 
REMARK    2  A    between atoms: S_7  and  C_8 
REMARK    3  A    between atoms: C_8  and  C_9 
REMARK       I    between atoms: C_9  and  N_10 
REMARK    4  A    between atoms: N_10  and  C_11 
REMARK    5  A    between atoms: C_24  and  C_25 
REMARK    6  A    between atoms: C_25  and  C_26 
REMARK       I    between atoms: C_26  and  N_27 
REMARK    7  A    between atoms: N_27  and  C_28 
REMARK    8  A    between atoms: C_28  and  C_29 
ROOT
HETATM    1  C   UNL     1      45.115 -20.417   4.456  1.00  0.00     0.001 A 
HETATM    2  C   UNL     1      44.683 -19.147   4.840  1.00  0.00     0.018 A 
HETATM    3  C   UNL     1      43.756 -18.471   4.042  1.00  0.00     0.039 A 
HETATM    4  C   UNL     1      43.260 -19.036   2.861  1.00  0.00     0.073 A 
HETATM    5  N   UNL     1      42.306 -18.388   2.054  1.00  0.00    -0.223 NA
HETATM    6  C   UNL     1      41.857 -17.242   2.457  1.00  0.00     0.178 A 
HETATM    7  N   UNL     1      42.290 -16.605   3.609  1.00  0.00    -0.241 N 
HETATM    8  C   UNL     1      43.218 -17.163   4.428  1.00  0.00     0.147 A 
HETATM    9  N   UNL     1      43.556 -16.504   5.500  1.00  0.00    -0.256 NA
HETATM   10  C   UNL     1      41.952 -15.384   4.143  1.00  0.00     0.257 C 
HETATM   11  O   UNL     1      41.256 -14.500   3.673  1.00  0.00    -0.270 OA
HETATM   12  C   UNL     1      42.665 -15.312   5.481  1.00  0.00     0.211 C 
HETATM   13  C   UNL     1      43.702 -20.307   2.490  1.00  0.00     0.032 A 
HETATM   14  C   UNL     1      44.622 -20.997   3.284  1.00  0.00     0.002 A 
ENDROOT
BRANCH  12  15
HETATM   15  C   UNL     1      43.359 -13.975   5.677  1.00  0.00     0.140 C 
BRANCH  15  16
HETATM   16  C   UNL     1      44.253 -13.817   6.883  1.00  0.00     0.220 C 
HETATM   17  N   UNL     1      43.810 -12.888   7.795  1.00  0.00    -0.357 N 
HETATM   18  H   UNL     1      42.807 -12.856   7.937  1.00  0.00     0.162 HD
HETATM   19  O   UNL     1      45.331 -14.396   6.971  1.00  0.00    -0.274 OA
BRANCH  17  20
HETATM   20  C   UNL     1      44.654 -12.490   8.898  1.00  0.00     0.161 C 
BRANCH  20  21
HETATM   21  C   UNL     1      44.026 -11.432   9.778  1.00  0.00    -0.038 A 
HETATM   22  C   UNL     1      42.879 -10.762   9.316  1.00  0.00     0.048 A 
HETATM   23  C   UNL     1      42.290  -9.823  10.140  1.00  0.00     0.105 A 
HETATM   24  C   UNL     1      42.790  -9.536  11.387  1.00  0.00     0.105 A 
HETATM   25  O   UNL     1      41.181  -9.092   9.845  1.00  0.00    -0.323 OA
HETATM   26  O   UNL     1      42.067  -8.584  12.031  1.00  0.00    -0.323 OA
HETATM   27  C   UNL     1      43.898 -10.182  11.887  1.00  0.00     0.040 A 
HETATM   28  C   UNL     1      41.044  -8.311  11.051  1.00  0.00     0.352 A 
HETATM   29  C   UNL     1      44.510 -11.147  11.078  1.00  0.00     0.012 A 
ENDBRANCH  20  21
ENDBRANCH  17  20
ENDBRANCH  15  16
ENDBRANCH  12  15
BRANCH   6  30
HETATM   30  S   UNL     1      40.610 -16.506   1.490  1.00  0.00    -0.082 SA
BRANCH  30  31
HETATM   31  C   UNL     1      41.639 -15.944   0.103  1.00  0.00     0.185 C 
BRANCH  31  32
HETATM   32  C   UNL     1      41.016 -14.730  -0.565  1.00  0.00     0.232 C 
HETATM   33  N   UNL     1      39.637 -14.826  -0.682  1.00  0.00    -0.324 N 
HETATM   34  H   UNL     1      39.192 -15.484  -0.048  1.00  0.00     0.169 HD
HETATM   35  O   UNL     1      41.716 -13.797  -0.942  1.00  0.00    -0.272 OA
BRANCH  33  36
HETATM   36  C   UNL     1      38.785 -13.909  -1.337  1.00  0.00     0.073 A 
HETATM   37  C   UNL     1      38.361 -12.685  -0.804  1.00  0.00     0.143 A 
HETATM   38  F   UNL     1      38.827 -12.224   0.365  1.00  0.00    -0.204 F 
HETATM   39  C   UNL     1      37.501 -11.849  -1.517  1.00  0.00     0.044 A 
HETATM   40  C   UNL     1      37.065 -12.214  -2.787  1.00  0.00     0.003 A 
HETATM   41  C   UNL     1      37.507 -13.409  -3.349  1.00  0.00     0.002 A 
HETATM   42  C   UNL     1      38.368 -14.248  -2.632  1.00  0.00     0.033 A 
ENDBRANCH  33  36
ENDBRANCH  31  32
ENDBRANCH  30  31
ENDBRANCH   6  30
TORSDOF 8
ENDMDL
MODEL 10
REMARK VINA RESULT:      -8.9      4.309     10.067
REMARK  8 active torsions:
REMARK  status: ('A' for Active; 'I' for Inactive)
REMARK    1  A    between atoms: C_6  and  S_7 
REMARK    2  A    between atoms: S_7  and  C_8 
REMARK    3  A    between atoms: C_8  and  C_9 
REMARK       I    between atoms: C_9  and  N_10 
REMARK    4  A    between atoms: N_10  and  C_11 
REMARK    5  A    between atoms: C_24  and  C_25 
REMARK    6  A    between atoms: C_25  and  C_26 
REMARK       I    between atoms: C_26  and  N_27 
REMARK    7  A    between atoms: N_27  and  C_28 
REMARK    8  A    between atoms: C_28  and  C_29 
ROOT
HETATM    1  C   UNL     1      44.394 -21.156   2.283  1.00  0.00     0.001 A 
HETATM    2  C   UNL     1      43.546 -20.065   2.099  1.00  0.00     0.018 A 
HETATM    3  C   UNL     1      43.252 -19.238   3.187  1.00  0.00     0.039 A 
HETATM    4  C   UNL     1      43.782 -19.489   4.458  1.00  0.00     0.073 A 
HETATM    5  N   UNL     1      43.524 -18.656   5.563  1.00  0.00    -0.223 NA
HETATM    6  C   UNL     1      42.794 -17.604   5.367  1.00  0.00     0.178 A 
HETATM    7  N   UNL     1      42.226 -17.276   4.146  1.00  0.00    -0.241 N 
HETATM    8  C   UNL     1      42.419 -18.040   3.040  1.00  0.00     0.147 A 
HETATM    9  N   UNL     1      41.863 -17.650   1.929  1.00  0.00    -0.256 NA
HETATM   10  C   UNL     1      41.401 -16.236   3.789  1.00  0.00     0.257 C 
HETATM   11  O   UNL     1      40.873 -15.390   4.491  1.00  0.00    -0.270 OA
HETATM   12  C   UNL     1      41.227 -16.351   2.285  1.00  0.00     0.211 C 
HETATM   13  C   UNL     1      44.629 -20.585   4.626  1.00  0.00     0.032 A 
HETATM   14  C   UNL     1      44.937 -21.414   3.544  1.00  0.00     0.002 A 
ENDROOT
BRANCH  12  15
HETATM   15  C   UNL     1      39.773 -16.202   1.874  1.00  0.00     0.140 C 
BRANCH  15  16
HETATM   16  C   UNL     1      39.322 -14.856   1.360  1.00  0.00     0.220 C 
HETATM   17  N   UNL     1      39.385 -14.725  -0.007  1.00  0.00    -0.357 N 
HETATM   18  H   UNL     1      39.130 -15.549  -0.540  1.00  0.00     0.162 HD
HETATM   19  O   UNL     1      39.032 -13.936   2.119  1.00  0.00    -0.274 OA
BRANCH  17  20
HETATM   20  C   UNL     1      39.172 -13.437  -0.626  1.00  0.00     0.161 C 
BRANCH  20  21
HETATM   21  C   UNL     1      40.448 -12.647  -0.815  1.00  0.00    -0.038 A 
HETATM   22  C   UNL     1      40.556 -11.380  -0.214  1.00  0.00     0.048 A 
HETATM   23  C   UNL     1      41.737 -10.681  -0.361  1.00  0.00     0.105 A 
HETATM   24  C   UNL     1      42.798 -11.190  -1.068  1.00  0.00     0.105 A 
HETATM   25  O   UNL     1      42.001  -9.450   0.156  1.00  0.00    -0.323 OA
HETATM   26  O   UNL     1      43.861 -10.343  -1.095  1.00  0.00    -0.323 OA
HETATM   27  C   UNL     1      42.745 -12.433  -1.656  1.00  0.00     0.040 A 
HETATM   28  C   UNL     1      43.351  -9.245  -0.310  1.00  0.00     0.352 A 
HETATM   29  C   UNL     1      41.563 -13.171  -1.515  1.00  0.00     0.012 A 
ENDBRANCH  20  21
ENDBRANCH  17  20
ENDBRANCH  15  16
ENDBRANCH  12  15
BRANCH   6  30
HETATM   30  S   UNL     1      42.568 -16.542   6.729  1.00  0.00    -0.082 SA
BRANCH  30  31
HETATM   31  C   UNL     1      44.166 -15.681   6.667  1.00  0.00     0.185 C 
BRANCH  31  32
HETATM   32  C   UNL     1      43.961 -14.195   6.423  1.00  0.00     0.232 C 
HETATM   33  N   UNL     1      42.625 -13.852   6.271  1.00  0.00    -0.324 N 
HETATM   34  H   UNL     1      41.960 -14.517   6.655  1.00  0.00     0.169 HD
HETATM   35  O   UNL     1      44.920 -13.433   6.374  1.00  0.00    -0.272 OA
BRANCH  33  36
HETATM   36  C   UNL     1      42.120 -12.574   5.941  1.00  0.00     0.073 A 
HETATM   37  C   UNL     1      41.873 -12.120   4.640  1.00  0.00     0.143 A 
HETATM   38  F   UNL     1      42.003 -12.922   3.574  1.00  0.00    -0.204 F 
HETATM   39  C   UNL     1      41.390 -10.831   4.407  1.00  0.00     0.044 A 
HETATM   40  C   UNL     1      41.126  -9.981   5.476  1.00  0.00     0.003 A 
HETATM   41  C   UNL     1      41.328 -10.429   6.779  1.00  0.00     0.002 A 
HETATM   42  C   UNL     1      41.815 -11.721   7.011  1.00  0.00     0.033 A 
ENDBRANCH  33  36
ENDBRANCH  31  32
ENDBRANCH  30  31
ENDBRANCH   6  30
TORSDOF 8
ENDMDL
