MODEL 1
REMARK VINA RESULT:      -8.8      0.000      0.000
REMARK  2 active torsions:
REMARK  status: ('A' for Active; 'I' for Inactive)
REMARK    1  A    between atoms: C_2  and  C_3 
REMARK    2  A    between atoms: C_7  and  C_8 
REMARK       I    between atoms: C_8  and  N_9 
ROOT
HETATM    1  C   UNL     1      41.630 -13.978   0.717  1.00  0.00     0.271 C 
HETATM    2  N   UNL     1      41.821 -15.093   1.542  1.00  0.00    -0.347 N 
HETATM    3  C   UNL     1      40.730 -15.972   1.949  1.00  0.00     0.128 C 
HETATM    4  C   UNL     1      41.237 -17.394   2.142  1.00  0.00     0.055 C 
HETATM    5  C   UNL     1      42.395 -17.455   3.160  1.00  0.00     0.100 C 
HETATM    6  N   UNL     1      41.850 -17.140   4.516  1.00  0.00    -0.273 NA
HETATM    7  C   UNL     1      42.691 -17.542   5.583  1.00  0.00     0.036 A 
HETATM    8  C   UNL     1      43.586 -18.618   5.460  1.00  0.00     0.056 A 
HETATM    9  N   UNL     1      43.711 -19.275   4.233  1.00  0.00    -0.324 N 
HETATM   10  C   UNL     1      43.041 -18.868   3.106  1.00  0.00     0.245 C 
HETATM   11  O   UNL     1      43.062 -19.571   2.096  1.00  0.00    -0.271 OA
HETATM   12  C   UNL     1      42.494 -16.972   6.844  1.00  0.00     0.026 A 
HETATM   13  C   UNL     1      43.221 -17.424   7.947  1.00  0.00     0.002 A 
HETATM   14  C   UNL     1      44.130 -18.471   7.805  1.00  0.00     0.002 A 
HETATM   15  C   UNL     1      44.310 -19.078   6.561  1.00  0.00     0.031 A 
HETATM   16  C   UNL     1      43.484 -16.428   2.778  1.00  0.00     0.055 C 
HETATM   17  C   UNL     1      42.919 -15.039   2.503  1.00  0.00     0.128 C 
HETATM   18  O   UNL     1      42.270 -12.940   0.887  1.00  0.00    -0.266 OA
HETATM   19  H   UNL     1      40.967 -17.637   4.660  1.00  0.00     0.129 HD
HETATM   20  H   UNL     1      44.229 -20.141   4.165  1.00  0.00     0.169 HD
ENDROOT
BRANCH   1  21
HETATM   21  C   UNL     1      40.686 -14.071  -0.371  1.00  0.00     0.119 A 
HETATM   22  N   UNL     1      39.530 -13.337  -0.370  1.00  0.00    -0.273 N 
HETATM   23  N   UNL     1      38.741 -13.547  -1.437  1.00  0.00    -0.179 NA
HETATM   24  H   UNL     1      39.227 -12.683   0.346  1.00  0.00     0.189 HD
HETATM   25  C   UNL     1      39.440 -14.401  -2.192  1.00  0.00     0.060 A 
HETATM   26  C   UNL     1      40.682 -14.719  -1.591  1.00  0.00     0.066 A 
BRANCH  25  27
HETATM   27  C   UNL     1      38.914 -14.900  -3.509  1.00  0.00     0.031 C 
HETATM   28  C   UNL     1      37.385 -14.918  -3.529  1.00  0.00     0.016 C 
HETATM   29  C   UNL     1      39.471 -16.276  -3.886  1.00  0.00     0.016 C 
ENDBRANCH  25  27
ENDBRANCH   1  21
TORSDOF 2
ENDMDL
MODEL 2
REMARK VINA RESULT:      -8.5      3.013      7.959
REMARK  2 active torsions:
REMARK  status: ('A' for Active; 'I' for Inactive)
REMARK    1  A    between atoms: C_2  and  C_3 
REMARK    2  A    between atoms: C_7  and  C_8 
REMARK       I    between atoms: C_8  and  N_9 
ROOT
HETATM    1  C   UNL     1      43.354 -17.833   1.667  1.00  0.00     0.271 C 
HETATM    2  N   UNL     1      42.412 -16.910   2.139  1.00  0.00    -0.347 N 
HETATM    3  C   UNL     1      41.279 -17.293   2.975  1.00  0.00     0.128 C 
HETATM    4  C   UNL     1      40.908 -16.159   3.920  1.00  0.00     0.055 C 
HETATM    5  C   UNL     1      40.605 -14.853   3.155  1.00  0.00     0.100 C 
HETATM    6  N   UNL     1      39.335 -15.039   2.388  1.00  0.00    -0.273 NA
HETATM    7  C   UNL     1      38.732 -13.826   1.971  1.00  0.00     0.036 A 
HETATM    8  C   UNL     1      38.916 -12.623   2.673  1.00  0.00     0.056 A 
HETATM    9  N   UNL     1      39.771 -12.592   3.778  1.00  0.00    -0.324 N 
HETATM   10  C   UNL     1      40.506 -13.682   4.173  1.00  0.00     0.245 C 
HETATM   11  O   UNL     1      41.120 -13.651   5.239  1.00  0.00    -0.271 OA
HETATM   12  C   UNL     1      37.786 -13.866   0.942  1.00  0.00     0.026 A 
HETATM   13  C   UNL     1      37.084 -12.715   0.580  1.00  0.00     0.002 A 
HETATM   14  C   UNL     1      37.299 -11.520   1.265  1.00  0.00     0.002 A 
HETATM   15  C   UNL     1      38.210 -11.472   2.320  1.00  0.00     0.031 A 
HETATM   16  C   UNL     1      41.764 -14.532   2.184  1.00  0.00     0.055 C 
HETATM   17  C   UNL     1      42.164 -15.725   1.323  1.00  0.00     0.128 C 
HETATM   18  O   UNL     1      43.849 -17.724   0.546  1.00  0.00    -0.266 OA
HETATM   19  H   UNL     1      38.638 -15.503   2.977  1.00  0.00     0.129 HD
HETATM   20  H   UNL     1      39.797 -11.784   4.384  1.00  0.00     0.169 HD
ENDROOT
BRANCH   1  21
HETATM   21  C   UNL     1      43.766 -18.911   2.534  1.00  0.00     0.119 A 
HETATM   22  N   UNL     1      43.950 -20.179   2.051  1.00  0.00    -0.273 N 
HETATM   23  N   UNL     1      44.312 -21.078   2.980  1.00  0.00    -0.179 NA
HETATM   24  H   UNL     1      43.829 -20.484   1.089  1.00  0.00     0.189 HD
HETATM   25  C   UNL     1      44.431 -20.356   4.099  1.00  0.00     0.060 A 
HETATM   26  C   UNL     1      44.147 -18.989   3.860  1.00  0.00     0.066 A 
BRANCH  25  27
HETATM   27  C   UNL     1      44.836 -20.985   5.403  1.00  0.00     0.031 C 
HETATM   28  C   UNL     1      45.120 -22.478   5.239  1.00  0.00     0.016 C 
HETATM   29  C   UNL     1      43.810 -20.754   6.516  1.00  0.00     0.016 C 
ENDBRANCH  25  27
ENDBRANCH   1  21
TORSDOF 2
ENDMDL
MODEL 3
REMARK VINA RESULT:      -8.4      4.333      6.240
REMARK  2 active torsions:
REMARK  status: ('A' for Active; 'I' for Inactive)
REMARK    1  A    between atoms: C_2  and  C_3 
REMARK    2  A    between atoms: C_7  and  C_8 
REMARK       I    between atoms: C_8  and  N_9 
ROOT
HETATM    1  C   UNL     1      40.715 -14.713   4.317  1.00  0.00     0.271 C 
HETATM    2  N   UNL     1      41.624 -15.733   4.627  1.00  0.00    -0.347 N 
HETATM    3  C   UNL     1      43.065 -15.514   4.697  1.00  0.00     0.128 C 
HETATM    4  C   UNL     1      43.696 -16.447   5.720  1.00  0.00     0.055 C 
HETATM    5  C   UNL     1      43.383 -17.927   5.414  1.00  0.00     0.100 C 
HETATM    6  N   UNL     1      44.105 -18.315   4.163  1.00  0.00    -0.273 NA
HETATM    7  C   UNL     1      44.236 -19.714   3.984  1.00  0.00     0.036 A 
HETATM    8  C   UNL     1      44.262 -20.605   5.070  1.00  0.00     0.056 A 
HETATM    9  N   UNL     1      44.086 -20.116   6.368  1.00  0.00    -0.324 N 
HETATM   10  C   UNL     1      43.814 -18.797   6.629  1.00  0.00     0.245 C 
HETATM   11  O   UNL     1      43.824 -18.389   7.790  1.00  0.00    -0.271 OA
HETATM   12  C   UNL     1      44.529 -20.202   2.707  1.00  0.00     0.026 A 
HETATM   13  C   UNL     1      44.781 -21.560   2.509  1.00  0.00     0.002 A 
HETATM   14  C   UNL     1      44.773 -22.439   3.591  1.00  0.00     0.002 A 
HETATM   15  C   UNL     1      44.521 -21.962   4.878  1.00  0.00     0.031 A 
HETATM   16  C   UNL     1      41.861 -18.113   5.223  1.00  0.00     0.055 C 
HETATM   17  C   UNL     1      41.255 -17.097   4.260  1.00  0.00     0.128 C 
HETATM   18  O   UNL     1      39.712 -14.936   3.639  1.00  0.00    -0.266 OA
HETATM   19  H   UNL     1      45.061 -17.951   4.187  1.00  0.00     0.129 HD
HETATM   20  H   UNL     1      44.255 -20.712   7.167  1.00  0.00     0.169 HD
ENDROOT
BRANCH   1  21
HETATM   21  C   UNL     1      40.954 -13.388   4.836  1.00  0.00     0.119 A 
HETATM   22  N   UNL     1      41.440 -12.390   4.033  1.00  0.00    -0.273 N 
HETATM   23  N   UNL     1      41.632 -11.219   4.661  1.00  0.00    -0.179 NA
HETATM   24  H   UNL     1      41.668 -12.463   3.045  1.00  0.00     0.189 HD
HETATM   25  C   UNL     1      41.194 -11.444   5.905  1.00  0.00     0.060 A 
HETATM   26  C   UNL     1      40.717 -12.769   6.048  1.00  0.00     0.066 A 
BRANCH  25  27
HETATM   27  C   UNL     1      41.221 -10.369   6.956  1.00  0.00     0.031 C 
HETATM   28  C   UNL     1      41.544  -9.004   6.350  1.00  0.00     0.016 C 
HETATM   29  C   UNL     1      42.184 -10.688   8.103  1.00  0.00     0.016 C 
ENDBRANCH  25  27
ENDBRANCH   1  21
TORSDOF 2
ENDMDL
MODEL 4
REMARK VINA RESULT:      -8.1      3.229      4.354
REMARK  2 active torsions:
REMARK  status: ('A' for Active; 'I' for Inactive)
REMARK    1  A    between atoms: C_2  and  C_3 
REMARK    2  A    between atoms: C_7  and  C_8 
REMARK       I    between atoms: C_8  and  N_9 
ROOT
HETATM    1  C   UNL     1      40.275 -14.998   2.353  1.00  0.00     0.271 C 
HETATM    2  N   UNL     1      41.313 -15.822   2.805  1.00  0.00    -0.347 N 
HETATM    3  C   UNL     1      42.707 -15.618   2.426  1.00  0.00     0.128 C 
HETATM    4  C   UNL     1      43.634 -16.071   3.545  1.00  0.00     0.055 C 
HETATM    5  C   UNL     1      43.384 -17.543   3.934  1.00  0.00     0.100 C 
HETATM    6  N   UNL     1      43.827 -18.413   2.801  1.00  0.00    -0.273 NA
HETATM    7  C   UNL     1      44.030 -19.768   3.161  1.00  0.00     0.036 A 
HETATM    8  C   UNL     1      44.382 -20.147   4.467  1.00  0.00     0.056 A 
HETATM    9  N   UNL     1      44.470 -19.175   5.468  1.00  0.00    -0.324 N 
HETATM   10  C   UNL     1      44.157 -17.858   5.246  1.00  0.00     0.245 C 
HETATM   11  O   UNL     1      44.401 -17.017   6.112  1.00  0.00    -0.271 OA
HETATM   12  C   UNL     1      44.058 -20.733   2.150  1.00  0.00     0.026 A 
HETATM   13  C   UNL     1      44.371 -22.061   2.447  1.00  0.00     0.002 A 
HETATM   14  C   UNL     1      44.688 -22.430   3.754  1.00  0.00     0.002 A 
HETATM   15  C   UNL     1      44.702 -21.471   4.768  1.00  0.00     0.031 A 
HETATM   16  C   UNL     1      41.880 -17.765   4.212  1.00  0.00     0.055 C 
HETATM   17  C   UNL     1      40.985 -17.212   3.108  1.00  0.00     0.128 C 
HETATM   18  O   UNL     1      39.164 -15.457   2.087  1.00  0.00    -0.266 OA
HETATM   19  H   UNL     1      44.728 -18.087   2.444  1.00  0.00     0.129 HD
HETATM   20  H   UNL     1      44.869 -19.401   6.369  1.00  0.00     0.169 HD
ENDROOT
BRANCH   1  21
HETATM   21  C   UNL     1      40.515 -13.580   2.231  1.00  0.00     0.119 A 
HETATM   22  N   UNL     1      40.565 -12.773   3.337  1.00  0.00    -0.273 N 
HETATM   23  N   UNL     1      40.774 -11.474   3.064  1.00  0.00    -0.179 NA
HETATM   24  H   UNL     1      40.452 -13.062   4.304  1.00  0.00     0.189 HD
HETATM   25  C   UNL     1      40.929 -11.444   1.736  1.00  0.00     0.060 A 
HETATM   26  C   UNL     1      40.824 -12.741   1.178  1.00  0.00     0.066 A 
BRANCH  25  27
HETATM   27  C   UNL     1      41.197 -10.159   1.004  1.00  0.00     0.031 C 
HETATM   28  C   UNL     1      39.914  -9.575   0.412  1.00  0.00     0.016 C 
HETATM   29  C   UNL     1      42.269 -10.308  -0.081  1.00  0.00     0.016 C 
ENDBRANCH  25  27
ENDBRANCH   1  21
TORSDOF 2
ENDMDL
MODEL 5
REMARK VINA RESULT:      -7.9      2.578      3.718
REMARK  2 active torsions:
REMARK  status: ('A' for Active; 'I' for Inactive)
REMARK    1  A    between atoms: C_2  and  C_3 
REMARK    2  A    between atoms: C_7  and  C_8 
REMARK       I    between atoms: C_8  and  N_9 
ROOT
HETATM    1  C   UNL     1      41.503 -15.774   0.086  1.00  0.00     0.271 C 
HETATM    2  N   UNL     1      42.049 -16.195   1.305  1.00  0.00    -0.347 N 
HETATM    3  C   UNL     1      43.374 -15.789   1.760  1.00  0.00     0.128 C 
HETATM    4  C   UNL     1      43.414 -15.712   3.280  1.00  0.00     0.055 C 
HETATM    5  C   UNL     1      42.999 -17.047   3.931  1.00  0.00     0.100 C 
HETATM    6  N   UNL     1      44.062 -18.061   3.650  1.00  0.00    -0.273 NA
HETATM    7  C   UNL     1      44.018 -19.193   4.501  1.00  0.00     0.036 A 
HETATM    8  C   UNL     1      43.490 -19.127   5.801  1.00  0.00     0.056 A 
HETATM    9  N   UNL     1      42.924 -17.932   6.257  1.00  0.00    -0.324 N 
HETATM   10  C   UNL     1      42.796 -16.825   5.457  1.00  0.00     0.245 C 
HETATM   11  O   UNL     1      42.438 -15.754   5.948  1.00  0.00    -0.271 OA
HETATM   12  C   UNL     1      44.682 -20.357   4.104  1.00  0.00     0.026 A 
HETATM   13  C   UNL     1      44.763 -21.455   4.963  1.00  0.00     0.002 A 
HETATM   14  C   UNL     1      44.206 -21.387   6.239  1.00  0.00     0.002 A 
HETATM   15  C   UNL     1      43.574 -20.219   6.666  1.00  0.00     0.031 A 
HETATM   16  C   UNL     1      41.650 -17.522   3.344  1.00  0.00     0.055 C 
HETATM   17  C   UNL     1      41.625 -17.493   1.819  1.00  0.00     0.128 C 
HETATM   18  O   UNL     1      40.804 -16.525  -0.594  1.00  0.00    -0.266 OA
HETATM   19  H   UNL     1      44.986 -17.645   3.794  1.00  0.00     0.129 HD
HETATM   20  H   UNL     1      42.681 -17.819   7.231  1.00  0.00     0.169 HD
ENDROOT
BRANCH   1  21
HETATM   21  C   UNL     1      41.745 -14.421  -0.355  1.00  0.00     0.119 A 
HETATM   22  N   UNL     1      42.052 -14.146  -1.661  1.00  0.00    -0.273 N 
HETATM   23  N   UNL     1      42.273 -12.845  -1.915  1.00  0.00    -0.179 NA
HETATM   24  H   UNL     1      42.133 -14.817  -2.419  1.00  0.00     0.189 HD
HETATM   25  C   UNL     1      42.038 -12.243  -0.744  1.00  0.00     0.060 A 
HETATM   26  C   UNL     1      41.659 -13.181   0.247  1.00  0.00     0.066 A 
BRANCH  25  27
HETATM   27  C   UNL     1      42.165 -10.754  -0.585  1.00  0.00     0.031 C 
HETATM   28  C   UNL     1      41.135 -10.012  -1.437  1.00  0.00     0.016 C 
HETATM   29  C   UNL     1      43.577 -10.244  -0.887  1.00  0.00     0.016 C 
ENDBRANCH  25  27
ENDBRANCH   1  21
TORSDOF 2
ENDMDL
MODEL 6
REMARK VINA RESULT:      -7.8      5.167      7.790
REMARK  2 active torsions:
REMARK  status: ('A' for Active; 'I' for Inactive)
REMARK    1  A    between atoms: C_2  and  C_3 
REMARK    2  A    between atoms: C_7  and  C_8 
REMARK       I    between atoms: C_8  and  N_9 
ROOT
HETATM    1  C   UNL     1      39.644 -12.347   6.094  1.00  0.00     0.271 C 
HETATM    2  N   UNL     1      40.667 -13.260   5.810  1.00  0.00    -0.347 N 
HETATM    3  C   UNL     1      42.052 -12.854   5.592  1.00  0.00     0.128 C 
HETATM    4  C   UNL     1      43.006 -13.946   6.055  1.00  0.00     0.055 C 
HETATM    5  C   UNL     1      42.716 -15.292   5.358  1.00  0.00     0.100 C 
HETATM    6  N   UNL     1      43.078 -15.163   3.913  1.00  0.00    -0.273 NA
HETATM    7  C   UNL     1      43.244 -16.404   3.248  1.00  0.00     0.036 A 
HETATM    8  C   UNL     1      43.634 -17.568   3.931  1.00  0.00     0.056 A 
HETATM    9  N   UNL     1      43.800 -17.532   5.318  1.00  0.00    -0.324 N 
HETATM   10  C   UNL     1      43.528 -16.413   6.065  1.00  0.00     0.245 C 
HETATM   11  O   UNL     1      43.839 -16.383   7.256  1.00  0.00    -0.271 OA
HETATM   12  C   UNL     1      43.194 -16.428   1.852  1.00  0.00     0.026 A 
HETATM   13  C   UNL     1      43.468 -17.605   1.153  1.00  0.00     0.002 A 
HETATM   14  C   UNL     1      43.823 -18.763   1.845  1.00  0.00     0.002 A 
HETATM   15  C   UNL     1      43.915 -18.745   3.237  1.00  0.00     0.031 A 
HETATM   16  C   UNL     1      41.217 -15.642   5.495  1.00  0.00     0.055 C 
HETATM   17  C   UNL     1      40.299 -14.487   5.110  1.00  0.00     0.128 C 
HETATM   18  O   UNL     1      38.507 -12.504   5.649  1.00  0.00    -0.266 OA
HETATM   19  H   UNL     1      43.976 -14.682   3.821  1.00  0.00     0.129 HD
HETATM   20  H   UNL     1      44.226 -18.310   5.804  1.00  0.00     0.169 HD
ENDROOT
BRANCH   1  21
HETATM   21  C   UNL     1      39.933 -11.223   6.951  1.00  0.00     0.119 A 
HETATM   22  N   UNL     1      40.078  -9.960   6.439  1.00  0.00    -0.273 N 
HETATM   23  N   UNL     1      40.367  -9.022   7.356  1.00  0.00    -0.179 NA
HETATM   24  H   UNL     1      39.998  -9.689   5.463  1.00  0.00     0.189 HD
HETATM   25  C   UNL     1      40.346  -9.686   8.516  1.00  0.00     0.060 A 
HETATM   26  C   UNL     1      40.032 -11.053   8.318  1.00  0.00     0.066 A 
BRANCH  25  27
HETATM   27  C   UNL     1      40.615  -8.996   9.824  1.00  0.00     0.031 C 
HETATM   28  C   UNL     1      41.924  -9.475  10.450  1.00  0.00     0.016 C 
HETATM   29  C   UNL     1      39.459  -9.143  10.819  1.00  0.00     0.016 C 
ENDBRANCH  25  27
ENDBRANCH   1  21
TORSDOF 2
ENDMDL
MODEL 7
REMARK VINA RESULT:      -7.7      5.111      8.844
REMARK  2 active torsions:
REMARK  status: ('A' for Active; 'I' for Inactive)
REMARK    1  A    between atoms: C_2  and  C_3 
REMARK    2  A    between atoms: C_7  and  C_8 
REMARK       I    between atoms: C_8  and  N_9 
ROOT
HETATM    1  C   UNL     1      40.235 -11.321   7.020  1.00  0.00     0.271 C 
HETATM    2  N   UNL     1      40.694 -12.378   6.225  1.00  0.00    -0.347 N 
HETATM    3  C   UNL     1      42.112 -12.676   6.046  1.00  0.00     0.128 C 
HETATM    4  C   UNL     1      42.319 -14.169   5.835  1.00  0.00     0.055 C 
HETATM    5  C   UNL     1      41.496 -14.698   4.642  1.00  0.00     0.100 C 
HETATM    6  N   UNL     1      42.069 -14.130   3.382  1.00  0.00    -0.273 NA
HETATM    7  C   UNL     1      41.683 -14.825   2.209  1.00  0.00     0.036 A 
HETATM    8  C   UNL     1      41.342 -16.188   2.229  1.00  0.00     0.056 A 
HETATM    9  N   UNL     1      41.311 -16.874   3.447  1.00  0.00    -0.324 N 
HETATM   10  C   UNL     1      41.534 -16.252   4.650  1.00  0.00     0.245 C 
HETATM   11  O   UNL     1      41.651 -16.926   5.673  1.00  0.00    -0.271 OA
HETATM   12  C   UNL     1      41.821 -14.185   0.975  1.00  0.00     0.026 A 
HETATM   13  C   UNL     1      41.564 -14.872  -0.212  1.00  0.00     0.002 A 
HETATM   14  C   UNL     1      41.195 -16.216  -0.177  1.00  0.00     0.002 A 
HETATM   15  C   UNL     1      41.091 -16.881   1.045  1.00  0.00     0.031 A 
HETATM   16  C   UNL     1      40.019 -14.265   4.790  1.00  0.00     0.055 C 
HETATM   17  C   UNL     1      39.864 -12.779   5.093  1.00  0.00     0.128 C 
HETATM   18  O   UNL     1      39.245 -10.663   6.699  1.00  0.00    -0.266 OA
HETATM   19  H   UNL     1      43.090 -14.185   3.410  1.00  0.00     0.129 HD
HETATM   20  H   UNL     1      41.221 -17.881   3.466  1.00  0.00     0.169 HD
ENDROOT
BRANCH   1  21
HETATM   21  C   UNL     1      40.926 -11.027   8.252  1.00  0.00     0.119 A 
HETATM   22  N   UNL     1      40.342 -11.273   9.467  1.00  0.00    -0.273 N 
HETATM   23  N   UNL     1      41.096 -10.927  10.523  1.00  0.00    -0.179 NA
HETATM   24  H   UNL     1      39.420 -11.668   9.628  1.00  0.00     0.189 HD
HETATM   25  C   UNL     1      42.240 -10.500   9.977  1.00  0.00     0.060 A 
HETATM   26  C   UNL     1      42.198 -10.589   8.564  1.00  0.00     0.066 A 
BRANCH  25  27
HETATM   27  C   UNL     1      43.385 -10.019  10.824  1.00  0.00     0.031 C 
HETATM   28  C   UNL     1      44.717 -10.592  10.340  1.00  0.00     0.016 C 
HETATM   29  C   UNL     1      43.185 -10.313  12.313  1.00  0.00     0.016 C 
ENDBRANCH  25  27
ENDBRANCH   1  21
TORSDOF 2
ENDMDL
MODEL 8
REMARK VINA RESULT:      -7.7      3.784      7.724
REMARK  2 active torsions:
REMARK  status: ('A' for Active; 'I' for Inactive)
REMARK    1  A    between atoms: C_2  and  C_3 
REMARK    2  A    between atoms: C_7  and  C_8 
REMARK       I    between atoms: C_8  and  N_9 
ROOT
HETATM    1  C   UNL     1      43.656 -17.515   2.171  1.00  0.00     0.271 C 
HETATM    2  N   UNL     1      43.049 -16.501   2.922  1.00  0.00    -0.347 N 
HETATM    3  C   UNL     1      42.028 -16.766   3.931  1.00  0.00     0.128 C 
HETATM    4  C   UNL     1      42.100 -15.732   5.045  1.00  0.00     0.055 C 
HETATM    5  C   UNL     1      41.968 -14.294   4.500  1.00  0.00     0.100 C 
HETATM    6  N   UNL     1      40.572 -14.104   3.999  1.00  0.00    -0.273 NA
HETATM    7  C   UNL     1      40.195 -12.747   3.845  1.00  0.00     0.036 A 
HETATM    8  C   UNL     1      40.770 -11.723   4.615  1.00  0.00     0.056 A 
HETATM    9  N   UNL     1      41.795 -12.028   5.515  1.00  0.00    -0.324 N 
HETATM   10  C   UNL     1      42.322 -13.289   5.633  1.00  0.00     0.245 C 
HETATM   11  O   UNL     1      43.109 -13.540   6.546  1.00  0.00    -0.271 OA
HETATM   12  C   UNL     1      39.096 -12.445   3.036  1.00  0.00     0.026 A 
HETATM   13  C   UNL     1      38.619 -11.136   2.950  1.00  0.00     0.002 A 
HETATM   14  C   UNL     1      39.219 -10.122   3.696  1.00  0.00     0.002 A 
HETATM   15  C   UNL     1      40.292 -10.414   4.538  1.00  0.00     0.031 A 
HETATM   16  C   UNL     1      42.976 -14.074   3.349  1.00  0.00     0.055 C 
HETATM   17  C   UNL     1      42.934 -15.183   2.303  1.00  0.00     0.128 C 
HETATM   18  O   UNL     1      43.954 -17.344   0.989  1.00  0.00    -0.266 OA
HETATM   19  H   UNL     1      39.906 -14.500   4.667  1.00  0.00     0.129 HD
HETATM   20  H   UNL     1      42.112 -11.339   6.184  1.00  0.00     0.169 HD
ENDROOT
BRANCH   1  21
HETATM   21  C   UNL     1      43.963 -18.769   2.817  1.00  0.00     0.119 A 
HETATM   22  N   UNL     1      44.027 -19.936   2.103  1.00  0.00    -0.273 N 
HETATM   23  N   UNL     1      44.300 -21.023   2.844  1.00  0.00    -0.179 NA
HETATM   24  H   UNL     1      43.880 -20.044   1.103  1.00  0.00     0.189 HD
HETATM   25  C   UNL     1      44.485 -20.536   4.075  1.00  0.00     0.060 A 
HETATM   26  C   UNL     1      44.332 -19.129   4.098  1.00  0.00     0.066 A 
BRANCH  25  27
HETATM   27  C   UNL     1      44.826 -21.432   5.233  1.00  0.00     0.031 C 
HETATM   28  C   UNL     1      44.734 -22.908   4.844  1.00  0.00     0.016 C 
HETATM   29  C   UNL     1      43.971 -21.150   6.472  1.00  0.00     0.016 C 
ENDBRANCH  25  27
ENDBRANCH   1  21
TORSDOF 2
ENDMDL
MODEL 9
REMARK VINA RESULT:      -7.6      4.178      6.981
REMARK  2 active torsions:
REMARK  status: ('A' for Active; 'I' for Inactive)
REMARK    1  A    between atoms: C_2  and  C_3 
REMARK    2  A    between atoms: C_7  and  C_8 
REMARK       I    between atoms: C_8  and  N_9 
ROOT
HETATM    1  C   UNL     1      42.816 -16.232   2.242  1.00  0.00     0.271 C 
HETATM    2  N   UNL     1      42.691 -15.495   3.427  1.00  0.00    -0.347 N 
HETATM    3  C   UNL     1      42.107 -16.048   4.645  1.00  0.00     0.128 C 
HETATM    4  C   UNL     1      42.744 -15.418   5.875  1.00  0.00     0.055 C 
HETATM    5  C   UNL     1      42.620 -13.881   5.859  1.00  0.00     0.100 C 
HETATM    6  N   UNL     1      41.180 -13.521   6.045  1.00  0.00    -0.273 NA
HETATM    7  C   UNL     1      40.968 -12.179   6.446  1.00  0.00     0.036 A 
HETATM    8  C   UNL     1      41.933 -11.457   7.170  1.00  0.00     0.056 A 
HETATM    9  N   UNL     1      43.170 -12.046   7.449  1.00  0.00    -0.324 N 
HETATM   10  C   UNL     1      43.517 -13.289   6.982  1.00  0.00     0.245 C 
HETATM   11  O   UNL     1      44.549 -13.826   7.385  1.00  0.00    -0.271 OA
HETATM   12  C   UNL     1      39.699 -11.620   6.276  1.00  0.00     0.026 A 
HETATM   13  C   UNL     1      39.416 -10.343   6.763  1.00  0.00     0.002 A 
HETATM   14  C   UNL     1      40.392  -9.624   7.453  1.00  0.00     0.002 A 
HETATM   15  C   UNL     1      41.652 -10.184   7.665  1.00  0.00     0.031 A 
HETATM   16  C   UNL     1      43.131 -13.326   4.510  1.00  0.00     0.055 C 
HETATM   17  C   UNL     1      42.536 -14.049   3.307  1.00  0.00     0.128 C 
HETATM   18  O   UNL     1      42.660 -15.703   1.142  1.00  0.00    -0.266 OA
HETATM   19  H   UNL     1      40.771 -14.096   6.786  1.00  0.00     0.129 HD
HETATM   20  H   UNL     1      43.812 -11.608   8.095  1.00  0.00     0.169 HD
ENDROOT
BRANCH   1  21
HETATM   21  C   UNL     1      43.165 -17.630   2.326  1.00  0.00     0.119 A 
HETATM   22  N   UNL     1      42.401 -18.588   1.714  1.00  0.00    -0.273 N 
HETATM   23  N   UNL     1      42.839 -19.845   1.899  1.00  0.00    -0.179 NA
HETATM   24  H   UNL     1      41.560 -18.434   1.165  1.00  0.00     0.189 HD
HETATM   25  C   UNL     1      43.965 -19.694   2.603  1.00  0.00     0.060 A 
HETATM   26  C   UNL     1      44.235 -18.326   2.852  1.00  0.00     0.066 A 
BRANCH  25  27
HETATM   27  C   UNL     1      44.795 -20.875   3.025  1.00  0.00     0.031 C 
HETATM   28  C   UNL     1      44.282 -22.170   2.395  1.00  0.00     0.016 C 
HETATM   29  C   UNL     1      44.889 -21.020   4.547  1.00  0.00     0.016 C 
ENDBRANCH  25  27
ENDBRANCH   1  21
TORSDOF 2
ENDMDL
MODEL 10
REMARK VINA RESULT:      -7.6      3.704      4.609
REMARK  2 active torsions:
REMARK  status: ('A' for Active; 'I' for Inactive)
REMARK    1  A    between atoms: C_2  and  C_3 
REMARK    2  A    between atoms: C_7  and  C_8 
REMARK       I    between atoms: C_8  and  N_9 
ROOT
HETATM    1  C   UNL     1      41.783 -12.883   4.534  1.00  0.00     0.271 C 
HETATM    2  N   UNL     1      41.882 -14.216   4.114  1.00  0.00    -0.347 N 
HETATM    3  C   UNL     1      40.798 -15.179   4.274  1.00  0.00     0.128 C 
HETATM    4  C   UNL     1      40.827 -16.205   3.151  1.00  0.00     0.055 C 
HETATM    5  C   UNL     1      42.189 -16.926   3.070  1.00  0.00     0.100 C 
HETATM    6  N   UNL     1      42.338 -17.794   4.279  1.00  0.00    -0.273 NA
HETATM    7  C   UNL     1      43.330 -18.797   4.149  1.00  0.00     0.036 A 
HETATM    8  C   UNL     1      43.693 -19.328   2.900  1.00  0.00     0.056 A 
HETATM    9  N   UNL     1      43.115 -18.812   1.736  1.00  0.00    -0.324 N 
HETATM   10  C   UNL     1      42.250 -17.748   1.751  1.00  0.00     0.245 C 
HETATM   11  O   UNL     1      41.649 -17.434   0.724  1.00  0.00    -0.271 OA
HETATM   12  C   UNL     1      43.829 -19.400   5.306  1.00  0.00     0.026 A 
HETATM   13  C   UNL     1      44.720 -20.472   5.219  1.00  0.00     0.002 A 
HETATM   14  C   UNL     1      45.096 -20.970   3.972  1.00  0.00     0.002 A 
HETATM   15  C   UNL     1      44.577 -20.404   2.808  1.00  0.00     0.031 A 
HETATM   16  C   UNL     1      43.332 -15.886   3.025  1.00  0.00     0.055 C 
HETATM   17  C   UNL     1      43.210 -14.823   4.111  1.00  0.00     0.128 C 
HETATM   18  O   UNL     1      42.749 -12.291   5.014  1.00  0.00    -0.266 OA
HETATM   19  H   UNL     1      41.464 -18.294   4.456  1.00  0.00     0.129 HD
HETATM   20  H   UNL     1      43.244 -19.280   0.849  1.00  0.00     0.169 HD
ENDROOT
BRANCH   1  21
HETATM   21  C   UNL     1      40.526 -12.193   4.365  1.00  0.00     0.119 A 
HETATM   22  N   UNL     1      39.698 -11.959   5.430  1.00  0.00    -0.273 N 
HETATM   23  N   UNL     1      38.556 -11.327   5.114  1.00  0.00    -0.179 NA
HETATM   24  H   UNL     1      39.865 -12.222   6.397  1.00  0.00     0.189 HD
HETATM   25  C   UNL     1      38.673 -11.083   3.804  1.00  0.00     0.060 A 
HETATM   26  C   UNL     1      39.908 -11.563   3.303  1.00  0.00     0.066 A 
BRANCH  25  27
HETATM   27  C   UNL     1      37.596 -10.370   3.036  1.00  0.00     0.031 C 
HETATM   28  C   UNL     1      37.350 -11.027   1.678  1.00  0.00     0.016 C 
HETATM   29  C   UNL     1      37.883  -8.875   2.864  1.00  0.00     0.016 C 
ENDBRANCH  25  27
ENDBRANCH   1  21
TORSDOF 2
ENDMDL
