MODEL 1
REMARK VINA RESULT:      -9.5      0.000      0.000
REMARK  7 active torsions:
REMARK  status: ('A' for Active; 'I' for Inactive)
REMARK    1  A    between atoms: C_3  and  N_4 
REMARK    2  A    between atoms: N_7  and  C_9 
REMARK    3  A    between atoms: N_12  and  C_13 
REMARK    4  A    between atoms: C_16  and  C_17 
REMARK       I    between atoms: C_17  and  N_18 
REMARK    5  A    between atoms: C_20  and  C_21 
REMARK    6  A    between atoms: C_21  and  O_22 
REMARK    7  A    between atoms: C_33  and  O_34 
ROOT
HETATM    1  C   UNL     1      42.332 -16.268   6.744  1.00  0.00     0.191 C 
HETATM    2  C   UNL     1      42.914 -15.037   6.027  1.00  0.00     0.053 C 
HETATM    3  C   UNL     1      42.965 -15.203   4.510  1.00  0.00     0.125 C 
HETATM    4  N   UNL     1      41.636 -15.588   4.042  1.00  0.00    -0.381 N 
HETATM    5  C   UNL     1      41.075 -16.815   4.594  1.00  0.00     0.125 C 
HETATM    6  C   UNL     1      40.984 -16.645   6.109  1.00  0.00     0.053 C 
ENDROOT
BRANCH   4   7
HETATM    7  C   UNL     1      41.330 -15.239   2.723  1.00  0.00     0.030 A 
HETATM    8  C   UNL     1      40.261 -14.398   2.375  1.00  0.00     0.030 A 
HETATM    9  C   UNL     1      40.018 -14.038   1.042  1.00  0.00     0.019 A 
HETATM   10  C   UNL     1      40.872 -14.489   0.035  1.00  0.00     0.032 A 
HETATM   11  C   UNL     1      41.924 -15.348   0.349  1.00  0.00     0.019 A 
HETATM   12  C   UNL     1      42.148 -15.711   1.680  1.00  0.00     0.030 A 
BRANCH  10  13
HETATM   13  C   UNL     1      40.651 -14.148  -1.386  1.00  0.00     0.253 C 
HETATM   14  N   UNL     1      41.227 -12.993  -1.925  1.00  0.00    -0.348 N 
HETATM   15  C   UNL     1      41.898 -11.955  -1.132  1.00  0.00     0.132 C 
HETATM   16  C   UNL     1      40.802 -12.608  -3.271  1.00  0.00     0.126 C 
HETATM   17  C   UNL     1      43.004 -11.227  -1.910  1.00  0.00     0.027 C 
HETATM   18  C   UNL     1      42.477 -10.736  -3.264  1.00  0.00     0.010 C 
HETATM   19  C   UNL     1      41.906 -11.908  -4.053  1.00  0.00     0.020 C 
HETATM   20  O   UNL     1      39.981 -14.946  -2.041  1.00  0.00    -0.267 OA
BRANCH  17  21
HETATM   21  C   UNL     1      43.594 -10.084  -1.079  1.00  0.00     0.170 C 
BRANCH  21  22
HETATM   22  O   UNL     1      43.180 -10.154   0.278  1.00  0.00    -0.400 OA
HETATM   23  H   UNL     1      42.431 -10.776   0.324  1.00  0.00     0.209 HD
ENDBRANCH  21  22
ENDBRANCH  17  21
ENDBRANCH  10  13
ENDBRANCH   4   7
BRANCH   1  24
HETATM   24  N   UNL     1      43.337 -17.443   6.768  1.00  0.00    -0.064 N 
HETATM   25  C   UNL     1      42.630 -18.801   6.533  1.00  0.00     0.255 C 
HETATM   26  C   UNL     1      43.628 -19.972   6.615  1.00  0.00     0.150 C 
HETATM   27  N   UNL     1      44.743 -19.808   5.655  1.00  0.00    -0.375 N 
HETATM   28  C   UNL     1      45.434 -18.513   5.747  1.00  0.00     0.150 C 
HETATM   29  C   UNL     1      44.472 -17.303   5.734  1.00  0.00     0.255 C 
HETATM   30  H   UNL     1      43.781 -17.487   7.695  1.00  0.00     0.280 HD
BRANCH  27  31
HETATM   31  C   UNL     1      44.523 -20.393   4.397  1.00  0.00     0.063 A 
HETATM   32  C   UNL     1      44.059 -19.697   3.275  1.00  0.00     0.032 A 
HETATM   33  C   UNL     1      43.815 -20.356   2.060  1.00  0.00     0.002 A 
HETATM   34  C   UNL     1      44.045 -21.724   1.937  1.00  0.00     0.003 A 
HETATM   35  C   UNL     1      44.544 -22.437   3.020  1.00  0.00     0.039 A 
HETATM   36  C   UNL     1      44.792 -21.767   4.214  1.00  0.00     0.092 A 
BRANCH  36  37
HETATM   37  O   UNL     1      45.391 -22.480   5.223  1.00  0.00    -0.358 OA
HETATM   38  H   UNL     1      46.223 -22.002   5.391  1.00  0.00     0.218 HD
ENDBRANCH  36  37
ENDBRANCH  27  31
ENDBRANCH   1  24
TORSDOF 7
ENDMDL
MODEL 2
REMARK VINA RESULT:      -8.9      4.946      9.852
REMARK  7 active torsions:
REMARK  status: ('A' for Active; 'I' for Inactive)
REMARK    1  A    between atoms: C_3  and  N_4 
REMARK    2  A    between atoms: N_7  and  C_9 
REMARK    3  A    between atoms: N_12  and  C_13 
REMARK    4  A    between atoms: C_16  and  C_17 
REMARK       I    between atoms: C_17  and  N_18 
REMARK    5  A    between atoms: C_20  and  C_21 
REMARK    6  A    between atoms: C_21  and  O_22 
REMARK    7  A    between atoms: C_33  and  O_34 
ROOT
HETATM    1  C   UNL     1      39.886 -10.837   5.358  1.00  0.00     0.191 C 
HETATM    2  C   UNL     1      41.328 -11.118   4.899  1.00  0.00     0.053 C 
HETATM    3  C   UNL     1      42.005 -12.219   5.712  1.00  0.00     0.125 C 
HETATM    4  N   UNL     1      41.141 -13.398   5.705  1.00  0.00    -0.381 N 
HETATM    5  C   UNL     1      39.795 -13.227   6.239  1.00  0.00     0.125 C 
HETATM    6  C   UNL     1      39.096 -12.154   5.408  1.00  0.00     0.053 C 
ENDROOT
BRANCH   4   7
HETATM    7  C   UNL     1      41.785 -14.626   5.874  1.00  0.00     0.030 A 
HETATM    8  C   UNL     1      43.181 -14.772   5.872  1.00  0.00     0.030 A 
HETATM    9  C   UNL     1      43.786 -16.018   6.090  1.00  0.00     0.019 A 
HETATM   10  C   UNL     1      42.996 -17.138   6.350  1.00  0.00     0.032 A 
HETATM   11  C   UNL     1      41.606 -17.026   6.330  1.00  0.00     0.019 A 
HETATM   12  C   UNL     1      41.014 -15.781   6.098  1.00  0.00     0.030 A 
BRANCH  10  13
HETATM   13  C   UNL     1      43.584 -18.475   6.573  1.00  0.00     0.253 C 
HETATM   14  N   UNL     1      43.803 -19.331   5.488  1.00  0.00    -0.348 N 
HETATM   15  C   UNL     1      43.311 -19.085   4.127  1.00  0.00     0.132 C 
HETATM   16  C   UNL     1      44.193 -20.706   5.800  1.00  0.00     0.126 C 
HETATM   17  C   UNL     1      44.210 -19.700   3.044  1.00  0.00     0.027 C 
HETATM   18  C   UNL     1      44.492 -21.176   3.350  1.00  0.00     0.010 C 
HETATM   19  C   UNL     1      45.105 -21.309   4.739  1.00  0.00     0.020 C 
HETATM   20  O   UNL     1      43.889 -18.750   7.733  1.00  0.00    -0.267 OA
BRANCH  17  21
HETATM   21  C   UNL     1      43.596 -19.513   1.654  1.00  0.00     0.170 C 
BRANCH  21  22
HETATM   22  O   UNL     1      43.748 -18.178   1.189  1.00  0.00    -0.400 OA
HETATM   23  H   UNL     1      44.643 -17.882   1.436  1.00  0.00     0.209 HD
ENDBRANCH  21  22
ENDBRANCH  17  21
ENDBRANCH  10  13
ENDBRANCH   4   7
BRANCH   1  24
HETATM   24  N   UNL     1      39.853 -10.061   6.695  1.00  0.00    -0.064 N 
HETATM   25  C   UNL     1      39.826 -11.022   7.910  1.00  0.00     0.255 C 
HETATM   26  C   UNL     1      39.735 -10.244   9.236  1.00  0.00     0.150 C 
HETATM   27  N   UNL     1      40.847  -9.277   9.379  1.00  0.00    -0.375 N 
HETATM   28  C   UNL     1      41.006  -8.365   8.237  1.00  0.00     0.150 C 
HETATM   29  C   UNL     1      41.038  -9.091   6.873  1.00  0.00     0.255 C 
HETATM   30  H   UNL     1      38.995  -9.496   6.735  1.00  0.00     0.280 HD
BRANCH  27  31
HETATM   31  C   UNL     1      41.985  -9.786  10.028  1.00  0.00     0.063 A 
HETATM   32  C   UNL     1      42.910 -10.651   9.434  1.00  0.00     0.032 A 
HETATM   33  C   UNL     1      44.000 -11.160  10.158  1.00  0.00     0.002 A 
HETATM   34  C   UNL     1      44.196 -10.800  11.489  1.00  0.00     0.003 A 
HETATM   35  C   UNL     1      43.318  -9.912  12.097  1.00  0.00     0.039 A 
HETATM   36  C   UNL     1      42.249  -9.407  11.363  1.00  0.00     0.092 A 
BRANCH  36  37
HETATM   37  O   UNL     1      41.473  -8.446  11.961  1.00  0.00    -0.358 OA
HETATM   38  H   UNL     1      41.671  -7.634  11.460  1.00  0.00     0.218 HD
ENDBRANCH  36  37
ENDBRANCH  27  31
ENDBRANCH   1  24
TORSDOF 7
ENDMDL
MODEL 3
REMARK VINA RESULT:      -8.8      4.909      8.456
REMARK  7 active torsions:
REMARK  status: ('A' for Active; 'I' for Inactive)
REMARK    1  A    between atoms: C_3  and  N_4 
REMARK    2  A    between atoms: N_7  and  C_9 
REMARK    3  A    between atoms: N_12  and  C_13 
REMARK    4  A    between atoms: C_16  and  C_17 
REMARK       I    between atoms: C_17  and  N_18 
REMARK    5  A    between atoms: C_20  and  C_21 
REMARK    6  A    between atoms: C_21  and  O_22 
REMARK    7  A    between atoms: C_33  and  O_34 
ROOT
HETATM    1  C   UNL     1      40.920 -13.811   1.714  1.00  0.00     0.191 C 
HETATM    2  C   UNL     1      39.591 -13.474   2.412  1.00  0.00     0.053 C 
HETATM    3  C   UNL     1      39.724 -13.382   3.930  1.00  0.00     0.125 C 
HETATM    4  N   UNL     1      40.809 -12.455   4.244  1.00  0.00    -0.381 N 
HETATM    5  C   UNL     1      42.126 -12.782   3.711  1.00  0.00     0.125 C 
HETATM    6  C   UNL     1      42.012 -12.839   2.190  1.00  0.00     0.053 C 
ENDROOT
BRANCH   4   7
HETATM    7  C   UNL     1      40.721 -11.812   5.482  1.00  0.00     0.030 A 
HETATM    8  C   UNL     1      39.861 -12.230   6.510  1.00  0.00     0.030 A 
HETATM    9  C   UNL     1      39.837 -11.582   7.752  1.00  0.00     0.019 A 
HETATM   10  C   UNL     1      40.709 -10.520   7.998  1.00  0.00     0.032 A 
HETATM   11  C   UNL     1      41.553 -10.067   6.986  1.00  0.00     0.019 A 
HETATM   12  C   UNL     1      41.557 -10.712   5.746  1.00  0.00     0.030 A 
BRANCH  10  13
HETATM   13  C   UNL     1      40.713  -9.795   9.286  1.00  0.00     0.253 C 
HETATM   14  N   UNL     1      41.703 -10.067  10.236  1.00  0.00    -0.348 N 
HETATM   15  C   UNL     1      42.659 -11.178  10.142  1.00  0.00     0.132 C 
HETATM   16  C   UNL     1      41.530  -9.470  11.560  1.00  0.00     0.126 C 
HETATM   17  C   UNL     1      44.000 -10.876  10.829  1.00  0.00     0.027 C 
HETATM   18  C   UNL     1      43.771 -10.368  12.257  1.00  0.00     0.010 C 
HETATM   19  C   UNL     1      42.859  -9.147  12.233  1.00  0.00     0.020 C 
HETATM   20  O   UNL     1      39.838  -8.944   9.436  1.00  0.00    -0.267 OA
BRANCH  17  21
HETATM   21  C   UNL     1      44.916 -12.102  10.800  1.00  0.00     0.170 C 
BRANCH  21  22
HETATM   22  O   UNL     1      44.336 -13.206  11.482  1.00  0.00    -0.400 OA
HETATM   23  H   UNL     1      43.383 -13.209  11.279  1.00  0.00     0.209 HD
ENDBRANCH  21  22
ENDBRANCH  17  21
ENDBRANCH  10  13
ENDBRANCH   4   7
BRANCH   1  24
HETATM   24  N   UNL     1      41.307 -15.295   1.908  1.00  0.00    -0.064 N 
HETATM   25  C   UNL     1      42.844 -15.479   1.973  1.00  0.00     0.255 C 
HETATM   26  C   UNL     1      43.224 -16.965   2.108  1.00  0.00     0.150 C 
HETATM   27  N   UNL     1      42.589 -17.586   3.293  1.00  0.00    -0.375 N 
HETATM   28  C   UNL     1      41.132 -17.401   3.365  1.00  0.00     0.150 C 
HETATM   29  C   UNL     1      40.691 -15.932   3.169  1.00  0.00     0.255 C 
HETATM   30  H   UNL     1      40.969 -15.839   1.103  1.00  0.00     0.280 HD
BRANCH  27  31
HETATM   31  C   UNL     1      43.357 -17.526   4.468  1.00  0.00     0.063 A 
HETATM   32  C   UNL     1      43.279 -16.493   5.409  1.00  0.00     0.032 A 
HETATM   33  C   UNL     1      44.112 -16.472   6.538  1.00  0.00     0.002 A 
HETATM   34  C   UNL     1      45.033 -17.494   6.758  1.00  0.00     0.003 A 
HETATM   35  C   UNL     1      45.108 -18.554   5.864  1.00  0.00     0.039 A 
HETATM   36  C   UNL     1      44.267 -18.567   4.756  1.00  0.00     0.092 A 
BRANCH  36  37
HETATM   37  O   UNL     1      44.291 -19.684   3.960  1.00  0.00    -0.358 OA
HETATM   38  H   UNL     1      43.352 -19.863   3.771  1.00  0.00     0.218 HD
ENDBRANCH  36  37
ENDBRANCH  27  31
ENDBRANCH   1  24
TORSDOF 7
ENDMDL
MODEL 4
REMARK VINA RESULT:      -8.8      2.682     10.960
REMARK  7 active torsions:
REMARK  status: ('A' for Active; 'I' for Inactive)
REMARK    1  A    between atoms: C_3  and  N_4 
REMARK    2  A    between atoms: N_7  and  C_9 
REMARK    3  A    between atoms: N_12  and  C_13 
REMARK    4  A    between atoms: C_16  and  C_17 
REMARK       I    between atoms: C_17  and  N_18 
REMARK    5  A    between atoms: C_20  and  C_21 
REMARK    6  A    between atoms: C_21  and  O_22 
REMARK    7  A    between atoms: C_33  and  O_34 
ROOT
HETATM    1  C   UNL     1      39.976 -13.105  -1.101  1.00  0.00     0.191 C 
HETATM    2  C   UNL     1      39.981 -14.566  -1.583  1.00  0.00     0.053 C 
HETATM    3  C   UNL     1      41.206 -15.343  -1.104  1.00  0.00     0.125 C 
HETATM    4  N   UNL     1      41.309 -15.197   0.346  1.00  0.00    -0.381 N 
HETATM    5  C   UNL     1      41.428 -13.839   0.861  1.00  0.00     0.125 C 
HETATM    6  C   UNL     1      40.189 -13.063   0.420  1.00  0.00     0.053 C 
ENDROOT
BRANCH   4   7
HETATM    7  C   UNL     1      41.962 -16.235   1.017  1.00  0.00     0.030 A 
HETATM    8  C   UNL     1      43.318 -16.188   1.378  1.00  0.00     0.030 A 
HETATM    9  C   UNL     1      43.920 -17.234   2.091  1.00  0.00     0.019 A 
HETATM   10  C   UNL     1      43.158 -18.334   2.488  1.00  0.00     0.032 A 
HETATM   11  C   UNL     1      41.817 -18.418   2.118  1.00  0.00     0.019 A 
HETATM   12  C   UNL     1      41.230 -17.375   1.396  1.00  0.00     0.030 A 
BRANCH  10  13
HETATM   13  C   UNL     1      43.750 -19.467   3.229  1.00  0.00     0.253 C 
HETATM   14  N   UNL     1      43.830 -19.423   4.625  1.00  0.00    -0.348 N 
HETATM   15  C   UNL     1      43.541 -18.232   5.434  1.00  0.00     0.132 C 
HETATM   16  C   UNL     1      44.608 -20.477   5.276  1.00  0.00     0.126 C 
HETATM   17  C   UNL     1      43.010 -18.572   6.835  1.00  0.00     0.027 C 
HETATM   18  C   UNL     1      43.926 -19.590   7.525  1.00  0.00     0.010 C 
HETATM   19  C   UNL     1      44.068 -20.833   6.656  1.00  0.00     0.020 C 
HETATM   20  O   UNL     1      44.117 -20.428   2.554  1.00  0.00    -0.267 OA
BRANCH  17  21
HETATM   21  C   UNL     1      42.831 -17.304   7.673  1.00  0.00     0.170 C 
BRANCH  21  22
HETATM   22  O   UNL     1      43.530 -17.389   8.908  1.00  0.00    -0.400 OA
HETATM   23  H   UNL     1      43.591 -16.488   9.274  1.00  0.00     0.209 HD
ENDBRANCH  21  22
ENDBRANCH  17  21
ENDBRANCH  10  13
ENDBRANCH   4   7
BRANCH   1  24
HETATM   24  N   UNL     1      40.998 -12.243  -1.879  1.00  0.00    -0.064 N 
HETATM   25  C   UNL     1      41.226 -12.786  -3.311  1.00  0.00     0.255 C 
HETATM   26  C   UNL     1      42.287 -11.958  -4.060  1.00  0.00     0.150 C 
HETATM   27  N   UNL     1      41.923 -10.523  -4.113  1.00  0.00    -0.375 N 
HETATM   28  C   UNL     1      41.612  -9.930  -2.804  1.00  0.00     0.150 C 
HETATM   29  C   UNL     1      40.599 -10.758  -1.982  1.00  0.00     0.255 C 
HETATM   30  H   UNL     1      41.904 -12.277  -1.393  1.00  0.00     0.280 HD
BRANCH  27  31
HETATM   31  C   UNL     1      41.176 -10.150  -5.242  1.00  0.00     0.063 A 
HETATM   32  C   UNL     1      39.783 -10.253  -5.335  1.00  0.00     0.032 A 
HETATM   33  C   UNL     1      39.105  -9.906  -6.514  1.00  0.00     0.002 A 
HETATM   34  C   UNL     1      39.805  -9.433  -7.621  1.00  0.00     0.003 A 
HETATM   35  C   UNL     1      41.184  -9.281  -7.549  1.00  0.00     0.039 A 
HETATM   36  C   UNL     1      41.841  -9.618  -6.369  1.00  0.00     0.092 A 
BRANCH  36  37
HETATM   37  O   UNL     1      43.184  -9.347  -6.298  1.00  0.00    -0.358 OA
HETATM   38  H   UNL     1      43.228  -8.374  -6.253  1.00  0.00     0.218 HD
ENDBRANCH  36  37
ENDBRANCH  27  31
ENDBRANCH   1  24
TORSDOF 7
ENDMDL
MODEL 5
REMARK VINA RESULT:      -8.8      2.634      4.147
REMARK  7 active torsions:
REMARK  status: ('A' for Active; 'I' for Inactive)
REMARK    1  A    between atoms: C_3  and  N_4 
REMARK    2  A    between atoms: N_7  and  C_9 
REMARK    3  A    between atoms: N_12  and  C_13 
REMARK    4  A    between atoms: C_16  and  C_17 
REMARK       I    between atoms: C_17  and  N_18 
REMARK    5  A    between atoms: C_20  and  C_21 
REMARK    6  A    between atoms: C_21  and  O_22 
REMARK    7  A    between atoms: C_33  and  O_34 
ROOT
HETATM    1  C   UNL     1      43.349 -14.013   4.751  1.00  0.00     0.191 C 
HETATM    2  C   UNL     1      43.570 -14.344   3.265  1.00  0.00     0.053 C 
HETATM    3  C   UNL     1      42.263 -14.469   2.485  1.00  0.00     0.125 C 
HETATM    4  N   UNL     1      41.471 -13.262   2.712  1.00  0.00    -0.381 N 
HETATM    5  C   UNL     1      41.125 -12.955   4.094  1.00  0.00     0.125 C 
HETATM    6  C   UNL     1      42.426 -12.790   4.875  1.00  0.00     0.053 C 
ENDROOT
BRANCH   4   7
HETATM    7  C   UNL     1      40.570 -12.926   1.698  1.00  0.00     0.030 A 
HETATM    8  C   UNL     1      40.896 -12.085   0.622  1.00  0.00     0.030 A 
HETATM    9  C   UNL     1      39.974 -11.810  -0.397  1.00  0.00     0.019 A 
HETATM   10  C   UNL     1      38.713 -12.408  -0.372  1.00  0.00     0.032 A 
HETATM   11  C   UNL     1      38.353 -13.224   0.699  1.00  0.00     0.019 A 
HETATM   12  C   UNL     1      39.277 -13.480   1.716  1.00  0.00     0.030 A 
BRANCH  10  13
HETATM   13  C   UNL     1      37.701 -12.140  -1.416  1.00  0.00     0.253 C 
HETATM   14  N   UNL     1      37.594 -12.993  -2.519  1.00  0.00    -0.348 N 
HETATM   15  C   UNL     1      38.552 -14.059  -2.839  1.00  0.00     0.132 C 
HETATM   16  C   UNL     1      36.720 -12.558  -3.608  1.00  0.00     0.126 C 
HETATM   17  C   UNL     1      37.910 -15.239  -3.583  1.00  0.00     0.027 C 
HETATM   18  C   UNL     1      37.104 -14.742  -4.789  1.00  0.00     0.010 C 
HETATM   19  C   UNL     1      36.063 -13.726  -4.332  1.00  0.00     0.020 C 
HETATM   20  O   UNL     1      36.967 -11.171  -1.227  1.00  0.00    -0.267 OA
BRANCH  17  21
HETATM   21  C   UNL     1      38.969 -16.268  -3.991  1.00  0.00     0.170 C 
BRANCH  21  22
HETATM   22  O   UNL     1      38.868 -16.607  -5.367  1.00  0.00    -0.400 OA
HETATM   23  H   UNL     1      39.576 -16.131  -5.839  1.00  0.00     0.209 HD
ENDBRANCH  21  22
ENDBRANCH  17  21
ENDBRANCH  10  13
ENDBRANCH   4   7
BRANCH   1  24
HETATM   24  N   UNL     1      42.835 -15.240   5.540  1.00  0.00    -0.064 N 
HETATM   25  C   UNL     1      42.291 -16.338   4.592  1.00  0.00     0.255 C 
HETATM   26  C   UNL     1      41.729 -17.532   5.385  1.00  0.00     0.150 C 
HETATM   27  N   UNL     1      42.742 -18.107   6.299  1.00  0.00    -0.375 N 
HETATM   28  C   UNL     1      43.376 -17.127   7.193  1.00  0.00     0.150 C 
HETATM   29  C   UNL     1      43.901 -15.875   6.454  1.00  0.00     0.255 C 
HETATM   30  H   UNL     1      42.056 -14.948   6.145  1.00  0.00     0.280 HD
BRANCH  27  31
HETATM   31  C   UNL     1      43.512 -19.142   5.743  1.00  0.00     0.063 A 
HETATM   32  C   UNL     1      44.057 -19.114   4.454  1.00  0.00     0.032 A 
HETATM   33  C   UNL     1      44.777 -20.206   3.944  1.00  0.00     0.002 A 
HETATM   34  C   UNL     1      44.980 -21.345   4.720  1.00  0.00     0.003 A 
HETATM   35  C   UNL     1      44.486 -21.389   6.017  1.00  0.00     0.039 A 
HETATM   36  C   UNL     1      43.785 -20.294   6.513  1.00  0.00     0.092 A 
BRANCH  36  37
HETATM   37  O   UNL     1      43.414 -20.331   7.833  1.00  0.00    -0.358 OA
HETATM   38  H   UNL     1      43.003 -21.208   7.942  1.00  0.00     0.218 HD
ENDBRANCH  36  37
ENDBRANCH  27  31
ENDBRANCH   1  24
TORSDOF 7
ENDMDL
MODEL 6
REMARK VINA RESULT:      -8.8      2.306     10.362
REMARK  7 active torsions:
REMARK  status: ('A' for Active; 'I' for Inactive)
REMARK    1  A    between atoms: C_3  and  N_4 
REMARK    2  A    between atoms: N_7  and  C_9 
REMARK    3  A    between atoms: N_12  and  C_13 
REMARK    4  A    between atoms: C_16  and  C_17 
REMARK       I    between atoms: C_17  and  N_18 
REMARK    5  A    between atoms: C_20  and  C_21 
REMARK    6  A    between atoms: C_21  and  O_22 
REMARK    7  A    between atoms: C_33  and  O_34 
ROOT
HETATM    1  C   UNL     1      39.063 -14.210  -3.234  1.00  0.00     0.191 C 
HETATM    2  C   UNL     1      39.970 -15.449  -3.130  1.00  0.00     0.053 C 
HETATM    3  C   UNL     1      40.977 -15.352  -1.986  1.00  0.00     0.125 C 
HETATM    4  N   UNL     1      40.250 -15.045  -0.755  1.00  0.00    -0.381 N 
HETATM    5  C   UNL     1      39.464 -13.818  -0.747  1.00  0.00     0.125 C 
HETATM    6  C   UNL     1      38.428 -13.921  -1.865  1.00  0.00     0.053 C 
ENDROOT
BRANCH   4   7
HETATM    7  C   UNL     1      40.856 -15.468   0.431  1.00  0.00     0.030 A 
HETATM    8  C   UNL     1      40.136 -15.815   1.585  1.00  0.00     0.030 A 
HETATM    9  C   UNL     1      40.783 -16.277   2.739  1.00  0.00     0.019 A 
HETATM   10  C   UNL     1      42.170 -16.434   2.742  1.00  0.00     0.032 A 
HETATM   11  C   UNL     1      42.911 -16.071   1.619  1.00  0.00     0.019 A 
HETATM   12  C   UNL     1      42.256 -15.598   0.479  1.00  0.00     0.030 A 
BRANCH  10  13
HETATM   13  C   UNL     1      42.900 -16.906   3.937  1.00  0.00     0.253 C 
HETATM   14  N   UNL     1      43.420 -18.204   3.971  1.00  0.00    -0.348 N 
HETATM   15  C   UNL     1      43.134 -19.237   2.968  1.00  0.00     0.132 C 
HETATM   16  C   UNL     1      43.946 -18.672   5.253  1.00  0.00     0.126 C 
HETATM   17  C   UNL     1      44.283 -20.243   2.798  1.00  0.00     0.027 C 
HETATM   18  C   UNL     1      44.719 -20.797   4.160  1.00  0.00     0.010 C 
HETATM   19  C   UNL     1      45.102 -19.651   5.088  1.00  0.00     0.020 C 
HETATM   20  O   UNL     1      43.041 -16.089   4.847  1.00  0.00    -0.267 OA
BRANCH  17  21
HETATM   21  C   UNL     1      43.892 -21.360   1.827  1.00  0.00     0.170 C 
BRANCH  21  22
HETATM   22  O   UNL     1      44.574 -22.572   2.119  1.00  0.00    -0.400 OA
HETATM   23  H   UNL     1      44.173 -23.273   1.574  1.00  0.00     0.209 HD
ENDBRANCH  21  22
ENDBRANCH  17  21
ENDBRANCH  10  13
ENDBRANCH   4   7
BRANCH   1  24
HETATM   24  N   UNL     1      39.819 -12.995  -3.818  1.00  0.00    -0.064 N 
HETATM   25  C   UNL     1      39.387 -11.674  -3.134  1.00  0.00     0.255 C 
HETATM   26  C   UNL     1      40.102 -10.461  -3.760  1.00  0.00     0.150 C 
HETATM   27  N   UNL     1      41.575 -10.605  -3.702  1.00  0.00    -0.375 N 
HETATM   28  C   UNL     1      42.081 -11.867  -4.260  1.00  0.00     0.150 C 
HETATM   29  C   UNL     1      41.352 -13.116  -3.713  1.00  0.00     0.255 C 
HETATM   30  H   UNL     1      39.594 -12.908  -4.818  1.00  0.00     0.280 HD
BRANCH  27  31
HETATM   31  C   UNL     1      42.171 -10.064  -2.550  1.00  0.00     0.063 A 
HETATM   32  C   UNL     1      42.342 -10.762  -1.349  1.00  0.00     0.032 A 
HETATM   33  C   UNL     1      42.902 -10.142  -0.221  1.00  0.00     0.002 A 
HETATM   34  C   UNL     1      43.319  -8.814  -0.276  1.00  0.00     0.003 A 
HETATM   35  C   UNL     1      43.200  -8.105  -1.465  1.00  0.00     0.039 A 
HETATM   36  C   UNL     1      42.653  -8.737  -2.577  1.00  0.00     0.092 A 
BRANCH  36  37
HETATM   37  O   UNL     1      42.658  -8.042  -3.761  1.00  0.00    -0.358 OA
HETATM   38  H   UNL     1      43.308  -7.330  -3.616  1.00  0.00     0.218 HD
ENDBRANCH  36  37
ENDBRANCH  27  31
ENDBRANCH   1  24
TORSDOF 7
ENDMDL
MODEL 7
REMARK VINA RESULT:      -8.7      1.828      2.425
REMARK  7 active torsions:
REMARK  status: ('A' for Active; 'I' for Inactive)
REMARK    1  A    between atoms: C_3  and  N_4 
REMARK    2  A    between atoms: N_7  and  C_9 
REMARK    3  A    between atoms: N_12  and  C_13 
REMARK    4  A    between atoms: C_16  and  C_17 
REMARK       I    between atoms: C_17  and  N_18 
REMARK    5  A    between atoms: C_20  and  C_21 
REMARK    6  A    between atoms: C_21  and  O_22 
REMARK    7  A    between atoms: C_33  and  O_34 
ROOT
HETATM    1  C   UNL     1      42.542 -16.044   6.774  1.00  0.00     0.191 C 
HETATM    2  C   UNL     1      43.208 -14.880   6.020  1.00  0.00     0.053 C 
HETATM    3  C   UNL     1      43.228 -15.088   4.507  1.00  0.00     0.125 C 
HETATM    4  N   UNL     1      41.867 -15.381   4.062  1.00  0.00    -0.381 N 
HETATM    5  C   UNL     1      41.221 -16.546   4.653  1.00  0.00     0.125 C 
HETATM    6  C   UNL     1      41.161 -16.331   6.163  1.00  0.00     0.053 C 
ENDROOT
BRANCH   4   7
HETATM    7  C   UNL     1      41.573 -15.043   2.738  1.00  0.00     0.030 A 
HETATM    8  C   UNL     1      42.033 -13.868   2.121  1.00  0.00     0.030 A 
HETATM    9  C   UNL     1      41.751 -13.591   0.777  1.00  0.00     0.019 A 
HETATM   10  C   UNL     1      41.030 -14.510   0.014  1.00  0.00     0.032 A 
HETATM   11  C   UNL     1      40.537 -15.670   0.609  1.00  0.00     0.019 A 
HETATM   12  C   UNL     1      40.813 -15.930   1.955  1.00  0.00     0.030 A 
BRANCH  10  13
HETATM   13  C   UNL     1      40.696 -14.258  -1.403  1.00  0.00     0.253 C 
HETATM   14  N   UNL     1      39.540 -13.540  -1.731  1.00  0.00    -0.348 N 
HETATM   15  C   UNL     1      38.497 -13.165  -0.768  1.00  0.00     0.132 C 
HETATM   16  C   UNL     1      39.163 -13.505  -3.144  1.00  0.00     0.126 C 
HETATM   17  C   UNL     1      37.768 -11.867  -1.149  1.00  0.00     0.027 C 
HETATM   18  C   UNL     1      37.285 -11.927  -2.603  1.00  0.00     0.010 C 
HETATM   19  C   UNL     1      38.462 -12.208  -3.529  1.00  0.00     0.020 C 
HETATM   20  O   UNL     1      41.498 -14.678  -2.236  1.00  0.00    -0.267 OA
BRANCH  17  21
HETATM   21  C   UNL     1      36.620 -11.581  -0.177  1.00  0.00     0.170 C 
BRANCH  21  22
HETATM   22  O   UNL     1      36.514 -12.588   0.820  1.00  0.00    -0.400 OA
HETATM   23  H   UNL     1      37.016 -13.363   0.509  1.00  0.00     0.209 HD
ENDBRANCH  21  22
ENDBRANCH  17  21
ENDBRANCH  10  13
ENDBRANCH   4   7
BRANCH   1  24
HETATM   24  N   UNL     1      43.454 -17.292   6.819  1.00  0.00    -0.064 N 
HETATM   25  C   UNL     1      42.652 -18.592   6.560  1.00  0.00     0.255 C 
HETATM   26  C   UNL     1      43.555 -19.836   6.663  1.00  0.00     0.150 C 
HETATM   27  N   UNL     1      44.704 -19.754   5.732  1.00  0.00    -0.375 N 
HETATM   28  C   UNL     1      45.489 -18.517   5.847  1.00  0.00     0.150 C 
HETATM   29  C   UNL     1      44.623 -17.237   5.815  1.00  0.00     0.255 C 
HETATM   30  H   UNL     1      43.869 -17.372   7.757  1.00  0.00     0.280 HD
BRANCH  27  31
HETATM   31  C   UNL     1      44.473 -20.318   4.466  1.00  0.00     0.063 A 
HETATM   32  C   UNL     1      43.986 -19.606   3.363  1.00  0.00     0.032 A 
HETATM   33  C   UNL     1      43.732 -20.244   2.140  1.00  0.00     0.002 A 
HETATM   34  C   UNL     1      43.975 -21.608   1.988  1.00  0.00     0.003 A 
HETATM   35  C   UNL     1      44.495 -22.335   3.050  1.00  0.00     0.039 A 
HETATM   36  C   UNL     1      44.753 -21.686   4.254  1.00  0.00     0.092 A 
BRANCH  36  37
HETATM   37  O   UNL     1      45.372 -22.412   5.240  1.00  0.00    -0.358 OA
HETATM   38  H   UNL     1      45.273 -23.338   4.952  1.00  0.00     0.218 HD
ENDBRANCH  36  37
ENDBRANCH  27  31
ENDBRANCH   1  24
TORSDOF 7
ENDMDL
MODEL 8
REMARK VINA RESULT:      -8.7      6.847     10.376
REMARK  7 active torsions:
REMARK  status: ('A' for Active; 'I' for Inactive)
REMARK    1  A    between atoms: C_3  and  N_4 
REMARK    2  A    between atoms: N_7  and  C_9 
REMARK    3  A    between atoms: N_12  and  C_13 
REMARK    4  A    between atoms: C_16  and  C_17 
REMARK       I    between atoms: C_17  and  N_18 
REMARK    5  A    between atoms: C_20  and  C_21 
REMARK    6  A    between atoms: C_21  and  O_22 
REMARK    7  A    between atoms: C_33  and  O_34 
ROOT
HETATM    1  C   UNL     1      40.289  -9.790   8.587  1.00  0.00     0.191 C 
HETATM    2  C   UNL     1      41.347  -9.595   7.486  1.00  0.00     0.053 C 
HETATM    3  C   UNL     1      41.865 -10.915   6.922  1.00  0.00     0.125 C 
HETATM    4  N   UNL     1      40.720 -11.722   6.506  1.00  0.00    -0.381 N 
HETATM    5  C   UNL     1      39.738 -12.045   7.534  1.00  0.00     0.125 C 
HETATM    6  C   UNL     1      39.185 -10.730   8.079  1.00  0.00     0.053 C 
ENDROOT
BRANCH   4   7
HETATM    7  C   UNL     1      40.966 -12.650   5.490  1.00  0.00     0.030 A 
HETATM    8  C   UNL     1      40.104 -13.719   5.196  1.00  0.00     0.030 A 
HETATM    9  C   UNL     1      40.368 -14.600   4.138  1.00  0.00     0.019 A 
HETATM   10  C   UNL     1      41.488 -14.400   3.330  1.00  0.00     0.032 A 
HETATM   11  C   UNL     1      42.374 -13.363   3.618  1.00  0.00     0.019 A 
HETATM   12  C   UNL     1      42.108 -12.499   4.684  1.00  0.00     0.030 A 
BRANCH  10  13
HETATM   13  C   UNL     1      41.816 -15.308   2.211  1.00  0.00     0.253 C 
HETATM   14  N   UNL     1      42.584 -16.454   2.445  1.00  0.00    -0.348 N 
HETATM   15  C   UNL     1      43.273 -16.747   3.708  1.00  0.00     0.132 C 
HETATM   16  C   UNL     1      43.043 -17.193   1.269  1.00  0.00     0.126 C 
HETATM   17  C   UNL     1      43.415 -18.252   3.979  1.00  0.00     0.027 C 
HETATM   18  C   UNL     1      44.013 -18.965   2.761  1.00  0.00     0.010 C 
HETATM   19  C   UNL     1      43.160 -18.690   1.528  1.00  0.00     0.020 C 
HETATM   20  O   UNL     1      41.350 -15.010   1.112  1.00  0.00    -0.267 OA
BRANCH  17  21
HETATM   21  C   UNL     1      44.235 -18.503   5.247  1.00  0.00     0.170 C 
BRANCH  21  22
HETATM   22  O   UNL     1      45.152 -19.575   5.075  1.00  0.00    -0.400 OA
HETATM   23  H   UNL     1      44.688 -20.284   4.594  1.00  0.00     0.209 HD
ENDBRANCH  21  22
ENDBRANCH  17  21
ENDBRANCH  10  13
ENDBRANCH   4   7
BRANCH   1  24
HETATM   24  N   UNL     1      40.926 -10.266   9.913  1.00  0.00    -0.064 N 
HETATM   25  C   UNL     1      41.713  -9.127  10.608  1.00  0.00     0.255 C 
HETATM   26  C   UNL     1      42.392  -9.623  11.898  1.00  0.00     0.150 C 
HETATM   27  N   UNL     1      41.412 -10.210  12.840  1.00  0.00    -0.375 N 
HETATM   28  C   UNL     1      40.560 -11.255  12.253  1.00  0.00     0.150 C 
HETATM   29  C   UNL     1      39.904 -10.831  10.919  1.00  0.00     0.255 C 
HETATM   30  H   UNL     1      41.596 -11.020   9.712  1.00  0.00     0.280 HD
BRANCH  27  31
HETATM   31  C   UNL     1      40.864  -9.299  13.759  1.00  0.00     0.063 A 
HETATM   32  C   UNL     1      39.842  -8.393  13.456  1.00  0.00     0.032 A 
HETATM   33  C   UNL     1      39.375  -7.477  14.411  1.00  0.00     0.002 A 
HETATM   34  C   UNL     1      39.912  -7.458  15.696  1.00  0.00     0.003 A 
HETATM   35  C   UNL     1      40.900  -8.371  16.041  1.00  0.00     0.039 A 
HETATM   36  C   UNL     1      41.344  -9.281  15.087  1.00  0.00     0.092 A 
BRANCH  36  37
HETATM   37  O   UNL     1      42.237 -10.238  15.498  1.00  0.00    -0.358 OA
HETATM   38  H   UNL     1      41.690 -11.035  15.625  1.00  0.00     0.218 HD
ENDBRANCH  36  37
ENDBRANCH  27  31
ENDBRANCH   1  24
TORSDOF 7
ENDMDL
MODEL 9
REMARK VINA RESULT:      -8.6      1.348      2.546
REMARK  7 active torsions:
REMARK  status: ('A' for Active; 'I' for Inactive)
REMARK    1  A    between atoms: C_3  and  N_4 
REMARK    2  A    between atoms: N_7  and  C_9 
REMARK    3  A    between atoms: N_12  and  C_13 
REMARK    4  A    between atoms: C_16  and  C_17 
REMARK       I    between atoms: C_17  and  N_18 
REMARK    5  A    between atoms: C_20  and  C_21 
REMARK    6  A    between atoms: C_21  and  O_22 
REMARK    7  A    between atoms: C_33  and  O_34 
ROOT
HETATM    1  C   UNL     1      42.476 -16.882   7.297  1.00  0.00     0.191 C 
HETATM    2  C   UNL     1      43.026 -15.469   7.036  1.00  0.00     0.053 C 
HETATM    3  C   UNL     1      43.153 -15.147   5.549  1.00  0.00     0.125 C 
HETATM    4  N   UNL     1      41.866 -15.409   4.907  1.00  0.00    -0.381 N 
HETATM    5  C   UNL     1      41.344 -16.765   5.015  1.00  0.00     0.125 C 
HETATM    6  C   UNL     1      41.178 -17.084   6.499  1.00  0.00     0.053 C 
ENDROOT
BRANCH   4   7
HETATM    7  C   UNL     1      41.603 -14.673   3.749  1.00  0.00     0.030 A 
HETATM    8  C   UNL     1      40.317 -14.527   3.203  1.00  0.00     0.030 A 
HETATM    9  C   UNL     1      40.092 -13.742   2.064  1.00  0.00     0.019 A 
HETATM   10  C   UNL     1      41.154 -13.056   1.472  1.00  0.00     0.032 A 
HETATM   11  C   UNL     1      42.444 -13.206   1.977  1.00  0.00     0.019 A 
HETATM   12  C   UNL     1      42.659 -14.003   3.105  1.00  0.00     0.030 A 
BRANCH  10  13
HETATM   13  C   UNL     1      40.971 -12.227   0.263  1.00  0.00     0.253 C 
HETATM   14  N   UNL     1      40.858 -12.836  -0.991  1.00  0.00    -0.348 N 
HETATM   15  C   UNL     1      41.102 -14.262  -1.245  1.00  0.00     0.132 C 
HETATM   16  C   UNL     1      40.886 -11.955  -2.159  1.00  0.00     0.126 C 
HETATM   17  C   UNL     1      40.275 -14.813  -2.416  1.00  0.00     0.027 C 
HETATM   18  C   UNL     1      40.432 -13.923  -3.654  1.00  0.00     0.010 C 
HETATM   19  C   UNL     1      40.046 -12.488  -3.313  1.00  0.00     0.020 C 
HETATM   20  O   UNL     1      40.890 -11.012   0.442  1.00  0.00    -0.267 OA
BRANCH  17  21
HETATM   21  C   UNL     1      40.647 -16.269  -2.709  1.00  0.00     0.170 C 
BRANCH  21  22
HETATM   22  O   UNL     1      39.594 -16.957  -3.371  1.00  0.00    -0.400 OA
HETATM   23  H   UNL     1      39.039 -17.371  -2.686  1.00  0.00     0.209 HD
ENDBRANCH  21  22
ENDBRANCH  17  21
ENDBRANCH  10  13
ENDBRANCH   4   7
BRANCH   1  24
HETATM   24  N   UNL     1      43.537 -17.970   7.010  1.00  0.00    -0.064 N 
HETATM   25  C   UNL     1      42.878 -19.335   6.688  1.00  0.00     0.255 C 
HETATM   26  C   UNL     1      43.940 -20.427   6.460  1.00  0.00     0.150 C 
HETATM   27  N   UNL     1      44.886 -20.053   5.384  1.00  0.00    -0.375 N 
HETATM   28  C   UNL     1      45.510 -18.734   5.559  1.00  0.00     0.150 C 
HETATM   29  C   UNL     1      44.492 -17.609   5.856  1.00  0.00     0.255 C 
HETATM   30  H   UNL     1      44.117 -18.103   7.849  1.00  0.00     0.280 HD
BRANCH  27  31
HETATM   31  C   UNL     1      44.511 -20.482   4.099  1.00  0.00     0.063 A 
HETATM   32  C   UNL     1      44.011 -19.637   3.102  1.00  0.00     0.032 A 
HETATM   33  C   UNL     1      43.609 -20.141   1.855  1.00  0.00     0.002 A 
HETATM   34  C   UNL     1      43.714 -21.502   1.574  1.00  0.00     0.003 A 
HETATM   35  C   UNL     1      44.243 -22.361   2.528  1.00  0.00     0.039 A 
HETATM   36  C   UNL     1      44.648 -21.844   3.755  1.00  0.00     0.092 A 
BRANCH  36  37
HETATM   37  O   UNL     1      45.270 -22.704   4.625  1.00  0.00    -0.358 OA
HETATM   38  H   UNL     1      46.197 -22.404   4.635  1.00  0.00     0.218 HD
ENDBRANCH  36  37
ENDBRANCH  27  31
ENDBRANCH   1  24
TORSDOF 7
ENDMDL
MODEL 10
REMARK VINA RESULT:      -8.5      5.390      9.280
REMARK  7 active torsions:
REMARK  status: ('A' for Active; 'I' for Inactive)
REMARK    1  A    between atoms: C_3  and  N_4 
REMARK    2  A    between atoms: N_7  and  C_9 
REMARK    3  A    between atoms: N_12  and  C_13 
REMARK    4  A    between atoms: C_16  and  C_17 
REMARK       I    between atoms: C_17  and  N_18 
REMARK    5  A    between atoms: C_20  and  C_21 
REMARK    6  A    between atoms: C_21  and  O_22 
REMARK    7  A    between atoms: C_33  and  O_34 
ROOT
HETATM    1  C   UNL     1      39.725  -9.481   5.894  1.00  0.00     0.191 C 
HETATM    2  C   UNL     1      41.201  -9.850   5.666  1.00  0.00     0.053 C 
HETATM    3  C   UNL     1      41.409 -11.346   5.438  1.00  0.00     0.125 C 
HETATM    4  N   UNL     1      40.517 -11.779   4.365  1.00  0.00    -0.381 N 
HETATM    5  C   UNL     1      39.091 -11.565   4.571  1.00  0.00     0.125 C 
HETATM    6  C   UNL     1      38.866 -10.067   4.763  1.00  0.00     0.053 C 
ENDROOT
BRANCH   4   7
HETATM    7  C   UNL     1      40.936 -12.898   3.640  1.00  0.00     0.030 A 
HETATM    8  C   UNL     1      42.156 -12.958   2.947  1.00  0.00     0.030 A 
HETATM    9  C   UNL     1      42.555 -14.118   2.269  1.00  0.00     0.019 A 
HETATM   10  C   UNL     1      41.750 -15.257   2.307  1.00  0.00     0.032 A 
HETATM   11  C   UNL     1      40.522 -15.216   2.964  1.00  0.00     0.019 A 
HETATM   12  C   UNL     1      40.127 -14.049   3.625  1.00  0.00     0.030 A 
BRANCH  10  13
HETATM   13  C   UNL     1      42.122 -16.499   1.599  1.00  0.00     0.253 C 
HETATM   14  N   UNL     1      42.881 -17.475   2.253  1.00  0.00    -0.348 N 
HETATM   15  C   UNL     1      43.523 -17.288   3.560  1.00  0.00     0.132 C 
HETATM   16  C   UNL     1      43.385 -18.578   1.435  1.00  0.00     0.126 C 
HETATM   17  C   UNL     1      43.657 -18.595   4.357  1.00  0.00     0.027 C 
HETATM   18  C   UNL     1      44.301 -19.687   3.495  1.00  0.00     0.010 C 
HETATM   19  C   UNL     1      43.495 -19.882   2.216  1.00  0.00     0.020 C 
HETATM   20  O   UNL     1      41.697 -16.620   0.451  1.00  0.00    -0.267 OA
BRANCH  17  21
HETATM   21  C   UNL     1      44.430 -18.364   5.658  1.00  0.00     0.170 C 
BRANCH  21  22
HETATM   22  O   UNL     1      44.082 -19.320   6.650  1.00  0.00    -0.400 OA
HETATM   23  H   UNL     1      44.910 -19.708   6.987  1.00  0.00     0.209 HD
ENDBRANCH  21  22
ENDBRANCH  17  21
ENDBRANCH  10  13
ENDBRANCH   4   7
BRANCH   1  24
HETATM   24  N   UNL     1      39.241  -9.903   7.301  1.00  0.00    -0.064 N 
HETATM   25  C   UNL     1      40.068 -11.091   7.854  1.00  0.00     0.255 C 
HETATM   26  C   UNL     1      39.544 -11.544   9.230  1.00  0.00     0.150 C 
HETATM   27  N   UNL     1      39.540 -10.431  10.206  1.00  0.00    -0.375 N 
HETATM   28  C   UNL     1      38.841  -9.223   9.743  1.00  0.00     0.150 C 
HETATM   29  C   UNL     1      39.283  -8.761   8.335  1.00  0.00     0.255 C 
HETATM   30  H   UNL     1      38.263 -10.216   7.240  1.00  0.00     0.280 HD
BRANCH  27  31
HETATM   31  C   UNL     1      40.719 -10.308  10.959  1.00  0.00     0.063 A 
HETATM   32  C   UNL     1      41.704  -9.341  10.728  1.00  0.00     0.032 A 
HETATM   33  C   UNL     1      42.883  -9.306  11.489  1.00  0.00     0.002 A 
HETATM   34  C   UNL     1      43.094 -10.230  12.509  1.00  0.00     0.003 A 
HETATM   35  C   UNL     1      42.119 -11.178  12.791  1.00  0.00     0.039 A 
HETATM   36  C   UNL     1      40.951 -11.192  12.035  1.00  0.00     0.092 A 
BRANCH  36  37
HETATM   37  O   UNL     1      39.965 -12.067  12.417  1.00  0.00    -0.358 OA
HETATM   38  H   UNL     1      40.431 -12.916  12.532  1.00  0.00     0.218 HD
ENDBRANCH  36  37
ENDBRANCH  27  31
ENDBRANCH   1  24
TORSDOF 7
ENDMDL
