MODEL 1
REMARK VINA RESULT:      -9.3      0.000      0.000
REMARK  4 active torsions:
REMARK  status: ('A' for Active; 'I' for Inactive)
REMARK    1  A    between atoms: C_4  and  S_5 
REMARK    2  A    between atoms: S_5  and  C_6 
REMARK    3  A    between atoms: C_6  and  C_7 
REMARK    4  A    between atoms: C_23  and  N_24 
ROOT
HETATM    1  C   UNL     1      43.171 -16.682   3.066  1.00  0.00    -0.029 C 
HETATM    2  C   UNL     1      43.660 -17.887   3.823  1.00  0.00     0.016 A 
HETATM    3  C   UNL     1      44.017 -17.654   5.166  1.00  0.00     0.091 A 
HETATM    4  C   UNL     1      44.591 -18.620   5.986  1.00  0.00     0.039 A 
HETATM    5  C   UNL     1      44.820 -19.885   5.481  1.00  0.00     0.015 A 
HETATM    6  C   UNL     1      44.438 -20.209   4.178  1.00  0.00    -0.025 A 
HETATM    7  C   UNL     1      43.823 -19.239   3.326  1.00  0.00    -0.012 A 
HETATM    8  C   UNL     1      44.667 -21.528   3.747  1.00  0.00     0.012 A 
HETATM    9  C   UNL     1      44.281 -21.954   2.483  1.00  0.00     0.001 A 
HETATM   10  C   UNL     1      43.638 -21.065   1.644  1.00  0.00     0.001 A 
HETATM   11  C   UNL     1      43.407 -19.748   2.062  1.00  0.00     0.013 A 
HETATM   12  O   UNL     1      43.792 -16.428   5.824  1.00  0.00    -0.275 OA
HETATM   13  C   UNL     1      43.130 -15.399   5.201  1.00  0.00     0.288 C 
HETATM   14  O   UNL     1      42.797 -14.376   5.785  1.00  0.00    -0.260 OA
HETATM   15  C   UNL     1      42.900 -15.564   3.766  1.00  0.00     0.091 C 
ENDROOT
BRANCH   1  16
HETATM   16  C   UNL     1      43.030 -16.729   1.558  1.00  0.00     0.122 C 
BRANCH  16  17
HETATM   17  S   UNL     1      41.347 -16.547   0.893  1.00  0.00    -0.085 SA
BRANCH  17  18
HETATM   18  C   UNL     1      41.540 -14.999   0.042  1.00  0.00     0.190 A 
HETATM   19  N   UNL     1      41.296 -15.011  -1.278  1.00  0.00    -0.228 NA
HETATM   20  C   UNL     1      41.456 -13.846  -1.937  1.00  0.00     0.036 A 
HETATM   21  C   UNL     1      41.202 -13.846  -3.413  1.00  0.00     0.070 C 
HETATM   22  C   UNL     1      41.838 -12.688  -1.294  1.00  0.00     0.071 A 
HETATM   23  C   UNL     1      42.043 -12.776   0.064  1.00  0.00     0.105 A 
HETATM   24  N   UNL     1      41.911 -13.917   0.746  1.00  0.00    -0.211 NA
BRANCH  23  25
HETATM   25  N   UNL     1      42.456 -11.659   0.790  1.00  0.00    -0.287 NA
HETATM   26  H   UNL     1      42.766 -11.976   1.704  1.00  0.00     0.125 HD
HETATM   27  H   UNL     1      41.723 -10.962   0.864  1.00  0.00     0.125 HD
ENDBRANCH  23  25
ENDBRANCH  17  18
ENDBRANCH  16  17
ENDBRANCH   1  16
TORSDOF 4
ENDMDL
MODEL 2
REMARK VINA RESULT:      -9.3      0.739      1.759
REMARK  4 active torsions:
REMARK  status: ('A' for Active; 'I' for Inactive)
REMARK    1  A    between atoms: C_4  and  S_5 
REMARK    2  A    between atoms: S_5  and  C_6 
REMARK    3  A    between atoms: C_6  and  C_7 
REMARK    4  A    between atoms: C_23  and  N_24 
ROOT
HETATM    1  C   UNL     1      43.143 -16.650   2.930  1.00  0.00    -0.029 C 
HETATM    2  C   UNL     1      43.644 -17.812   3.744  1.00  0.00     0.016 A 
HETATM    3  C   UNL     1      43.986 -17.514   5.078  1.00  0.00     0.091 A 
HETATM    4  C   UNL     1      44.568 -18.434   5.945  1.00  0.00     0.039 A 
HETATM    5  C   UNL     1      44.820 -19.717   5.498  1.00  0.00     0.015 A 
HETATM    6  C   UNL     1      44.454 -20.104   4.208  1.00  0.00    -0.025 A 
HETATM    7  C   UNL     1      43.831 -19.182   3.310  1.00  0.00    -0.012 A 
HETATM    8  C   UNL     1      44.705 -21.438   3.839  1.00  0.00     0.012 A 
HETATM    9  C   UNL     1      44.336 -21.925   2.593  1.00  0.00     0.001 A 
HETATM   10  C   UNL     1      43.687 -21.084   1.710  1.00  0.00     0.001 A 
HETATM   11  C   UNL     1      43.433 -19.753   2.067  1.00  0.00     0.013 A 
HETATM   12  O   UNL     1      43.737 -16.264   5.679  1.00  0.00    -0.275 OA
HETATM   13  C   UNL     1      43.065 -15.274   5.005  1.00  0.00     0.288 C 
HETATM   14  O   UNL     1      42.712 -14.230   5.541  1.00  0.00    -0.260 OA
HETATM   15  C   UNL     1      42.850 -15.506   3.578  1.00  0.00     0.091 C 
ENDROOT
BRANCH   1  16
HETATM   16  C   UNL     1      43.015 -16.766   1.425  1.00  0.00     0.122 C 
BRANCH  16  17
HETATM   17  S   UNL     1      41.327 -16.881   0.759  1.00  0.00    -0.085 SA
BRANCH  17  18
HETATM   18  C   UNL     1      41.372 -15.515  -0.377  1.00  0.00     0.190 A 
HETATM   19  N   UNL     1      41.750 -14.331   0.131  1.00  0.00    -0.228 NA
HETATM   20  C   UNL     1      41.772 -13.285  -0.717  1.00  0.00     0.036 A 
HETATM   21  C   UNL     1      42.178 -11.953  -0.163  1.00  0.00     0.070 C 
HETATM   22  C   UNL     1      41.437 -13.414  -2.048  1.00  0.00     0.071 A 
HETATM   23  C   UNL     1      41.085 -14.674  -2.475  1.00  0.00     0.105 A 
HETATM   24  N   UNL     1      41.035 -15.730  -1.659  1.00  0.00    -0.211 NA
BRANCH  23  25
HETATM   25  N   UNL     1      40.708 -14.891  -3.800  1.00  0.00    -0.287 NA
HETATM   26  H   UNL     1      41.299 -14.315  -4.393  1.00  0.00     0.125 HD
HETATM   27  H   UNL     1      39.723 -14.698  -3.952  1.00  0.00     0.125 HD
ENDBRANCH  23  25
ENDBRANCH  17  18
ENDBRANCH  16  17
ENDBRANCH   1  16
TORSDOF 4
ENDMDL
MODEL 3
REMARK VINA RESULT:      -9.0      2.961      4.900
REMARK  4 active torsions:
REMARK  status: ('A' for Active; 'I' for Inactive)
REMARK    1  A    between atoms: C_4  and  S_5 
REMARK    2  A    between atoms: S_5  and  C_6 
REMARK    3  A    between atoms: C_6  and  C_7 
REMARK    4  A    between atoms: C_23  and  N_24 
ROOT
HETATM    1  C   UNL     1      44.043 -19.222   3.131  1.00  0.00    -0.029 C 
HETATM    2  C   UNL     1      44.018 -19.375   4.628  1.00  0.00     0.016 A 
HETATM    3  C   UNL     1      44.081 -20.700   5.102  1.00  0.00     0.091 A 
HETATM    4  C   UNL     1      43.959 -21.041   6.446  1.00  0.00     0.039 A 
HETATM    5  C   UNL     1      43.779 -20.041   7.382  1.00  0.00     0.015 A 
HETATM    6  C   UNL     1      43.766 -18.700   6.995  1.00  0.00    -0.025 A 
HETATM    7  C   UNL     1      43.915 -18.326   5.623  1.00  0.00    -0.012 A 
HETATM    8  C   UNL     1      43.619 -17.738   8.010  1.00  0.00     0.012 A 
HETATM    9  C   UNL     1      43.639 -16.379   7.726  1.00  0.00     0.001 A 
HETATM   10  C   UNL     1      43.830 -15.970   6.421  1.00  0.00     0.001 A 
HETATM   11  C   UNL     1      43.977 -16.920   5.402  1.00  0.00     0.013 A 
HETATM   12  O   UNL     1      44.313 -21.811   4.266  1.00  0.00    -0.275 OA
HETATM   13  C   UNL     1      44.570 -21.649   2.927  1.00  0.00     0.288 C 
HETATM   14  O   UNL     1      44.911 -22.575   2.201  1.00  0.00    -0.260 OA
HETATM   15  C   UNL     1      44.349 -20.306   2.392  1.00  0.00     0.091 C 
ENDROOT
BRANCH   1  16
HETATM   16  C   UNL     1      43.697 -17.894   2.490  1.00  0.00     0.122 C 
BRANCH  16  17
HETATM   17  S   UNL     1      41.949 -17.630   2.061  1.00  0.00    -0.085 SA
BRANCH  17  18
HETATM   18  C   UNL     1      41.739 -15.988   2.710  1.00  0.00     0.190 A 
HETATM   19  N   UNL     1      41.047 -15.885   3.855  1.00  0.00    -0.228 NA
HETATM   20  C   UNL     1      40.867 -14.644   4.346  1.00  0.00     0.036 A 
HETATM   21  C   UNL     1      40.083 -14.509   5.616  1.00  0.00     0.070 C 
HETATM   22  C   UNL     1      41.377 -13.527   3.719  1.00  0.00     0.071 A 
HETATM   23  C   UNL     1      42.090 -13.741   2.563  1.00  0.00     0.105 A 
HETATM   24  N   UNL     1      42.273 -14.956   2.037  1.00  0.00    -0.211 NA
BRANCH  23  25
HETATM   25  N   UNL     1      42.621 -12.667   1.850  1.00  0.00    -0.287 NA
HETATM   26  H   UNL     1      43.330 -13.028   1.219  1.00  0.00     0.125 HD
HETATM   27  H   UNL     1      42.994 -11.951   2.464  1.00  0.00     0.125 HD
ENDBRANCH  23  25
ENDBRANCH  17  18
ENDBRANCH  16  17
ENDBRANCH   1  16
TORSDOF 4
ENDMDL
MODEL 4
REMARK VINA RESULT:      -8.9      3.042      5.009
REMARK  4 active torsions:
REMARK  status: ('A' for Active; 'I' for Inactive)
REMARK    1  A    between atoms: C_4  and  S_5 
REMARK    2  A    between atoms: S_5  and  C_6 
REMARK    3  A    between atoms: C_6  and  C_7 
REMARK    4  A    between atoms: C_23  and  N_24 
ROOT
HETATM    1  C   UNL     1      44.057 -19.288   3.239  1.00  0.00    -0.029 C 
HETATM    2  C   UNL     1      44.026 -19.452   4.735  1.00  0.00     0.016 A 
HETATM    3  C   UNL     1      44.079 -20.780   5.199  1.00  0.00     0.091 A 
HETATM    4  C   UNL     1      43.951 -21.130   6.540  1.00  0.00     0.039 A 
HETATM    5  C   UNL     1      43.776 -20.135   7.483  1.00  0.00     0.015 A 
HETATM    6  C   UNL     1      43.773 -18.792   7.106  1.00  0.00    -0.025 A 
HETATM    7  C   UNL     1      43.928 -18.409   5.737  1.00  0.00    -0.012 A 
HETATM    8  C   UNL     1      43.630 -17.835   8.127  1.00  0.00     0.012 A 
HETATM    9  C   UNL     1      43.660 -16.475   7.853  1.00  0.00     0.001 A 
HETATM   10  C   UNL     1      43.858 -16.057   6.551  1.00  0.00     0.001 A 
HETATM   11  C   UNL     1      44.000 -17.002   5.526  1.00  0.00     0.013 A 
HETATM   12  O   UNL     1      44.305 -21.886   4.356  1.00  0.00    -0.275 OA
HETATM   13  C   UNL     1      44.567 -21.717   3.019  1.00  0.00     0.288 C 
HETATM   14  O   UNL     1      44.903 -22.640   2.287  1.00  0.00    -0.260 OA
HETATM   15  C   UNL     1      44.356 -20.369   2.493  1.00  0.00     0.091 C 
ENDROOT
BRANCH   1  16
HETATM   16  C   UNL     1      43.721 -17.953   2.606  1.00  0.00     0.122 C 
BRANCH  16  17
HETATM   17  S   UNL     1      42.086 -17.814   1.820  1.00  0.00    -0.085 SA
BRANCH  17  18
HETATM   18  C   UNL     1      41.415 -16.483   2.788  1.00  0.00     0.190 A 
HETATM   19  N   UNL     1      41.310 -15.294   2.173  1.00  0.00    -0.228 NA
HETATM   20  C   UNL     1      40.818 -14.274   2.902  1.00  0.00     0.036 A 
HETATM   21  C   UNL     1      40.709 -12.937   2.236  1.00  0.00     0.070 C 
HETATM   22  C   UNL     1      40.425 -14.435   4.214  1.00  0.00     0.071 A 
HETATM   23  C   UNL     1      40.552 -15.698   4.745  1.00  0.00     0.105 A 
HETATM   24  N   UNL     1      41.052 -16.728   4.057  1.00  0.00    -0.211 NA
BRANCH  23  25
HETATM   25  N   UNL     1      40.201 -15.944   6.072  1.00  0.00    -0.287 NA
HETATM   26  H   UNL     1      41.054 -15.967   6.623  1.00  0.00     0.125 HD
HETATM   27  H   UNL     1      39.667 -16.801   6.171  1.00  0.00     0.125 HD
ENDBRANCH  23  25
ENDBRANCH  17  18
ENDBRANCH  16  17
ENDBRANCH   1  16
TORSDOF 4
ENDMDL
MODEL 5
REMARK VINA RESULT:      -8.9      2.379      4.170
REMARK  4 active torsions:
REMARK  status: ('A' for Active; 'I' for Inactive)
REMARK    1  A    between atoms: C_4  and  S_5 
REMARK    2  A    between atoms: S_5  and  C_6 
REMARK    3  A    between atoms: C_6  and  C_7 
REMARK    4  A    between atoms: C_23  and  N_24 
ROOT
HETATM    1  C   UNL     1      42.900 -18.858   2.474  1.00  0.00    -0.029 C 
HETATM    2  C   UNL     1      43.597 -18.633   3.788  1.00  0.00     0.016 A 
HETATM    3  C   UNL     1      44.287 -19.746   4.306  1.00  0.00     0.091 A 
HETATM    4  C   UNL     1      44.897 -19.757   5.557  1.00  0.00     0.039 A 
HETATM    5  C   UNL     1      44.846 -18.622   6.343  1.00  0.00     0.015 A 
HETATM    6  C   UNL     1      44.232 -17.460   5.873  1.00  0.00    -0.025 A 
HETATM    7  C   UNL     1      43.622 -17.419   4.580  1.00  0.00    -0.012 A 
HETATM    8  C   UNL     1      44.255 -16.333   6.714  1.00  0.00     0.012 A 
HETATM    9  C   UNL     1      43.709 -15.121   6.314  1.00  0.00     0.001 A 
HETATM   10  C   UNL     1      43.153 -15.020   5.053  1.00  0.00     0.001 A 
HETATM   11  C   UNL     1      43.123 -16.137   4.208  1.00  0.00     0.013 A 
HETATM   12  O   UNL     1      44.462 -20.948   3.592  1.00  0.00    -0.275 OA
HETATM   13  C   UNL     1      44.026 -21.074   2.296  1.00  0.00     0.288 C 
HETATM   14  O   UNL     1      44.281 -22.050   1.602  1.00  0.00    -0.260 OA
HETATM   15  C   UNL     1      43.170 -19.994   1.803  1.00  0.00     0.091 C 
ENDROOT
BRANCH   1  16
HETATM   16  C   UNL     1      41.897 -17.848   1.954  1.00  0.00     0.122 C 
BRANCH  16  17
HETATM   17  S   UNL     1      42.438 -16.807   0.565  1.00  0.00    -0.085 SA
BRANCH  17  18
HETATM   18  C   UNL     1      41.551 -15.318   0.959  1.00  0.00     0.190 A 
HETATM   19  N   UNL     1      40.211 -15.396   0.919  1.00  0.00    -0.228 NA
HETATM   20  C   UNL     1      39.528 -14.269   1.199  1.00  0.00     0.036 A 
HETATM   21  C   UNL     1      38.033 -14.335   1.144  1.00  0.00     0.070 C 
HETATM   22  C   UNL     1      40.164 -13.090   1.525  1.00  0.00     0.071 A 
HETATM   23  C   UNL     1      41.539 -13.120   1.560  1.00  0.00     0.105 A 
HETATM   24  N   UNL     1      42.249 -14.214   1.271  1.00  0.00    -0.211 NA
BRANCH  23  25
HETATM   25  N   UNL     1      42.263 -11.966   1.857  1.00  0.00    -0.287 NA
HETATM   26  H   UNL     1      41.835 -11.527   2.667  1.00  0.00     0.125 HD
HETATM   27  H   UNL     1      42.309 -11.332   1.066  1.00  0.00     0.125 HD
ENDBRANCH  23  25
ENDBRANCH  17  18
ENDBRANCH  16  17
ENDBRANCH   1  16
TORSDOF 4
ENDMDL
MODEL 6
REMARK VINA RESULT:      -8.7      1.635      1.901
REMARK  4 active torsions:
REMARK  status: ('A' for Active; 'I' for Inactive)
REMARK    1  A    between atoms: C_4  and  S_5 
REMARK    2  A    between atoms: S_5  and  C_6 
REMARK    3  A    between atoms: C_6  and  C_7 
REMARK    4  A    between atoms: C_23  and  N_24 
ROOT
HETATM    1  C   UNL     1      41.443 -16.935   3.329  1.00  0.00    -0.029 C 
HETATM    2  C   UNL     1      42.547 -17.730   3.970  1.00  0.00     0.016 A 
HETATM    3  C   UNL     1      42.987 -17.255   5.221  1.00  0.00     0.091 A 
HETATM    4  C   UNL     1      44.069 -17.795   5.910  1.00  0.00     0.039 A 
HETATM    5  C   UNL     1      44.753 -18.864   5.362  1.00  0.00     0.015 A 
HETATM    6  C   UNL     1      44.338 -19.428   4.155  1.00  0.00    -0.025 A 
HETATM    7  C   UNL     1      43.213 -18.905   3.443  1.00  0.00    -0.012 A 
HETATM    8  C   UNL     1      45.059 -20.539   3.680  1.00  0.00     0.012 A 
HETATM    9  C   UNL     1      44.693 -21.193   2.511  1.00  0.00     0.001 A 
HETATM   10  C   UNL     1      43.583 -20.753   1.817  1.00  0.00     0.001 A 
HETATM   11  C   UNL     1      42.859 -19.647   2.280  1.00  0.00     0.013 A 
HETATM   12  O   UNL     1      42.351 -16.208   5.918  1.00  0.00    -0.275 OA
HETATM   13  C   UNL     1      41.199 -15.635   5.440  1.00  0.00     0.288 C 
HETATM   14  O   UNL     1      40.547 -14.822   6.084  1.00  0.00    -0.260 OA
HETATM   15  C   UNL     1      40.822 -16.001   4.075  1.00  0.00     0.091 C 
ENDROOT
BRANCH   1  16
HETATM   16  C   UNL     1      41.078 -17.162   1.876  1.00  0.00     0.122 C 
BRANCH  16  17
HETATM   17  S   UNL     1      42.075 -16.277   0.639  1.00  0.00    -0.085 SA
BRANCH  17  18
HETATM   18  C   UNL     1      41.328 -14.669   0.764  1.00  0.00     0.190 A 
HETATM   19  N   UNL     1      39.986 -14.638   0.810  1.00  0.00    -0.228 NA
HETATM   20  C   UNL     1      39.408 -13.424   0.887  1.00  0.00     0.036 A 
HETATM   21  C   UNL     1      37.912 -13.372   0.924  1.00  0.00     0.070 C 
HETATM   22  C   UNL     1      40.149 -12.262   0.931  1.00  0.00     0.071 A 
HETATM   23  C   UNL     1      41.518 -12.402   0.901  1.00  0.00     0.105 A 
HETATM   24  N   UNL     1      42.124 -13.589   0.806  1.00  0.00    -0.211 NA
BRANCH  23  25
HETATM   25  N   UNL     1      42.343 -11.279   0.917  1.00  0.00    -0.287 NA
HETATM   26  H   UNL     1      42.695 -11.134  -0.025  1.00  0.00     0.125 HD
HETATM   27  H   UNL     1      43.097 -11.371   1.589  1.00  0.00     0.125 HD
ENDBRANCH  23  25
ENDBRANCH  17  18
ENDBRANCH  16  17
ENDBRANCH   1  16
TORSDOF 4
ENDMDL
MODEL 7
REMARK VINA RESULT:      -8.6      2.894      3.571
REMARK  4 active torsions:
REMARK  status: ('A' for Active; 'I' for Inactive)
REMARK    1  A    between atoms: C_4  and  S_5 
REMARK    2  A    between atoms: S_5  and  C_6 
REMARK    3  A    between atoms: C_6  and  C_7 
REMARK    4  A    between atoms: C_23  and  N_24 
ROOT
HETATM    1  C   UNL     1      43.533 -16.609   5.708  1.00  0.00    -0.029 C 
HETATM    2  C   UNL     1      43.793 -18.043   5.337  1.00  0.00     0.016 A 
HETATM    3  C   UNL     1      44.121 -18.896   6.409  1.00  0.00     0.091 A 
HETATM    4  C   UNL     1      44.500 -20.225   6.245  1.00  0.00     0.039 A 
HETATM    5  C   UNL     1      44.550 -20.760   4.972  1.00  0.00     0.015 A 
HETATM    6  C   UNL     1      44.181 -19.994   3.865  1.00  0.00    -0.025 A 
HETATM    7  C   UNL     1      43.764 -18.634   4.014  1.00  0.00    -0.012 A 
HETATM    8  C   UNL     1      44.218 -20.620   2.606  1.00  0.00     0.012 A 
HETATM    9  C   UNL     1      43.827 -19.952   1.454  1.00  0.00     0.001 A 
HETATM   10  C   UNL     1      43.370 -18.652   1.556  1.00  0.00     0.001 A 
HETATM   11  C   UNL     1      43.329 -18.019   2.805  1.00  0.00     0.013 A 
HETATM   12  O   UNL     1      44.062 -18.498   7.760  1.00  0.00    -0.275 OA
HETATM   13  C   UNL     1      43.598 -17.255   8.114  1.00  0.00     0.288 C 
HETATM   14  O   UNL     1      43.404 -16.927   9.277  1.00  0.00    -0.260 OA
HETATM   15  C   UNL     1      43.409 -16.308   7.015  1.00  0.00     0.091 C 
ENDROOT
BRANCH   1  16
HETATM   16  C   UNL     1      43.454 -15.541   4.636  1.00  0.00     0.122 C 
BRANCH  16  17
HETATM   17  S   UNL     1      42.488 -14.053   5.040  1.00  0.00    -0.085 SA
BRANCH  17  18
HETATM   18  C   UNL     1      41.167 -14.240   3.866  1.00  0.00     0.190 A 
HETATM   19  N   UNL     1      40.455 -13.136   3.590  1.00  0.00    -0.228 NA
HETATM   20  C   UNL     1      39.440 -13.270   2.715  1.00  0.00     0.036 A 
HETATM   21  C   UNL     1      38.627 -12.051   2.407  1.00  0.00     0.070 C 
HETATM   22  C   UNL     1      39.146 -14.476   2.114  1.00  0.00     0.071 A 
HETATM   23  C   UNL     1      39.949 -15.542   2.447  1.00  0.00     0.105 A 
HETATM   24  N   UNL     1      40.952 -15.450   3.324  1.00  0.00    -0.211 NA
BRANCH  23  25
HETATM   25  N   UNL     1      39.707 -16.804   1.905  1.00  0.00    -0.287 NA
HETATM   26  H   UNL     1      40.310 -17.470   2.380  1.00  0.00     0.125 HD
HETATM   27  H   UNL     1      39.849 -16.820   0.901  1.00  0.00     0.125 HD
ENDBRANCH  23  25
ENDBRANCH  17  18
ENDBRANCH  16  17
ENDBRANCH   1  16
TORSDOF 4
ENDMDL
MODEL 8
REMARK VINA RESULT:      -8.3      3.370      4.714
REMARK  4 active torsions:
REMARK  status: ('A' for Active; 'I' for Inactive)
REMARK    1  A    between atoms: C_4  and  S_5 
REMARK    2  A    between atoms: S_5  and  C_6 
REMARK    3  A    between atoms: C_6  and  C_7 
REMARK    4  A    between atoms: C_23  and  N_24 
ROOT
HETATM    1  C   UNL     1      42.553 -17.019   6.401  1.00  0.00    -0.029 C 
HETATM    2  C   UNL     1      42.873 -17.844   5.184  1.00  0.00     0.016 A 
HETATM    3  C   UNL     1      43.889 -18.804   5.353  1.00  0.00     0.091 A 
HETATM    4  C   UNL     1      44.394 -19.579   4.313  1.00  0.00     0.039 A 
HETATM    5  C   UNL     1      43.874 -19.424   3.043  1.00  0.00     0.015 A 
HETATM    6  C   UNL     1      42.824 -18.535   2.808  1.00  0.00    -0.025 A 
HETATM    7  C   UNL     1      42.274 -17.748   3.868  1.00  0.00    -0.012 A 
HETATM    8  C   UNL     1      42.321 -18.462   1.497  1.00  0.00     0.012 A 
HETATM    9  C   UNL     1      41.250 -17.639   1.178  1.00  0.00     0.001 A 
HETATM   10  C   UNL     1      40.654 -16.897   2.180  1.00  0.00     0.001 A 
HETATM   11  C   UNL     1      41.148 -16.961   3.489  1.00  0.00     0.013 A 
HETATM   12  O   UNL     1      44.471 -19.103   6.602  1.00  0.00    -0.275 OA
HETATM   13  C   UNL     1      44.015 -18.515   7.755  1.00  0.00     0.288 C 
HETATM   14  O   UNL     1      44.402 -18.851   8.868  1.00  0.00    -0.260 OA
HETATM   15  C   UNL     1      43.080 -17.404   7.580  1.00  0.00     0.091 C 
ENDROOT
BRANCH   1  16
HETATM   16  C   UNL     1      41.696 -15.776   6.282  1.00  0.00     0.122 C 
BRANCH  16  17
HETATM   17  S   UNL     1      42.548 -14.245   5.793  1.00  0.00    -0.085 SA
BRANCH  17  18
HETATM   18  C   UNL     1      41.142 -13.283   5.286  1.00  0.00     0.190 A 
HETATM   19  N   UNL     1      40.670 -13.522   4.052  1.00  0.00    -0.228 NA
HETATM   20  C   UNL     1      39.615 -12.787   3.651  1.00  0.00     0.036 A 
HETATM   21  C   UNL     1      39.086 -13.032   2.272  1.00  0.00     0.070 C 
HETATM   22  C   UNL     1      39.031 -11.840   4.466  1.00  0.00     0.071 A 
HETATM   23  C   UNL     1      39.575 -11.686   5.720  1.00  0.00     0.105 A 
HETATM   24  N   UNL     1      40.632 -12.385   6.145  1.00  0.00    -0.211 NA
BRANCH  23  25
HETATM   25  N   UNL     1      39.062 -10.734   6.600  1.00  0.00    -0.287 NA
HETATM   26  H   UNL     1      39.631 -10.746   7.442  1.00  0.00     0.125 HD
HETATM   27  H   UNL     1      38.082 -10.896   6.807  1.00  0.00     0.125 HD
ENDBRANCH  23  25
ENDBRANCH  17  18
ENDBRANCH  16  17
ENDBRANCH   1  16
TORSDOF 4
ENDMDL
MODEL 9
REMARK VINA RESULT:      -8.3      1.852      2.444
REMARK  4 active torsions:
REMARK  status: ('A' for Active; 'I' for Inactive)
REMARK    1  A    between atoms: C_4  and  S_5 
REMARK    2  A    between atoms: S_5  and  C_6 
REMARK    3  A    between atoms: C_6  and  C_7 
REMARK    4  A    between atoms: C_23  and  N_24 
ROOT
HETATM    1  C   UNL     1      43.114 -15.924   4.769  1.00  0.00    -0.029 C 
HETATM    2  C   UNL     1      43.725 -17.300   4.758  1.00  0.00     0.016 A 
HETATM    3  C   UNL     1      44.592 -17.585   5.831  1.00  0.00     0.091 A 
HETATM    4  C   UNL     1      45.330 -18.761   5.929  1.00  0.00     0.039 A 
HETATM    5  C   UNL     1      45.210 -19.718   4.939  1.00  0.00     0.015 A 
HETATM    6  C   UNL     1      44.325 -19.532   3.876  1.00  0.00    -0.025 A 
HETATM    7  C   UNL     1      43.538 -18.343   3.769  1.00  0.00    -0.012 A 
HETATM    8  C   UNL     1      44.228 -20.568   2.930  1.00  0.00     0.012 A 
HETATM    9  C   UNL     1      43.343 -20.492   1.862  1.00  0.00     0.001 A 
HETATM   10  C   UNL     1      42.527 -19.383   1.746  1.00  0.00     0.001 A 
HETATM   11  C   UNL     1      42.616 -18.345   2.683  1.00  0.00     0.013 A 
HETATM   12  O   UNL     1      44.770 -16.724   6.932  1.00  0.00    -0.275 OA
HETATM   13  C   UNL     1      44.034 -15.572   7.057  1.00  0.00     0.288 C 
HETATM   14  O   UNL     1      44.062 -14.873   8.063  1.00  0.00    -0.260 OA
HETATM   15  C   UNL     1      43.254 -15.181   5.883  1.00  0.00     0.091 C 
ENDROOT
BRANCH   1  16
HETATM   16  C   UNL     1      42.401 -15.392   3.543  1.00  0.00     0.122 C 
BRANCH  16  17
HETATM   17  S   UNL     1      40.601 -15.169   3.682  1.00  0.00    -0.085 SA
BRANCH  17  18
HETATM   18  C   UNL     1      40.231 -14.759   1.992  1.00  0.00     0.190 A 
HETATM   19  N   UNL     1      39.090 -14.086   1.779  1.00  0.00    -0.228 NA
HETATM   20  C   UNL     1      38.791 -13.785   0.501  1.00  0.00     0.036 A 
HETATM   21  C   UNL     1      37.512 -13.047   0.245  1.00  0.00     0.070 C 
HETATM   22  C   UNL     1      39.617 -14.134  -0.546  1.00  0.00     0.071 A 
HETATM   23  C   UNL     1      40.775 -14.803  -0.221  1.00  0.00     0.105 A 
HETATM   24  N   UNL     1      41.094 -15.134   1.034  1.00  0.00    -0.211 NA
BRANCH  23  25
HETATM   25  N   UNL     1      41.656 -15.216  -1.219  1.00  0.00    -0.287 NA
HETATM   26  H   UNL     1      42.038 -14.386  -1.664  1.00  0.00     0.125 HD
HETATM   27  H   UNL     1      41.208 -15.830  -1.891  1.00  0.00     0.125 HD
ENDBRANCH  23  25
ENDBRANCH  17  18
ENDBRANCH  16  17
ENDBRANCH   1  16
TORSDOF 4
ENDMDL
MODEL 10
REMARK VINA RESULT:      -8.1      2.217      4.404
REMARK  4 active torsions:
REMARK  status: ('A' for Active; 'I' for Inactive)
REMARK    1  A    between atoms: C_4  and  S_5 
REMARK    2  A    between atoms: S_5  and  C_6 
REMARK    3  A    between atoms: C_6  and  C_7 
REMARK    4  A    between atoms: C_23  and  N_24 
ROOT
HETATM    1  C   UNL     1      44.011 -18.676   3.518  1.00  0.00    -0.029 C 
HETATM    2  C   UNL     1      43.787 -17.743   4.676  1.00  0.00     0.016 A 
HETATM    3  C   UNL     1      43.803 -18.344   5.950  1.00  0.00     0.091 A 
HETATM    4  C   UNL     1      43.506 -17.660   7.125  1.00  0.00     0.039 A 
HETATM    5  C   UNL     1      43.189 -16.317   7.063  1.00  0.00     0.015 A 
HETATM    6  C   UNL     1      43.212 -15.638   5.844  1.00  0.00    -0.025 A 
HETATM    7  C   UNL     1      43.539 -16.315   4.627  1.00  0.00    -0.012 A 
HETATM    8  C   UNL     1      42.918 -14.262   5.865  1.00  0.00     0.012 A 
HETATM    9  C   UNL     1      42.958 -13.496   4.709  1.00  0.00     0.001 A 
HETATM   10  C   UNL     1      43.318 -14.097   3.518  1.00  0.00     0.001 A 
HETATM   11  C   UNL     1      43.611 -15.467   3.485  1.00  0.00     0.013 A 
HETATM   12  O   UNL     1      44.159 -19.690   6.165  1.00  0.00    -0.275 OA
HETATM   13  C   UNL     1      44.592 -20.483   5.131  1.00  0.00     0.288 C 
HETATM   14  O   UNL     1      45.038 -21.611   5.303  1.00  0.00    -0.260 OA
HETATM   15  C   UNL     1      44.427 -19.928   3.788  1.00  0.00     0.091 C 
ENDROOT
BRANCH   1  16
HETATM   16  C   UNL     1      43.737 -18.219   2.100  1.00  0.00     0.122 C 
BRANCH  16  17
HETATM   17  S   UNL     1      42.138 -18.707   1.383  1.00  0.00    -0.085 SA
BRANCH  17  18
HETATM   18  C   UNL     1      41.388 -17.102   1.235  1.00  0.00     0.190 A 
HETATM   19  N   UNL     1      41.596 -16.451   0.080  1.00  0.00    -0.228 NA
HETATM   20  C   UNL     1      41.047 -15.227  -0.036  1.00  0.00     0.036 A 
HETATM   21  C   UNL     1      41.282 -14.481  -1.314  1.00  0.00     0.070 C 
HETATM   22  C   UNL     1      40.292 -14.665   0.971  1.00  0.00     0.071 A 
HETATM   23  C   UNL     1      40.120 -15.422   2.107  1.00  0.00     0.105 A 
HETATM   24  N   UNL     1      40.665 -16.631   2.264  1.00  0.00    -0.211 NA
BRANCH  23  25
HETATM   25  N   UNL     1      39.392 -14.920   3.186  1.00  0.00    -0.287 NA
HETATM   26  H   UNL     1      39.464 -15.586   3.950  1.00  0.00     0.125 HD
HETATM   27  H   UNL     1      38.425 -14.736   2.939  1.00  0.00     0.125 HD
ENDBRANCH  23  25
ENDBRANCH  17  18
ENDBRANCH  16  17
ENDBRANCH   1  16
TORSDOF 4
ENDMDL
