MODEL 1
REMARK VINA RESULT:      -8.9      0.000      0.000
REMARK  7 active torsions:
REMARK  status: ('A' for Active; 'I' for Inactive)
REMARK    1  A    between atoms: C_2  and  O_3 
REMARK    2  A    between atoms: O_3  and  C_4 
REMARK    3  A    between atoms: C_5  and  O_6 
REMARK    4  A    between atoms: C_9  and  C_10 
REMARK    5  A    between atoms: C_14  and  C_15 
REMARK       I    between atoms: C_15  and  N_16 
REMARK    6  A    between atoms: N_16  and  N_17 
REMARK    7  A    between atoms: C_18  and  C_19 
ROOT
HETATM    1  C   UNL     1      44.297 -11.063   9.946  1.00  0.00     0.089 A 
HETATM    2  N   UNL     1      45.530 -10.650   9.614  1.00  0.00    -0.174 NA
HETATM    3  N   UNL     1      45.942 -11.510   8.673  1.00  0.00    -0.272 N 
HETATM    4  H   UNL     1      46.867 -11.395   8.267  1.00  0.00     0.189 HD
HETATM    5  C   UNL     1      45.032 -12.481   8.364  1.00  0.00     0.121 A 
HETATM    6  C   UNL     1      43.947 -12.212   9.177  1.00  0.00     0.071 A 
ENDROOT
BRANCH   5   7
HETATM    7  C   UNL     1      45.322 -13.490   7.376  1.00  0.00     0.289 C 
HETATM    8  N   UNL     1      44.515 -14.615   7.446  1.00  0.00    -0.242 N 
HETATM    9  H   UNL     1      43.790 -14.680   8.147  1.00  0.00     0.192 HD
HETATM   10  O   UNL     1      46.220 -13.331   6.553  1.00  0.00    -0.264 OA
BRANCH   8  11
HETATM   11  N   UNL     1      44.697 -15.654   6.575  1.00  0.00    -0.183 NA
HETATM   12  C   UNL     1      43.901 -16.661   6.729  1.00  0.00     0.152 C 
BRANCH  12  13
HETATM   13  C   UNL     1      44.017 -17.812   5.860  1.00  0.00     0.011 A 
HETATM   14  C   UNL     1      43.825 -17.852   4.441  1.00  0.00     0.004 A 
HETATM   15  C   UNL     1      44.037 -19.169   4.029  1.00  0.00     0.043 A 
HETATM   16  C   UNL     1      43.489 -16.891   3.463  1.00  0.00     0.014 A 
HETATM   17  C   UNL     1      43.930 -19.574   2.693  1.00  0.00     0.030 A 
HETATM   18  N   UNL     1      44.346 -19.901   5.152  1.00  0.00    -0.364 N 
HETATM   19  C   UNL     1      43.597 -18.601   1.745  1.00  0.00     0.002 A 
HETATM   20  C   UNL     1      43.379 -17.279   2.122  1.00  0.00     0.001 A 
HETATM   21  H   UNL     1      44.550 -20.892   5.155  1.00  0.00     0.165 HD
HETATM   22  C   UNL     1      44.337 -19.096   6.256  1.00  0.00     0.102 A 
ENDBRANCH  12  13
ENDBRANCH   8  11
ENDBRANCH   5   7
BRANCH   1  23
HETATM   23  C   UNL     1      43.502 -10.367  10.969  1.00  0.00    -0.003 A 
HETATM   24  C   UNL     1      42.264  -9.775  10.658  1.00  0.00     0.053 A 
HETATM   25  C   UNL     1      41.500  -9.116  11.636  1.00  0.00     0.102 A 
HETATM   26  C   UNL     1      41.977  -9.075  12.956  1.00  0.00     0.102 A 
HETATM   27  C   UNL     1      43.218  -9.632  13.268  1.00  0.00     0.040 A 
HETATM   28  C   UNL     1      43.971 -10.278  12.286  1.00  0.00     0.017 A 
BRANCH  25  29
HETATM   29  O   UNL     1      40.311  -8.486  11.380  1.00  0.00    -0.353 OA
HETATM   30  C   UNL     1      39.110  -9.229  11.537  1.00  0.00     0.210 C 
ENDBRANCH  25  29
BRANCH  26  31
HETATM   31  O   UNL     1      41.354  -8.465  14.014  1.00  0.00    -0.349 OA
BRANCH  31  32
HETATM   32  C   UNL     1      41.450  -9.166  15.257  1.00  0.00     0.171 C 
HETATM   33  C   UNL     1      41.721  -8.144  16.348  1.00  0.00     0.034 C 
ENDBRANCH  31  32
ENDBRANCH  26  31
ENDBRANCH   1  23
TORSDOF 7
ENDMDL
MODEL 2
REMARK VINA RESULT:      -8.5      1.721      2.524
REMARK  7 active torsions:
REMARK  status: ('A' for Active; 'I' for Inactive)
REMARK    1  A    between atoms: C_2  and  O_3 
REMARK    2  A    between atoms: O_3  and  C_4 
REMARK    3  A    between atoms: C_5  and  O_6 
REMARK    4  A    between atoms: C_9  and  C_10 
REMARK    5  A    between atoms: C_14  and  C_15 
REMARK       I    between atoms: C_15  and  N_16 
REMARK    6  A    between atoms: N_16  and  N_17 
REMARK    7  A    between atoms: C_18  and  C_19 
ROOT
HETATM    1  C   UNL     1      43.976 -12.165   8.760  1.00  0.00     0.089 A 
HETATM    2  N   UNL     1      45.129 -12.849   8.822  1.00  0.00    -0.174 NA
HETATM    3  N   UNL     1      45.153 -13.588   7.704  1.00  0.00    -0.272 N 
HETATM    4  H   UNL     1      45.946 -14.201   7.533  1.00  0.00     0.189 HD
HETATM    5  C   UNL     1      44.062 -13.422   6.899  1.00  0.00     0.121 A 
HETATM    6  C   UNL     1      43.278 -12.497   7.561  1.00  0.00     0.071 A 
ENDROOT
BRANCH   5   7
HETATM    7  C   UNL     1      43.931 -14.150   5.661  1.00  0.00     0.289 C 
HETATM    8  N   UNL     1      43.690 -15.508   5.813  1.00  0.00    -0.242 N 
HETATM    9  H   UNL     1      43.615 -15.913   6.736  1.00  0.00     0.192 HD
HETATM   10  O   UNL     1      44.030 -13.580   4.577  1.00  0.00    -0.264 OA
BRANCH   8  11
HETATM   11  N   UNL     1      43.560 -16.315   4.717  1.00  0.00    -0.183 NA
HETATM   12  C   UNL     1      43.939 -17.541   4.876  1.00  0.00     0.152 C 
BRANCH  12  13
HETATM   13  C   UNL     1      43.847 -18.474   3.773  1.00  0.00     0.011 A 
HETATM   14  C   UNL     1      44.178 -19.868   3.785  1.00  0.00     0.004 A 
HETATM   15  C   UNL     1      43.936 -20.363   2.501  1.00  0.00     0.043 A 
HETATM   16  C   UNL     1      44.662 -20.760   4.766  1.00  0.00     0.014 A 
HETATM   17  C   UNL     1      44.153 -21.700   2.150  1.00  0.00     0.030 A 
HETATM   18  N   UNL     1      43.476 -19.313   1.740  1.00  0.00    -0.364 N 
HETATM   19  C   UNL     1      44.633 -22.562   3.141  1.00  0.00     0.002 A 
HETATM   20  C   UNL     1      44.884 -22.101   4.431  1.00  0.00     0.001 A 
HETATM   21  H   UNL     1      43.218 -19.379   0.765  1.00  0.00     0.165 HD
HETATM   22  C   UNL     1      43.418 -18.174   2.495  1.00  0.00     0.102 A 
ENDBRANCH  12  13
ENDBRANCH   8  11
ENDBRANCH   5   7
BRANCH   1  23
HETATM   23  C   UNL     1      43.575 -11.233   9.825  1.00  0.00    -0.003 A 
HETATM   24  C   UNL     1      42.372 -10.507   9.750  1.00  0.00     0.053 A 
HETATM   25  C   UNL     1      41.985  -9.622  10.770  1.00  0.00     0.102 A 
HETATM   26  C   UNL     1      42.810  -9.483  11.898  1.00  0.00     0.102 A 
HETATM   27  C   UNL     1      44.021 -10.175  11.967  1.00  0.00     0.040 A 
HETATM   28  C   UNL     1      44.398 -11.046  10.944  1.00  0.00     0.017 A 
BRANCH  25  29
HETATM   29  O   UNL     1      40.847  -8.860  10.729  1.00  0.00    -0.353 OA
HETATM   30  C   UNL     1      40.894  -7.621  10.035  1.00  0.00     0.210 C 
ENDBRANCH  25  29
BRANCH  26  31
HETATM   31  O   UNL     1      42.574  -8.656  12.966  1.00  0.00    -0.349 OA
BRANCH  31  32
HETATM   32  C   UNL     1      41.696  -9.191  13.960  1.00  0.00     0.171 C 
HETATM   33  C   UNL     1      42.442  -9.199  15.284  1.00  0.00     0.034 C 
ENDBRANCH  31  32
ENDBRANCH  26  31
ENDBRANCH   1  23
TORSDOF 7
ENDMDL
MODEL 3
REMARK VINA RESULT:      -8.4      3.508     11.645
REMARK  7 active torsions:
REMARK  status: ('A' for Active; 'I' for Inactive)
REMARK    1  A    between atoms: C_2  and  O_3 
REMARK    2  A    between atoms: O_3  and  C_4 
REMARK    3  A    between atoms: C_5  and  O_6 
REMARK    4  A    between atoms: C_9  and  C_10 
REMARK    5  A    between atoms: C_14  and  C_15 
REMARK       I    between atoms: C_15  and  N_16 
REMARK    6  A    between atoms: N_16  and  N_17 
REMARK    7  A    between atoms: C_18  and  C_19 
ROOT
HETATM    1  C   UNL     1      41.430 -15.350   4.507  1.00  0.00     0.089 A 
HETATM    2  N   UNL     1      40.451 -14.870   3.724  1.00  0.00    -0.174 NA
HETATM    3  N   UNL     1      39.981 -13.798   4.376  1.00  0.00    -0.272 N 
HETATM    4  H   UNL     1      39.218 -13.264   3.967  1.00  0.00     0.189 HD
HETATM    5  C   UNL     1      40.609 -13.543   5.562  1.00  0.00     0.121 A 
HETATM    6  C   UNL     1      41.562 -14.538   5.672  1.00  0.00     0.071 A 
ENDROOT
BRANCH   5   7
HETATM    7  C   UNL     1      40.219 -12.428   6.389  1.00  0.00     0.289 C 
HETATM    8  N   UNL     1      41.272 -11.778   7.015  1.00  0.00    -0.242 N 
HETATM    9  H   UNL     1      42.222 -12.091   6.873  1.00  0.00     0.192 HD
HETATM   10  O   UNL     1      39.038 -12.109   6.506  1.00  0.00    -0.264 OA
BRANCH   8  11
HETATM   11  N   UNL     1      41.035 -10.713   7.840  1.00  0.00    -0.183 NA
HETATM   12  C   UNL     1      41.847 -10.588   8.840  1.00  0.00     0.152 C 
BRANCH  12  13
HETATM   13  C   UNL     1      41.678  -9.496   9.774  1.00  0.00     0.011 A 
HETATM   14  C   UNL     1      42.230  -9.387  11.092  1.00  0.00     0.004 A 
HETATM   15  C   UNL     1      41.799  -8.169  11.623  1.00  0.00     0.043 A 
HETATM   16  C   UNL     1      43.056 -10.209  11.887  1.00  0.00     0.014 A 
HETATM   17  C   UNL     1      42.151  -7.734  12.906  1.00  0.00     0.030 A 
HETATM   18  N   UNL     1      41.018  -7.562  10.668  1.00  0.00    -0.364 N 
HETATM   19  C   UNL     1      42.971  -8.568  13.672  1.00  0.00     0.002 A 
HETATM   20  C   UNL     1      43.418  -9.788  13.172  1.00  0.00     0.001 A 
HETATM   21  H   UNL     1      40.569  -6.662  10.777  1.00  0.00     0.165 HD
HETATM   22  C   UNL     1      40.939  -8.350   9.553  1.00  0.00     0.102 A 
ENDBRANCH  12  13
ENDBRANCH   8  11
ENDBRANCH   5   7
BRANCH   1  23
HETATM   23  C   UNL     1      42.198 -16.548   4.133  1.00  0.00    -0.003 A 
HETATM   24  C   UNL     1      43.243 -17.031   4.942  1.00  0.00     0.053 A 
HETATM   25  C   UNL     1      43.972 -18.178   4.590  1.00  0.00     0.102 A 
HETATM   26  C   UNL     1      43.628 -18.868   3.415  1.00  0.00     0.102 A 
HETATM   27  C   UNL     1      42.614 -18.378   2.590  1.00  0.00     0.040 A 
HETATM   28  C   UNL     1      41.901 -17.233   2.948  1.00  0.00     0.017 A 
BRANCH  25  29
HETATM   29  O   UNL     1      45.025 -18.668   5.317  1.00  0.00    -0.353 OA
HETATM   30  C   UNL     1      45.326 -18.052   6.561  1.00  0.00     0.210 C 
ENDBRANCH  25  29
BRANCH  26  31
HETATM   31  O   UNL     1      44.249 -19.992   2.935  1.00  0.00    -0.349 OA
BRANCH  31  32
HETATM   32  C   UNL     1      43.534 -20.683   1.908  1.00  0.00     0.171 C 
HETATM   33  C   UNL     1      44.273 -21.979   1.619  1.00  0.00     0.034 C 
ENDBRANCH  31  32
ENDBRANCH  26  31
ENDBRANCH   1  23
TORSDOF 7
ENDMDL
MODEL 4
REMARK VINA RESULT:      -8.2      7.904     12.063
REMARK  7 active torsions:
REMARK  status: ('A' for Active; 'I' for Inactive)
REMARK    1  A    between atoms: C_2  and  O_3 
REMARK    2  A    between atoms: O_3  and  C_4 
REMARK    3  A    between atoms: C_5  and  O_6 
REMARK    4  A    between atoms: C_9  and  C_10 
REMARK    5  A    between atoms: C_14  and  C_15 
REMARK       I    between atoms: C_15  and  N_16 
REMARK    6  A    between atoms: N_16  and  N_17 
REMARK    7  A    between atoms: C_18  and  C_19 
ROOT
HETATM    1  C   UNL     1      42.315 -17.462   1.594  1.00  0.00     0.089 A 
HETATM    2  N   UNL     1      41.035 -17.757   1.320  1.00  0.00    -0.174 NA
HETATM    3  N   UNL     1      40.606 -16.751   0.546  1.00  0.00    -0.272 N 
HETATM    4  H   UNL     1      39.646 -16.758   0.212  1.00  0.00     0.189 HD
HETATM    5  C   UNL     1      41.551 -15.798   0.291  1.00  0.00     0.121 A 
HETATM    6  C   UNL     1      42.677 -16.237   0.960  1.00  0.00     0.071 A 
ENDROOT
BRANCH   5   7
HETATM    7  C   UNL     1      41.249 -14.645  -0.521  1.00  0.00     0.289 C 
HETATM    8  N   UNL     1      42.005 -13.520  -0.229  1.00  0.00    -0.242 N 
HETATM    9  H   UNL     1      42.704 -13.550   0.500  1.00  0.00     0.192 HD
HETATM   10  O   UNL     1      40.384 -14.693  -1.392  1.00  0.00    -0.264 OA
BRANCH   8  11
HETATM   11  N   UNL     1      41.806 -12.354  -0.917  1.00  0.00    -0.183 NA
HETATM   12  C   UNL     1      42.835 -11.576  -1.009  1.00  0.00     0.152 C 
BRANCH  12  13
HETATM   13  C   UNL     1      42.725 -10.316  -1.712  1.00  0.00     0.011 A 
HETATM   14  C   UNL     1      42.525 -10.121  -3.118  1.00  0.00     0.004 A 
HETATM   15  C   UNL     1      42.485  -8.743  -3.345  1.00  0.00     0.043 A 
HETATM   16  C   UNL     1      42.374 -10.986  -4.223  1.00  0.00     0.014 A 
HETATM   17  C   UNL     1      42.302  -8.189  -4.617  1.00  0.00     0.030 A 
HETATM   18  N   UNL     1      42.653  -8.126  -2.127  1.00  0.00    -0.364 N 
HETATM   19  C   UNL     1      42.156  -9.069  -5.694  1.00  0.00     0.002 A 
HETATM   20  C   UNL     1      42.191 -10.447  -5.502  1.00  0.00     0.001 A 
HETATM   21  H   UNL     1      42.666  -7.124  -1.987  1.00  0.00     0.165 HD
HETATM   22  C   UNL     1      42.797  -9.061  -1.140  1.00  0.00     0.102 A 
ENDBRANCH  12  13
ENDBRANCH   8  11
ENDBRANCH   5   7
BRANCH   1  23
HETATM   23  C   UNL     1      43.144 -18.337   2.438  1.00  0.00    -0.003 A 
HETATM   24  C   UNL     1      43.660 -17.893   3.669  1.00  0.00     0.053 A 
HETATM   25  C   UNL     1      44.446 -18.730   4.479  1.00  0.00     0.102 A 
HETATM   26  C   UNL     1      44.695 -20.046   4.056  1.00  0.00     0.102 A 
HETATM   27  C   UNL     1      44.213 -20.485   2.822  1.00  0.00     0.040 A 
HETATM   28  C   UNL     1      43.439 -19.643   2.023  1.00  0.00     0.017 A 
BRANCH  25  29
HETATM   29  O   UNL     1      45.009 -18.337   5.664  1.00  0.00    -0.353 OA
HETATM   30  C   UNL     1      44.341 -17.342   6.427  1.00  0.00     0.210 C 
ENDBRANCH  25  29
BRANCH  26  31
HETATM   31  O   UNL     1      45.447 -20.975   4.728  1.00  0.00    -0.349 OA
BRANCH  31  32
HETATM   32  C   UNL     1      44.703 -22.056   5.296  1.00  0.00     0.171 C 
HETATM   33  C   UNL     1      43.971 -21.525   6.517  1.00  0.00     0.034 C 
ENDBRANCH  31  32
ENDBRANCH  26  31
ENDBRANCH   1  23
TORSDOF 7
ENDMDL
MODEL 5
REMARK VINA RESULT:      -8.2      8.882     13.336
REMARK  7 active torsions:
REMARK  status: ('A' for Active; 'I' for Inactive)
REMARK    1  A    between atoms: C_2  and  O_3 
REMARK    2  A    between atoms: O_3  and  C_4 
REMARK    3  A    between atoms: C_5  and  O_6 
REMARK    4  A    between atoms: C_9  and  C_10 
REMARK    5  A    between atoms: C_14  and  C_15 
REMARK       I    between atoms: C_15  and  N_16 
REMARK    6  A    between atoms: N_16  and  N_17 
REMARK    7  A    between atoms: C_18  and  C_19 
ROOT
HETATM    1  C   UNL     1      38.356 -14.180  -2.947  1.00  0.00     0.089 A 
HETATM    2  N   UNL     1      38.924 -15.225  -3.567  1.00  0.00    -0.174 NA
HETATM    3  N   UNL     1      39.940 -15.589  -2.773  1.00  0.00    -0.272 N 
HETATM    4  H   UNL     1      40.526 -16.373  -3.047  1.00  0.00     0.189 HD
HETATM    5  C   UNL     1      40.071 -14.828  -1.646  1.00  0.00     0.121 A 
HETATM    6  C   UNL     1      39.049 -13.902  -1.731  1.00  0.00     0.071 A 
ENDROOT
BRANCH   5   7
HETATM    7  C   UNL     1      41.119 -15.084  -0.690  1.00  0.00     0.289 C 
HETATM    8  N   UNL     1      41.248 -16.415  -0.320  1.00  0.00    -0.242 N 
HETATM    9  H   UNL     1      40.639 -17.116  -0.716  1.00  0.00     0.192 HD
HETATM   10  O   UNL     1      41.821 -14.173  -0.259  1.00  0.00    -0.264 OA
BRANCH   8  11
HETATM   11  N   UNL     1      42.195 -16.790   0.593  1.00  0.00    -0.183 NA
HETATM   12  C   UNL     1      41.802 -17.630   1.495  1.00  0.00     0.152 C 
BRANCH  12  13
HETATM   13  C   UNL     1      42.728 -18.085   2.509  1.00  0.00     0.011 A 
HETATM   14  C   UNL     1      43.338 -19.378   2.612  1.00  0.00     0.004 A 
HETATM   15  C   UNL     1      44.153 -19.364   3.746  1.00  0.00     0.043 A 
HETATM   16  C   UNL     1      43.274 -20.563   1.848  1.00  0.00     0.014 A 
HETATM   17  C   UNL     1      44.905 -20.472   4.154  1.00  0.00     0.030 A 
HETATM   18  N   UNL     1      44.044 -18.114   4.310  1.00  0.00    -0.364 N 
HETATM   19  C   UNL     1      44.824 -21.632   3.379  1.00  0.00     0.002 A 
HETATM   20  C   UNL     1      44.021 -21.679   2.242  1.00  0.00     0.001 A 
HETATM   21  H   UNL     1      44.528 -17.815   5.147  1.00  0.00     0.165 HD
HETATM   22  C   UNL     1      43.192 -17.338   3.575  1.00  0.00     0.102 A 
ENDBRANCH  12  13
ENDBRANCH   8  11
ENDBRANCH   5   7
BRANCH   1  23
HETATM   23  C   UNL     1      37.192 -13.484  -3.518  1.00  0.00    -0.003 A 
HETATM   24  C   UNL     1      36.464 -14.032  -4.590  1.00  0.00     0.053 A 
HETATM   25  C   UNL     1      35.349 -13.372  -5.132  1.00  0.00     0.102 A 
HETATM   26  C   UNL     1      34.942 -12.152  -4.569  1.00  0.00     0.102 A 
HETATM   27  C   UNL     1      35.677 -11.585  -3.527  1.00  0.00     0.040 A 
HETATM   28  C   UNL     1      36.787 -12.246  -3.001  1.00  0.00     0.017 A 
BRANCH  25  29
HETATM   29  O   UNL     1      34.630 -13.839  -6.201  1.00  0.00    -0.353 OA
HETATM   30  C   UNL     1      35.286 -13.942  -7.457  1.00  0.00     0.210 C 
ENDBRANCH  25  29
BRANCH  26  31
HETATM   31  O   UNL     1      33.885 -11.387  -4.992  1.00  0.00    -0.349 OA
BRANCH  31  32
HETATM   32  C   UNL     1      32.887 -11.137  -3.998  1.00  0.00     0.171 C 
HETATM   33  C   UNL     1      32.102 -12.421  -3.794  1.00  0.00     0.034 C 
ENDBRANCH  31  32
ENDBRANCH  26  31
ENDBRANCH   1  23
TORSDOF 7
ENDMDL
MODEL 6
REMARK VINA RESULT:      -8.1      8.802     12.777
REMARK  7 active torsions:
REMARK  status: ('A' for Active; 'I' for Inactive)
REMARK    1  A    between atoms: C_2  and  O_3 
REMARK    2  A    between atoms: O_3  and  C_4 
REMARK    3  A    between atoms: C_5  and  O_6 
REMARK    4  A    between atoms: C_9  and  C_10 
REMARK    5  A    between atoms: C_14  and  C_15 
REMARK       I    between atoms: C_15  and  N_16 
REMARK    6  A    between atoms: N_16  and  N_17 
REMARK    7  A    between atoms: C_18  and  C_19 
ROOT
HETATM    1  C   UNL     1      41.249 -13.450  -2.841  1.00  0.00     0.089 A 
HETATM    2  N   UNL     1      41.360 -14.697  -3.325  1.00  0.00    -0.174 NA
HETATM    3  N   UNL     1      41.399 -15.486  -2.242  1.00  0.00    -0.272 N 
HETATM    4  H   UNL     1      41.485 -16.492  -2.365  1.00  0.00     0.189 HD
HETATM    5  C   UNL     1      41.318 -14.814  -1.056  1.00  0.00     0.121 A 
HETATM    6  C   UNL     1      41.216 -13.484  -1.416  1.00  0.00     0.071 A 
ENDROOT
BRANCH   5   7
HETATM    7  C   UNL     1      41.352 -15.515   0.204  1.00  0.00     0.289 C 
HETATM    8  N   UNL     1      42.483 -16.295   0.398  1.00  0.00    -0.242 N 
HETATM    9  H   UNL     1      43.203 -16.336  -0.310  1.00  0.00     0.192 HD
HETATM   10  O   UNL     1      40.436 -15.407   1.015  1.00  0.00    -0.264 OA
BRANCH   8  11
HETATM   11  N   UNL     1      42.633 -17.024   1.546  1.00  0.00    -0.183 NA
HETATM   12  C   UNL     1      43.739 -17.686   1.649  1.00  0.00     0.152 C 
BRANCH  12  13
HETATM   13  C   UNL     1      43.989 -18.493   2.824  1.00  0.00     0.011 A 
HETATM   14  C   UNL     1      44.191 -19.910   2.877  1.00  0.00     0.004 A 
HETATM   15  C   UNL     1      44.393 -20.252   4.216  1.00  0.00     0.043 A 
HETATM   16  C   UNL     1      44.221 -20.940   1.912  1.00  0.00     0.014 A 
HETATM   17  C   UNL     1      44.623 -21.566   4.638  1.00  0.00     0.030 A 
HETATM   18  N   UNL     1      44.318 -19.089   4.948  1.00  0.00    -0.364 N 
HETATM   19  C   UNL     1      44.647 -22.567   3.661  1.00  0.00     0.002 A 
HETATM   20  C   UNL     1      44.449 -22.260   2.318  1.00  0.00     0.001 A 
HETATM   21  H   UNL     1      44.428 -19.032   5.951  1.00  0.00     0.165 HD
HETATM   22  C   UNL     1      44.077 -18.027   4.121  1.00  0.00     0.102 A 
ENDBRANCH  12  13
ENDBRANCH   8  11
ENDBRANCH   5   7
BRANCH   1  23
HETATM   23  C   UNL     1      41.182 -12.282  -3.733  1.00  0.00    -0.003 A 
HETATM   24  C   UNL     1      39.949 -11.742  -4.143  1.00  0.00     0.053 A 
HETATM   25  C   UNL     1      39.884 -10.623  -4.989  1.00  0.00     0.102 A 
HETATM   26  C   UNL     1      41.080 -10.019  -5.409  1.00  0.00     0.102 A 
HETATM   27  C   UNL     1      42.308 -10.566  -5.034  1.00  0.00     0.040 A 
HETATM   28  C   UNL     1      42.360 -11.682  -4.198  1.00  0.00     0.017 A 
BRANCH  25  29
HETATM   29  O   UNL     1      38.713 -10.083  -5.452  1.00  0.00    -0.353 OA
HETATM   30  C   UNL     1      37.963  -9.254  -4.576  1.00  0.00     0.210 C 
ENDBRANCH  25  29
BRANCH  26  31
HETATM   31  O   UNL     1      41.180  -8.931  -6.239  1.00  0.00    -0.349 OA
BRANCH  31  32
HETATM   32  C   UNL     1      41.940  -9.149  -7.430  1.00  0.00     0.171 C 
HETATM   33  C   UNL     1      41.023  -9.796  -8.454  1.00  0.00     0.034 C 
ENDBRANCH  31  32
ENDBRANCH  26  31
ENDBRANCH   1  23
TORSDOF 7
ENDMDL
MODEL 7
REMARK VINA RESULT:      -8.0      8.587     11.763
REMARK  7 active torsions:
REMARK  status: ('A' for Active; 'I' for Inactive)
REMARK    1  A    between atoms: C_2  and  O_3 
REMARK    2  A    between atoms: O_3  and  C_4 
REMARK    3  A    between atoms: C_5  and  O_6 
REMARK    4  A    between atoms: C_9  and  C_10 
REMARK    5  A    between atoms: C_14  and  C_15 
REMARK       I    between atoms: C_15  and  N_16 
REMARK    6  A    between atoms: N_16  and  N_17 
REMARK    7  A    between atoms: C_18  and  C_19 
ROOT
HETATM    1  C   UNL     1      41.813 -13.303  -2.030  1.00  0.00     0.089 A 
HETATM    2  N   UNL     1      41.389 -14.388  -2.697  1.00  0.00    -0.174 NA
HETATM    3  N   UNL     1      41.322 -15.357  -1.774  1.00  0.00    -0.272 N 
HETATM    4  H   UNL     1      41.021 -16.287  -2.054  1.00  0.00     0.189 HD
HETATM    5  C   UNL     1      41.683 -14.961  -0.518  1.00  0.00     0.121 A 
HETATM    6  C   UNL     1      42.005 -13.625  -0.654  1.00  0.00     0.071 A 
ENDROOT
BRANCH   5   7
HETATM    7  C   UNL     1      41.672 -15.886   0.589  1.00  0.00     0.289 C 
HETATM    8  N   UNL     1      42.780 -16.718   0.655  1.00  0.00    -0.242 N 
HETATM    9  H   UNL     1      43.515 -16.646  -0.034  1.00  0.00     0.192 HD
HETATM   10  O   UNL     1      40.739 -15.907   1.388  1.00  0.00    -0.264 OA
BRANCH   8  11
HETATM   11  N   UNL     1      42.885 -17.652   1.649  1.00  0.00    -0.183 NA
HETATM   12  C   UNL     1      43.924 -17.544   2.411  1.00  0.00     0.152 C 
BRANCH  12  13
HETATM   13  C   UNL     1      44.129 -18.488   3.489  1.00  0.00     0.011 A 
HETATM   14  C   UNL     1      44.290 -19.908   3.381  1.00  0.00     0.004 A 
HETATM   15  C   UNL     1      44.456 -20.407   4.675  1.00  0.00     0.043 A 
HETATM   16  C   UNL     1      44.311 -20.820   2.304  1.00  0.00     0.014 A 
HETATM   17  C   UNL     1      44.641 -21.768   4.945  1.00  0.00     0.030 A 
HETATM   18  N   UNL     1      44.399 -19.335   5.535  1.00  0.00    -0.364 N 
HETATM   19  C   UNL     1      44.657 -22.649   3.859  1.00  0.00     0.002 A 
HETATM   20  C   UNL     1      44.495 -22.184   2.557  1.00  0.00     0.001 A 
HETATM   21  H   UNL     1      44.489 -19.398   6.540  1.00  0.00     0.165 HD
HETATM   22  C   UNL     1      44.203 -18.178   4.833  1.00  0.00     0.102 A 
ENDBRANCH  12  13
ENDBRANCH   8  11
ENDBRANCH   5   7
BRANCH   1  23
HETATM   23  C   UNL     1      42.022 -12.015  -2.708  1.00  0.00    -0.003 A 
HETATM   24  C   UNL     1      42.316 -10.844  -1.985  1.00  0.00     0.053 A 
HETATM   25  C   UNL     1      42.522  -9.615  -2.632  1.00  0.00     0.102 A 
HETATM   26  C   UNL     1      42.458  -9.566  -4.034  1.00  0.00     0.102 A 
HETATM   27  C   UNL     1      42.135 -10.715  -4.758  1.00  0.00     0.040 A 
HETATM   28  C   UNL     1      41.926 -11.929  -4.104  1.00  0.00     0.017 A 
BRANCH  25  29
HETATM   29  O   UNL     1      42.769  -8.438  -1.975  1.00  0.00    -0.353 OA
HETATM   30  C   UNL     1      43.979  -8.320  -1.240  1.00  0.00     0.210 C 
ENDBRANCH  25  29
BRANCH  26  31
HETATM   31  O   UNL     1      42.626  -8.445  -4.805  1.00  0.00    -0.349 OA
BRANCH  31  32
HETATM   32  C   UNL     1      41.429  -7.937  -5.400  1.00  0.00     0.171 C 
HETATM   33  C   UNL     1      41.732  -7.615  -6.853  1.00  0.00     0.034 C 
ENDBRANCH  31  32
ENDBRANCH  26  31
ENDBRANCH   1  23
TORSDOF 7
ENDMDL
MODEL 8
REMARK VINA RESULT:      -7.9      7.980     12.496
REMARK  7 active torsions:
REMARK  status: ('A' for Active; 'I' for Inactive)
REMARK    1  A    between atoms: C_2  and  O_3 
REMARK    2  A    between atoms: O_3  and  C_4 
REMARK    3  A    between atoms: C_5  and  O_6 
REMARK    4  A    between atoms: C_9  and  C_10 
REMARK    5  A    between atoms: C_14  and  C_15 
REMARK       I    between atoms: C_15  and  N_16 
REMARK    6  A    between atoms: N_16  and  N_17 
REMARK    7  A    between atoms: C_18  and  C_19 
ROOT
HETATM    1  C   UNL     1      42.055 -17.448   1.676  1.00  0.00     0.089 A 
HETATM    2  N   UNL     1      40.789 -17.205   2.050  1.00  0.00    -0.174 NA
HETATM    3  N   UNL     1      40.297 -16.397   1.101  1.00  0.00    -0.272 N 
HETATM    4  H   UNL     1      39.336 -16.072   1.176  1.00  0.00     0.189 HD
HETATM    5  C   UNL     1      41.184 -16.094   0.108  1.00  0.00     0.121 A 
HETATM    6  C   UNL     1      42.339 -16.768   0.455  1.00  0.00     0.071 A 
ENDROOT
BRANCH   5   7
HETATM    7  C   UNL     1      40.814 -15.230  -0.986  1.00  0.00     0.289 C 
HETATM    8  N   UNL     1      39.758 -14.374  -0.712  1.00  0.00    -0.242 N 
HETATM    9  H   UNL     1      39.315 -14.383   0.196  1.00  0.00     0.192 HD
HETATM   10  O   UNL     1      41.408 -15.278  -2.060  1.00  0.00    -0.264 OA
BRANCH   8  11
HETATM   11  N   UNL     1      39.298 -13.513  -1.671  1.00  0.00    -0.183 NA
HETATM   12  C   UNL     1      38.012 -13.409  -1.759  1.00  0.00     0.152 C 
BRANCH  12  13
HETATM   13  C   UNL     1      37.426 -12.528  -2.746  1.00  0.00     0.011 A 
HETATM   14  C   UNL     1      36.672 -12.902  -3.906  1.00  0.00     0.004 A 
HETATM   15  C   UNL     1      36.312 -11.725  -4.566  1.00  0.00     0.043 A 
HETATM   16  C   UNL     1      36.261 -14.133  -4.461  1.00  0.00     0.014 A 
HETATM   17  C   UNL     1      35.565 -11.716  -5.749  1.00  0.00     0.030 A 
HETATM   18  N   UNL     1      36.825 -10.677  -3.837  1.00  0.00    -0.364 N 
HETATM   19  C   UNL     1      35.170 -12.950  -6.277  1.00  0.00     0.002 A 
HETATM   20  C   UNL     1      35.512 -14.141  -5.644  1.00  0.00     0.001 A 
HETATM   21  H   UNL     1      36.719  -9.701  -4.079  1.00  0.00     0.165 HD
HETATM   22  C   UNL     1      37.495 -11.148  -2.742  1.00  0.00     0.102 A 
ENDBRANCH  12  13
ENDBRANCH   8  11
ENDBRANCH   5   7
BRANCH   1  23
HETATM   23  C   UNL     1      42.943 -18.304   2.478  1.00  0.00    -0.003 A 
HETATM   24  C   UNL     1      43.488 -17.857   3.696  1.00  0.00     0.053 A 
HETATM   25  C   UNL     1      44.331 -18.675   4.465  1.00  0.00     0.102 A 
HETATM   26  C   UNL     1      44.612 -19.976   4.015  1.00  0.00     0.102 A 
HETATM   27  C   UNL     1      44.103 -20.416   2.792  1.00  0.00     0.040 A 
HETATM   28  C   UNL     1      43.271 -19.592   2.033  1.00  0.00     0.017 A 
BRANCH  25  29
HETATM   29  O   UNL     1      44.922 -18.278   5.636  1.00  0.00    -0.353 OA
HETATM   30  C   UNL     1      44.084 -17.825   6.690  1.00  0.00     0.210 C 
ENDBRANCH  25  29
BRANCH  26  31
HETATM   31  O   UNL     1      45.421 -20.885   4.646  1.00  0.00    -0.349 OA
BRANCH  31  32
HETATM   32  C   UNL     1      44.743 -22.023   5.185  1.00  0.00     0.171 C 
HETATM   33  C   UNL     1      44.028 -21.582   6.450  1.00  0.00     0.034 C 
ENDBRANCH  31  32
ENDBRANCH  26  31
ENDBRANCH   1  23
TORSDOF 7
ENDMDL
MODEL 9
REMARK VINA RESULT:      -7.8      3.174     11.393
REMARK  7 active torsions:
REMARK  status: ('A' for Active; 'I' for Inactive)
REMARK    1  A    between atoms: C_2  and  O_3 
REMARK    2  A    between atoms: O_3  and  C_4 
REMARK    3  A    between atoms: C_5  and  O_6 
REMARK    4  A    between atoms: C_9  and  C_10 
REMARK    5  A    between atoms: C_14  and  C_15 
REMARK       I    between atoms: C_15  and  N_16 
REMARK    6  A    between atoms: N_16  and  N_17 
REMARK    7  A    between atoms: C_18  and  C_19 
ROOT
HETATM    1  C   UNL     1      42.653 -14.643   4.894  1.00  0.00     0.089 A 
HETATM    2  N   UNL     1      42.119 -13.909   3.906  1.00  0.00    -0.174 NA
HETATM    3  N   UNL     1      41.789 -12.744   4.479  1.00  0.00    -0.272 N 
HETATM    4  H   UNL     1      41.358 -12.017   3.913  1.00  0.00     0.189 HD
HETATM    5  C   UNL     1      42.084 -12.671   5.811  1.00  0.00     0.121 A 
HETATM    6  C   UNL     1      42.651 -13.895   6.108  1.00  0.00     0.071 A 
ENDROOT
BRANCH   5   7
HETATM    7  C   UNL     1      41.787 -11.487   6.578  1.00  0.00     0.289 C 
HETATM    8  N   UNL     1      42.507 -11.369   7.758  1.00  0.00    -0.242 N 
HETATM    9  H   UNL     1      43.178 -12.077   8.019  1.00  0.00     0.192 HD
HETATM   10  O   UNL     1      40.957 -10.670   6.187  1.00  0.00    -0.264 OA
BRANCH   8  11
HETATM   11  N   UNL     1      42.308 -10.299   8.586  1.00  0.00    -0.183 NA
HETATM   12  C   UNL     1      42.069 -10.585   9.825  1.00  0.00     0.152 C 
BRANCH  12  13
HETATM   13  C   UNL     1      41.839  -9.522  10.779  1.00  0.00     0.011 A 
HETATM   14  C   UNL     1      42.061  -9.563  12.195  1.00  0.00     0.004 A 
HETATM   15  C   UNL     1      41.698  -8.316  12.708  1.00  0.00     0.043 A 
HETATM   16  C   UNL     1      42.536 -10.544  13.091  1.00  0.00     0.014 A 
HETATM   17  C   UNL     1      41.786  -8.001  14.069  1.00  0.00     0.030 A 
HETATM   18  N   UNL     1      41.274  -7.547  11.649  1.00  0.00    -0.364 N 
HETATM   19  C   UNL     1      42.260  -8.991  14.935  1.00  0.00     0.002 A 
HETATM   20  C   UNL     1      42.630 -10.245  14.456  1.00  0.00     0.001 A 
HETATM   21  H   UNL     1      40.951  -6.592  11.724  1.00  0.00     0.165 HD
HETATM   22  C   UNL     1      41.355  -8.262  10.486  1.00  0.00     0.102 A 
ENDBRANCH  12  13
ENDBRANCH   8  11
ENDBRANCH   5   7
BRANCH   1  23
HETATM   23  C   UNL     1      43.139 -16.012   4.660  1.00  0.00    -0.003 A 
HETATM   24  C   UNL     1      43.423 -16.477   3.363  1.00  0.00     0.053 A 
HETATM   25  C   UNL     1      43.893 -17.782   3.140  1.00  0.00     0.102 A 
HETATM   26  C   UNL     1      44.106 -18.626   4.242  1.00  0.00     0.102 A 
HETATM   27  C   UNL     1      43.796 -18.183   5.530  1.00  0.00     0.040 A 
HETATM   28  C   UNL     1      43.324 -16.887   5.739  1.00  0.00     0.017 A 
BRANCH  25  29
HETATM   29  O   UNL     1      44.145 -18.301   1.897  1.00  0.00    -0.353 OA
HETATM   30  C   UNL     1      43.544 -17.673   0.773  1.00  0.00     0.210 C 
ENDBRANCH  25  29
BRANCH  26  31
HETATM   31  O   UNL     1      44.550 -19.922   4.185  1.00  0.00    -0.349 OA
BRANCH  31  32
HETATM   32  C   UNL     1      44.524 -20.623   5.431  1.00  0.00     0.171 C 
HETATM   33  C   UNL     1      44.908 -22.068   5.160  1.00  0.00     0.034 C 
ENDBRANCH  31  32
ENDBRANCH  26  31
ENDBRANCH   1  23
TORSDOF 7
ENDMDL
MODEL 10
REMARK VINA RESULT:      -7.8      8.991     12.503
REMARK  7 active torsions:
REMARK  status: ('A' for Active; 'I' for Inactive)
REMARK    1  A    between atoms: C_2  and  O_3 
REMARK    2  A    between atoms: O_3  and  C_4 
REMARK    3  A    between atoms: C_5  and  O_6 
REMARK    4  A    between atoms: C_9  and  C_10 
REMARK    5  A    between atoms: C_14  and  C_15 
REMARK       I    between atoms: C_15  and  N_16 
REMARK    6  A    between atoms: N_16  and  N_17 
REMARK    7  A    between atoms: C_18  and  C_19 
ROOT
HETATM    1  C   UNL     1      42.168 -16.913   1.617  1.00  0.00     0.089 A 
HETATM    2  N   UNL     1      41.025 -17.306   1.034  1.00  0.00    -0.174 NA
HETATM    3  N   UNL     1      40.595 -16.233   0.356  1.00  0.00    -0.272 N 
HETATM    4  H   UNL     1      39.728 -16.295  -0.171  1.00  0.00     0.189 HD
HETATM    5  C   UNL     1      41.407 -15.140   0.464  1.00  0.00     0.121 A 
HETATM    6  C   UNL     1      42.443 -15.555   1.278  1.00  0.00     0.071 A 
ENDROOT
BRANCH   5   7
HETATM    7  C   UNL     1      41.083 -13.901  -0.200  1.00  0.00     0.289 C 
HETATM    8  N   UNL     1      42.059 -13.443  -1.073  1.00  0.00    -0.242 N 
HETATM    9  H   UNL     1      42.912 -13.969  -1.207  1.00  0.00     0.192 HD
HETATM   10  O   UNL     1      40.019 -13.326   0.015  1.00  0.00    -0.264 OA
BRANCH   8  11
HETATM   11  N   UNL     1      41.882 -12.271  -1.755  1.00  0.00    -0.183 NA
HETATM   12  C   UNL     1      42.835 -11.404  -1.635  1.00  0.00     0.152 C 
BRANCH  12  13
HETATM   13  C   UNL     1      42.739 -10.130  -2.314  1.00  0.00     0.011 A 
HETATM   14  C   UNL     1      42.478  -9.903  -3.705  1.00  0.00     0.004 A 
HETATM   15  C   UNL     1      42.481  -8.522  -3.909  1.00  0.00     0.043 A 
HETATM   16  C   UNL     1      42.240 -10.743  -4.814  1.00  0.00     0.014 A 
HETATM   17  C   UNL     1      42.258  -7.939  -5.162  1.00  0.00     0.030 A 
HETATM   18  N   UNL     1      42.732  -7.931  -2.692  1.00  0.00    -0.364 N 
HETATM   19  C   UNL     1      42.025  -8.795  -6.243  1.00  0.00     0.002 A 
HETATM   20  C   UNL     1      42.015 -10.176  -6.074  1.00  0.00     0.001 A 
HETATM   21  H   UNL     1      42.791  -6.934  -2.537  1.00  0.00     0.165 HD
HETATM   22  C   UNL     1      42.888  -8.888  -1.727  1.00  0.00     0.102 A 
ENDBRANCH  12  13
ENDBRANCH   8  11
ENDBRANCH   5   7
BRANCH   1  23
HETATM   23  C   UNL     1      42.951 -17.822   2.467  1.00  0.00    -0.003 A 
HETATM   24  C   UNL     1      43.555 -18.980   1.942  1.00  0.00     0.053 A 
HETATM   25  C   UNL     1      44.308 -19.845   2.752  1.00  0.00     0.102 A 
HETATM   26  C   UNL     1      44.480 -19.528   4.109  1.00  0.00     0.102 A 
HETATM   27  C   UNL     1      43.859 -18.399   4.646  1.00  0.00     0.040 A 
HETATM   28  C   UNL     1      43.107 -17.550   3.833  1.00  0.00     0.017 A 
BRANCH  25  29
HETATM   29  O   UNL     1      44.882 -21.006   2.303  1.00  0.00    -0.353 OA
HETATM   30  C   UNL     1      44.072 -21.916   1.573  1.00  0.00     0.210 C 
ENDBRANCH  25  29
BRANCH  26  31
HETATM   31  O   UNL     1      45.177 -20.275   5.025  1.00  0.00    -0.349 OA
BRANCH  31  32
HETATM   32  C   UNL     1      44.423 -21.316   5.652  1.00  0.00     0.171 C 
HETATM   33  C   UNL     1      45.030 -22.645   5.234  1.00  0.00     0.034 C 
ENDBRANCH  31  32
ENDBRANCH  26  31
ENDBRANCH   1  23
TORSDOF 7
ENDMDL
