MODEL 1
REMARK VINA RESULT:      -8.3      0.000      0.000
REMARK  2 active torsions:
REMARK  status: ('A' for Active; 'I' for Inactive)
REMARK    1  A    between atoms: C_7  and  N_8 
REMARK       I    between atoms: N_8  and  C_9 
REMARK       I    between atoms: C_9  and  N_10 
REMARK    2  A    between atoms: N_10  and  C_11 
ROOT
HETATM    1  C   UNL     1      43.956 -18.697   4.515  1.00  0.00     0.025 A 
HETATM    2  C   UNL     1      44.262 -19.921   3.918  1.00  0.00     0.044 A 
HETATM    3  C   UNL     1      44.621 -21.051   4.725  1.00  0.00     0.099 C 
HETATM    4  N   UNL     1      44.914 -21.962   5.380  1.00  0.00    -0.191 NA
HETATM    5  C   UNL     1      44.218 -20.035   2.526  1.00  0.00     0.025 A 
HETATM    6  C   UNL     1      43.878 -18.930   1.734  1.00  0.00     0.031 A 
HETATM    7  C   UNL     1      43.583 -17.699   2.325  1.00  0.00     0.036 A 
HETATM    8  C   UNL     1      43.618 -17.595   3.722  1.00  0.00     0.031 A 
ENDROOT
BRANCH   7   9
HETATM    9  N   UNL     1      43.257 -16.533   1.602  1.00  0.00    -0.309 N 
HETATM   10  C   UNL     1      42.144 -16.308   0.825  1.00  0.00     0.321 C 
HETATM   11  N   UNL     1      42.198 -15.061   0.230  1.00  0.00    -0.338 N 
HETATM   12  O   UNL     1      41.217 -17.080   0.612  1.00  0.00    -0.247 OA
HETATM   13  H   UNL     1      42.761 -14.366   0.704  1.00  0.00     0.164 HD
HETATM   14  H   UNL     1      43.977 -15.828   1.563  1.00  0.00     0.170 HD
BRANCH  11  15
HETATM   15  C   UNL     1      41.190 -14.586  -0.712  1.00  0.00     0.089 C 
HETATM   16  C   UNL     1      40.981 -15.576  -1.876  1.00  0.00     0.058 C 
HETATM   17  C   UNL     1      39.911 -15.059  -2.814  1.00  0.00     0.190 C 
HETATM   18  N   UNL     1      38.649 -14.836  -2.025  1.00  0.00    -0.067 N 
HETATM   19  C   UNL     1      39.423 -16.006  -3.891  1.00  0.00     0.035 C 
HETATM   20  H   UNL     1      38.438 -15.714  -1.521  1.00  0.00     0.280 HD
HETATM   21  C   UNL     1      38.793 -13.764  -0.997  1.00  0.00     0.237 C 
HETATM   22  C   UNL     1      37.558 -14.666  -3.050  1.00  0.00     0.235 C 
HETATM   23  C   UNL     1      39.874 -14.194  -0.011  1.00  0.00     0.053 C 
HETATM   24  C   UNL     1      38.075 -15.407  -4.284  1.00  0.00     0.030 C 
ENDBRANCH  11  15
ENDBRANCH   7   9
TORSDOF 2
ENDMDL
MODEL 2
REMARK VINA RESULT:      -8.2      1.253      8.625
REMARK  2 active torsions:
REMARK  status: ('A' for Active; 'I' for Inactive)
REMARK    1  A    between atoms: C_7  and  N_8 
REMARK       I    between atoms: N_8  and  C_9 
REMARK       I    between atoms: C_9  and  N_10 
REMARK    2  A    between atoms: N_10  and  C_11 
ROOT
HETATM    1  C   UNL     1      39.247 -13.652  -1.103  1.00  0.00     0.025 A 
HETATM    2  C   UNL     1      39.053 -13.953  -2.452  1.00  0.00     0.044 A 
HETATM    3  C   UNL     1      38.022 -13.292  -3.200  1.00  0.00     0.099 C 
HETATM    4  N   UNL     1      37.187 -12.758  -3.802  1.00  0.00    -0.191 NA
HETATM    5  C   UNL     1      39.869 -14.906  -3.067  1.00  0.00     0.025 A 
HETATM    6  C   UNL     1      40.869 -15.561  -2.336  1.00  0.00     0.031 A 
HETATM    7  C   UNL     1      41.060 -15.273  -0.982  1.00  0.00     0.036 A 
HETATM    8  C   UNL     1      40.246 -14.308  -0.375  1.00  0.00     0.031 A 
ENDROOT
BRANCH   7   9
HETATM    9  N   UNL     1      42.025 -15.904  -0.169  1.00  0.00    -0.309 N 
HETATM   10  C   UNL     1      41.848 -16.982   0.666  1.00  0.00     0.321 C 
HETATM   11  N   UNL     1      43.017 -17.284   1.341  1.00  0.00    -0.338 N 
HETATM   12  O   UNL     1      40.813 -17.607   0.863  1.00  0.00    -0.247 OA
HETATM   13  H   UNL     1      43.876 -16.996   0.893  1.00  0.00     0.164 HD
HETATM   14  H   UNL     1      42.919 -15.439  -0.112  1.00  0.00     0.170 HD
BRANCH  11  15
HETATM   15  C   UNL     1      43.100 -18.332   2.353  1.00  0.00     0.089 C 
HETATM   16  C   UNL     1      43.594 -19.667   1.759  1.00  0.00     0.058 C 
HETATM   17  C   UNL     1      43.689 -20.717   2.845  1.00  0.00     0.190 C 
HETATM   18  N   UNL     1      44.600 -20.205   3.927  1.00  0.00    -0.067 N 
HETATM   19  C   UNL     1      44.364 -22.024   2.482  1.00  0.00     0.035 C 
HETATM   20  H   UNL     1      45.488 -19.922   3.479  1.00  0.00     0.280 HD
HETATM   21  C   UNL     1      44.054 -19.001   4.621  1.00  0.00     0.237 C 
HETATM   22  C   UNL     1      44.924 -21.404   4.781  1.00  0.00     0.235 C 
HETATM   23  C   UNL     1      43.905 -17.888   3.589  1.00  0.00     0.053 C 
HETATM   24  C   UNL     1      44.742 -22.599   3.845  1.00  0.00     0.030 C 
ENDBRANCH  11  15
ENDBRANCH   7   9
TORSDOF 2
ENDMDL
MODEL 3
REMARK VINA RESULT:      -8.2      0.966      2.161
REMARK  2 active torsions:
REMARK  status: ('A' for Active; 'I' for Inactive)
REMARK    1  A    between atoms: C_7  and  N_8 
REMARK       I    between atoms: N_8  and  C_9 
REMARK       I    between atoms: C_9  and  N_10 
REMARK    2  A    between atoms: N_10  and  C_11 
ROOT
HETATM    1  C   UNL     1      44.228 -20.562   2.478  1.00  0.00     0.025 A 
HETATM    2  C   UNL     1      44.424 -20.300   3.835  1.00  0.00     0.044 A 
HETATM    3  C   UNL     1      44.787 -21.359   4.731  1.00  0.00     0.099 C 
HETATM    4  N   UNL     1      45.079 -22.218   5.454  1.00  0.00    -0.191 NA
HETATM    5  C   UNL     1      44.260 -18.997   4.313  1.00  0.00     0.025 A 
HETATM    6  C   UNL     1      43.894 -17.963   3.442  1.00  0.00     0.031 A 
HETATM    7  C   UNL     1      43.685 -18.220   2.085  1.00  0.00     0.036 A 
HETATM    8  C   UNL     1      43.863 -19.527   1.610  1.00  0.00     0.031 A 
ENDROOT
BRANCH   7   9
HETATM    9  N   UNL     1      43.292 -17.243   1.147  1.00  0.00    -0.309 N 
HETATM   10  C   UNL     1      42.024 -16.988   0.679  1.00  0.00     0.321 C 
HETATM   11  N   UNL     1      42.040 -15.985  -0.274  1.00  0.00    -0.338 N 
HETATM   12  O   UNL     1      40.987 -17.560   0.991  1.00  0.00    -0.247 OA
HETATM   13  H   UNL     1      42.813 -15.335  -0.223  1.00  0.00     0.164 HD
HETATM   14  H   UNL     1      44.044 -16.753   0.687  1.00  0.00     0.170 HD
BRANCH  11  15
HETATM   15  C   UNL     1      40.846 -15.562  -1.000  1.00  0.00     0.089 C 
HETATM   16  C   UNL     1      40.273 -14.243  -0.444  1.00  0.00     0.058 C 
HETATM   17  C   UNL     1      39.054 -13.829  -1.240  1.00  0.00     0.190 C 
HETATM   18  N   UNL     1      39.445 -13.712  -2.688  1.00  0.00    -0.067 N 
HETATM   19  C   UNL     1      38.494 -12.447  -0.972  1.00  0.00     0.035 C 
HETATM   20  H   UNL     1      40.266 -13.086  -2.740  1.00  0.00     0.280 HD
HETATM   21  C   UNL     1      39.851 -15.020  -3.284  1.00  0.00     0.237 C 
HETATM   22  C   UNL     1      38.310 -12.975  -3.353  1.00  0.00     0.235 C 
HETATM   23  C   UNL     1      41.072 -15.526  -2.524  1.00  0.00     0.053 C 
HETATM   24  C   UNL     1      37.668 -12.167  -2.225  1.00  0.00     0.030 C 
ENDBRANCH  11  15
ENDBRANCH   7   9
TORSDOF 2
ENDMDL
MODEL 4
REMARK VINA RESULT:      -7.4      1.116      1.660
REMARK  2 active torsions:
REMARK  status: ('A' for Active; 'I' for Inactive)
REMARK    1  A    between atoms: C_7  and  N_8 
REMARK       I    between atoms: N_8  and  C_9 
REMARK       I    between atoms: C_9  and  N_10 
REMARK    2  A    between atoms: N_10  and  C_11 
ROOT
HETATM    1  C   UNL     1      44.004 -18.771   4.009  1.00  0.00     0.025 A 
HETATM    2  C   UNL     1      43.409 -18.706   5.270  1.00  0.00     0.044 A 
HETATM    3  C   UNL     1      43.620 -19.755   6.224  1.00  0.00     0.099 C 
HETATM    4  N   UNL     1      43.790 -20.607   6.993  1.00  0.00    -0.191 NA
HETATM    5  C   UNL     1      42.605 -17.610   5.593  1.00  0.00     0.025 A 
HETATM    6  C   UNL     1      42.387 -16.589   4.659  1.00  0.00     0.031 A 
HETATM    7  C   UNL     1      42.970 -16.654   3.391  1.00  0.00     0.036 A 
HETATM    8  C   UNL     1      43.785 -17.750   3.077  1.00  0.00     0.031 A 
ENDROOT
BRANCH   7   9
HETATM    9  N   UNL     1      42.783 -15.683   2.385  1.00  0.00    -0.309 N 
HETATM   10  C   UNL     1      41.740 -15.584   1.494  1.00  0.00     0.321 C 
HETATM   11  N   UNL     1      41.932 -14.527   0.622  1.00  0.00    -0.338 N 
HETATM   12  O   UNL     1      40.767 -16.321   1.404  1.00  0.00    -0.247 OA
HETATM   13  H   UNL     1      42.522 -13.776   0.956  1.00  0.00     0.164 HD
HETATM   14  H   UNL     1      43.560 -15.058   2.233  1.00  0.00     0.170 HD
BRANCH  11  15
HETATM   15  C   UNL     1      41.022 -14.234  -0.481  1.00  0.00     0.089 C 
HETATM   16  C   UNL     1      40.999 -15.371  -1.524  1.00  0.00     0.058 C 
HETATM   17  C   UNL     1      40.026 -15.038  -2.634  1.00  0.00     0.190 C 
HETATM   18  N   UNL     1      38.670 -14.796  -2.028  1.00  0.00    -0.067 N 
HETATM   19  C   UNL     1      39.714 -16.137  -3.629  1.00  0.00     0.035 C 
HETATM   20  H   UNL     1      38.440 -15.616  -1.442  1.00  0.00     0.280 HD
HETATM   21  C   UNL     1      38.642 -13.598  -1.137  1.00  0.00     0.237 C 
HETATM   22  C   UNL     1      37.703 -14.820  -3.183  1.00  0.00     0.235 C 
HETATM   23  C   UNL     1      39.616 -13.839   0.011  1.00  0.00     0.053 C 
HETATM   24  C   UNL     1      38.396 -15.674  -4.244  1.00  0.00     0.030 C 
ENDBRANCH  11  15
ENDBRANCH   7   9
TORSDOF 2
ENDMDL
MODEL 5
REMARK VINA RESULT:      -7.4      1.994      8.820
REMARK  2 active torsions:
REMARK  status: ('A' for Active; 'I' for Inactive)
REMARK    1  A    between atoms: C_7  and  N_8 
REMARK       I    between atoms: N_8  and  C_9 
REMARK       I    between atoms: C_9  and  N_10 
REMARK    2  A    between atoms: N_10  and  C_11 
ROOT
HETATM    1  C   UNL     1      40.887 -12.628  -3.366  1.00  0.00     0.025 A 
HETATM    2  C   UNL     1      39.503 -12.528  -3.208  1.00  0.00     0.044 A 
HETATM    3  C   UNL     1      38.768 -11.506  -3.894  1.00  0.00     0.099 C 
HETATM    4  N   UNL     1      38.176 -10.678  -4.449  1.00  0.00    -0.191 NA
HETATM    5  C   UNL     1      38.842 -13.432  -2.372  1.00  0.00     0.025 A 
HETATM    6  C   UNL     1      39.559 -14.424  -1.690  1.00  0.00     0.031 A 
HETATM    7  C   UNL     1      40.945 -14.522  -1.835  1.00  0.00     0.036 A 
HETATM    8  C   UNL     1      41.601 -13.620  -2.684  1.00  0.00     0.031 A 
ENDROOT
BRANCH   7   9
HETATM    9  N   UNL     1      41.744 -15.473  -1.168  1.00  0.00    -0.309 N 
HETATM   10  C   UNL     1      41.570 -15.978   0.100  1.00  0.00     0.321 C 
HETATM   11  N   UNL     1      42.588 -16.856   0.427  1.00  0.00    -0.338 N 
HETATM   12  O   UNL     1      40.683 -15.699   0.896  1.00  0.00    -0.247 OA
HETATM   13  H   UNL     1      43.055 -17.306  -0.349  1.00  0.00     0.164 HD
HETATM   14  H   UNL     1      42.602 -15.727  -1.635  1.00  0.00     0.170 HD
BRANCH  11  15
HETATM   15  C   UNL     1      42.703 -17.481   1.741  1.00  0.00     0.089 C 
HETATM   16  C   UNL     1      43.507 -18.797   1.682  1.00  0.00     0.058 C 
HETATM   17  C   UNL     1      43.623 -19.397   3.067  1.00  0.00     0.190 C 
HETATM   18  N   UNL     1      44.261 -18.383   3.977  1.00  0.00    -0.067 N 
HETATM   19  C   UNL     1      44.563 -20.574   3.230  1.00  0.00     0.035 C 
HETATM   20  H   UNL     1      45.141 -18.074   3.531  1.00  0.00     0.280 HD
HETATM   21  C   UNL     1      43.416 -17.168   4.169  1.00  0.00     0.237 C 
HETATM   22  C   UNL     1      44.661 -19.147   5.213  1.00  0.00     0.235 C 
HETATM   23  C   UNL     1      43.228 -16.503   2.810  1.00  0.00     0.053 C 
HETATM   24  C   UNL     1      44.832 -20.588   4.733  1.00  0.00     0.030 C 
ENDBRANCH  11  15
ENDBRANCH   7   9
TORSDOF 2
ENDMDL
MODEL 6
REMARK VINA RESULT:      -7.4      4.596      6.314
REMARK  2 active torsions:
REMARK  status: ('A' for Active; 'I' for Inactive)
REMARK    1  A    between atoms: C_7  and  N_8 
REMARK       I    between atoms: N_8  and  C_9 
REMARK       I    between atoms: C_9  and  N_10 
REMARK    2  A    between atoms: N_10  and  C_11 
ROOT
HETATM    1  C   UNL     1      43.594 -19.476   1.893  1.00  0.00     0.025 A 
HETATM    2  C   UNL     1      44.127 -20.242   2.931  1.00  0.00     0.044 A 
HETATM    3  C   UNL     1      44.392 -21.638   2.739  1.00  0.00     0.099 C 
HETATM    4  N   UNL     1      44.604 -22.768   2.581  1.00  0.00    -0.191 NA
HETATM    5  C   UNL     1      44.397 -19.637   4.161  1.00  0.00     0.025 A 
HETATM    6  C   UNL     1      44.128 -18.275   4.357  1.00  0.00     0.031 A 
HETATM    7  C   UNL     1      43.583 -17.507   3.325  1.00  0.00     0.036 A 
HETATM    8  C   UNL     1      43.326 -18.117   2.090  1.00  0.00     0.031 A 
ENDROOT
BRANCH   7   9
HETATM    9  N   UNL     1      43.260 -16.139   3.445  1.00  0.00    -0.309 N 
HETATM   10  C   UNL     1      42.208 -15.580   4.133  1.00  0.00     0.321 C 
HETATM   11  N   UNL     1      42.189 -14.205   3.978  1.00  0.00    -0.338 N 
HETATM   12  O   UNL     1      41.348 -16.164   4.779  1.00  0.00    -0.247 OA
HETATM   13  H   UNL     1      43.076 -13.769   3.761  1.00  0.00     0.164 HD
HETATM   14  H   UNL     1      43.799 -15.511   2.869  1.00  0.00     0.170 HD
BRANCH  11  15
HETATM   15  C   UNL     1      41.137 -13.359   4.532  1.00  0.00     0.089 C 
HETATM   16  C   UNL     1      41.573 -12.689   5.851  1.00  0.00     0.058 C 
HETATM   17  C   UNL     1      40.464 -11.803   6.376  1.00  0.00     0.190 C 
HETATM   18  N   UNL     1      40.113 -10.795   5.316  1.00  0.00    -0.067 N 
HETATM   19  C   UNL     1      40.799 -10.899   7.545  1.00  0.00     0.035 C 
HETATM   20  H   UNL     1      40.988 -10.322   5.033  1.00  0.00     0.280 HD
HETATM   21  C   UNL     1      39.538 -11.423   4.089  1.00  0.00     0.237 C 
HETATM   22  C   UNL     1      39.277  -9.752   6.013  1.00  0.00     0.235 C 
HETATM   23  C   UNL     1      40.589 -12.356   3.498  1.00  0.00     0.053 C 
HETATM   24  C   UNL     1      39.704  -9.838   7.478  1.00  0.00     0.030 C 
ENDBRANCH  11  15
ENDBRANCH   7   9
TORSDOF 2
ENDMDL
MODEL 7
REMARK VINA RESULT:      -7.3      1.779      2.931
REMARK  2 active torsions:
REMARK  status: ('A' for Active; 'I' for Inactive)
REMARK    1  A    between atoms: C_7  and  N_8 
REMARK       I    between atoms: N_8  and  C_9 
REMARK       I    between atoms: C_9  and  N_10 
REMARK    2  A    between atoms: N_10  and  C_11 
ROOT
HETATM    1  C   UNL     1      43.684 -18.657   4.471  1.00  0.00     0.025 A 
HETATM    2  C   UNL     1      44.179 -19.757   3.768  1.00  0.00     0.044 A 
HETATM    3  C   UNL     1      44.768 -20.860   4.469  1.00  0.00     0.099 C 
HETATM    4  N   UNL     1      45.246 -21.750   5.039  1.00  0.00    -0.191 NA
HETATM    5  C   UNL     1      44.098 -19.771   2.373  1.00  0.00     0.025 A 
HETATM    6  C   UNL     1      43.533 -18.690   1.683  1.00  0.00     0.031 A 
HETATM    7  C   UNL     1      43.047 -17.582   2.381  1.00  0.00     0.036 A 
HETATM    8  C   UNL     1      43.120 -17.579   3.781  1.00  0.00     0.031 A 
ENDROOT
BRANCH   7   9
HETATM    9  N   UNL     1      42.487 -16.443   1.765  1.00  0.00    -0.309 N 
HETATM   10  C   UNL     1      41.155 -16.154   1.584  1.00  0.00     0.321 C 
HETATM   11  N   UNL     1      40.995 -14.967   0.891  1.00  0.00    -0.338 N 
HETATM   12  O   UNL     1      40.193 -16.831   1.927  1.00  0.00    -0.247 OA
HETATM   13  H   UNL     1      41.758 -14.307   0.957  1.00  0.00     0.164 HD
HETATM   14  H   UNL     1      43.143 -15.828   1.308  1.00  0.00     0.170 HD
BRANCH  11  15
HETATM   15  C   UNL     1      39.689 -14.455   0.487  1.00  0.00     0.089 C 
HETATM   16  C   UNL     1      39.219 -13.302   1.397  1.00  0.00     0.058 C 
HETATM   17  C   UNL     1      37.875 -12.784   0.929  1.00  0.00     0.190 C 
HETATM   18  N   UNL     1      38.001 -12.357  -0.508  1.00  0.00    -0.067 N 
HETATM   19  C   UNL     1      37.366 -11.511   1.572  1.00  0.00     0.035 C 
HETATM   20  H   UNL     1      38.797 -11.701  -0.570  1.00  0.00     0.280 HD
HETATM   21  C   UNL     1      38.300 -13.498  -1.425  1.00  0.00     0.237 C 
HETATM   22  C   UNL     1      36.764 -11.547  -0.797  1.00  0.00     0.235 C 
HETATM   23  C   UNL     1      39.639 -14.098  -1.011  1.00  0.00     0.053 C 
HETATM   24  C   UNL     1      36.329 -11.015   0.568  1.00  0.00     0.030 C 
ENDBRANCH  11  15
ENDBRANCH   7   9
TORSDOF 2
ENDMDL
MODEL 8
REMARK VINA RESULT:      -7.2      2.657      3.076
REMARK  2 active torsions:
REMARK  status: ('A' for Active; 'I' for Inactive)
REMARK    1  A    between atoms: C_7  and  N_8 
REMARK       I    between atoms: N_8  and  C_9 
REMARK       I    between atoms: C_9  and  N_10 
REMARK    2  A    between atoms: N_10  and  C_11 
ROOT
HETATM    1  C   UNL     1      44.105 -18.505   3.150  1.00  0.00     0.025 A 
HETATM    2  C   UNL     1      43.189 -18.435   4.202  1.00  0.00     0.044 A 
HETATM    3  C   UNL     1      43.445 -19.126   5.432  1.00  0.00     0.099 C 
HETATM    4  N   UNL     1      43.654 -19.688   6.425  1.00  0.00    -0.191 NA
HETATM    5  C   UNL     1      42.019 -17.687   4.044  1.00  0.00     0.025 A 
HETATM    6  C   UNL     1      41.760 -17.020   2.839  1.00  0.00     0.031 A 
HETATM    7  C   UNL     1      42.666 -17.097   1.779  1.00  0.00     0.036 A 
HETATM    8  C   UNL     1      43.844 -17.838   1.948  1.00  0.00     0.031 A 
ENDROOT
BRANCH   7   9
HETATM    9  N   UNL     1      42.472 -16.477   0.527  1.00  0.00    -0.309 N 
HETATM   10  C   UNL     1      41.967 -15.222   0.278  1.00  0.00     0.321 C 
HETATM   11  N   UNL     1      41.878 -14.984  -1.082  1.00  0.00    -0.338 N 
HETATM   12  O   UNL     1      41.589 -14.396   1.100  1.00  0.00    -0.247 OA
HETATM   13  H   UNL     1      42.508 -15.515  -1.669  1.00  0.00     0.164 HD
HETATM   14  H   UNL     1      42.617 -17.067  -0.279  1.00  0.00     0.170 HD
BRANCH  11  15
HETATM   15  C   UNL     1      41.302 -13.764  -1.637  1.00  0.00     0.089 C 
HETATM   16  C   UNL     1      42.290 -13.035  -2.570  1.00  0.00     0.058 C 
HETATM   17  C   UNL     1      41.645 -11.791  -3.143  1.00  0.00     0.190 C 
HETATM   18  N   UNL     1      40.382 -12.192  -3.856  1.00  0.00    -0.067 N 
HETATM   19  C   UNL     1      42.393 -11.073  -4.247  1.00  0.00     0.035 C 
HETATM   20  H   UNL     1      40.626 -12.937  -4.529  1.00  0.00     0.280 HD
HETATM   21  C   UNL     1      39.352 -12.754  -2.933  1.00  0.00     0.237 C 
HETATM   22  C   UNL     1      39.988 -10.993  -4.680  1.00  0.00     0.235 C 
HETATM   23  C   UNL     1      39.928 -14.011  -2.290  1.00  0.00     0.053 C 
HETATM   24  C   UNL     1      41.299 -10.243  -4.914  1.00  0.00     0.030 C 
ENDBRANCH  11  15
ENDBRANCH   7   9
TORSDOF 2
ENDMDL
MODEL 9
REMARK VINA RESULT:      -7.2      2.791      3.901
REMARK  2 active torsions:
REMARK  status: ('A' for Active; 'I' for Inactive)
REMARK    1  A    between atoms: C_7  and  N_8 
REMARK       I    between atoms: N_8  and  C_9 
REMARK       I    between atoms: C_9  and  N_10 
REMARK    2  A    between atoms: N_10  and  C_11 
ROOT
HETATM    1  C   UNL     1      44.239 -20.164   2.989  1.00  0.00     0.025 A 
HETATM    2  C   UNL     1      44.553 -20.369   4.333  1.00  0.00     0.044 A 
HETATM    3  C   UNL     1      45.096 -21.624   4.766  1.00  0.00     0.099 C 
HETATM    4  N   UNL     1      45.533 -22.640   5.114  1.00  0.00    -0.191 NA
HETATM    5  C   UNL     1      44.330 -19.342   5.254  1.00  0.00     0.025 A 
HETATM    6  C   UNL     1      43.788 -18.120   4.837  1.00  0.00     0.031 A 
HETATM    7  C   UNL     1      43.461 -17.912   3.495  1.00  0.00     0.036 A 
HETATM    8  C   UNL     1      43.698 -18.942   2.574  1.00  0.00     0.031 A 
ENDROOT
BRANCH   7   9
HETATM    9  N   UNL     1      42.890 -16.723   2.995  1.00  0.00    -0.309 N 
HETATM   10  C   UNL     1      41.608 -16.262   3.181  1.00  0.00     0.321 C 
HETATM   11  N   UNL     1      41.401 -15.080   2.492  1.00  0.00    -0.338 N 
HETATM   12  O   UNL     1      40.711 -16.796   3.821  1.00  0.00    -0.247 OA
HETATM   13  H   UNL     1      42.226 -14.527   2.301  1.00  0.00     0.164 HD
HETATM   14  H   UNL     1      43.457 -16.211   2.336  1.00  0.00     0.170 HD
BRANCH  11  15
HETATM   15  C   UNL     1      40.107 -14.406   2.444  1.00  0.00     0.089 C 
HETATM   16  C   UNL     1      40.238 -12.893   2.714  1.00  0.00     0.058 C 
HETATM   17  C   UNL     1      38.879 -12.231   2.629  1.00  0.00     0.190 C 
HETATM   18  N   UNL     1      38.289 -12.518   1.275  1.00  0.00    -0.067 N 
HETATM   19  C   UNL     1      38.849 -10.716   2.651  1.00  0.00     0.035 C 
HETATM   20  H   UNL     1      38.986 -12.236   0.565  1.00  0.00     0.280 HD
HETATM   21  C   UNL     1      38.009 -13.969   1.064  1.00  0.00     0.237 C 
HETATM   22  C   UNL     1      37.131 -11.564   1.130  1.00  0.00     0.235 C 
HETATM   23  C   UNL     1      39.331 -14.723   1.152  1.00  0.00     0.053 C 
HETATM   24  C   UNL     1      37.482 -10.396   2.052  1.00  0.00     0.030 C 
ENDBRANCH  11  15
ENDBRANCH   7   9
TORSDOF 2
ENDMDL
MODEL 10
REMARK VINA RESULT:      -7.2      2.608      3.222
REMARK  2 active torsions:
REMARK  status: ('A' for Active; 'I' for Inactive)
REMARK    1  A    between atoms: C_7  and  N_8 
REMARK       I    between atoms: N_8  and  C_9 
REMARK       I    between atoms: C_9  and  N_10 
REMARK    2  A    between atoms: N_10  and  C_11 
ROOT
HETATM    1  C   UNL     1      43.127 -18.600   5.483  1.00  0.00     0.025 A 
HETATM    2  C   UNL     1      42.983 -18.061   6.762  1.00  0.00     0.044 A 
HETATM    3  C   UNL     1      43.819 -18.512   7.836  1.00  0.00     0.099 C 
HETATM    4  N   UNL     1      44.496 -18.880   8.704  1.00  0.00    -0.191 NA
HETATM    5  C   UNL     1      42.014 -17.080   6.988  1.00  0.00     0.025 A 
HETATM    6  C   UNL     1      41.187 -16.645   5.943  1.00  0.00     0.031 A 
HETATM    7  C   UNL     1      41.318 -17.190   4.664  1.00  0.00     0.036 A 
HETATM    8  C   UNL     1      42.300 -18.165   4.441  1.00  0.00     0.031 A 
ENDROOT
BRANCH   7   9
HETATM    9  N   UNL     1      40.512 -16.828   3.564  1.00  0.00    -0.309 N 
HETATM   10  C   UNL     1      40.579 -15.676   2.814  1.00  0.00     0.321 C 
HETATM   11  N   UNL     1      39.589 -15.655   1.849  1.00  0.00    -0.338 N 
HETATM   12  O   UNL     1      41.357 -14.741   2.956  1.00  0.00    -0.247 OA
HETATM   13  H   UNL     1      39.237 -16.555   1.553  1.00  0.00     0.164 HD
HETATM   14  H   UNL     1      39.727 -17.434   3.380  1.00  0.00     0.170 HD
BRANCH  11  15
HETATM   15  C   UNL     1      39.371 -14.517   0.961  1.00  0.00     0.089 C 
HETATM   16  C   UNL     1      40.149 -14.665  -0.363  1.00  0.00     0.058 C 
HETATM   17  C   UNL     1      39.875 -13.479  -1.262  1.00  0.00     0.190 C 
HETATM   18  N   UNL     1      38.391 -13.377  -1.484  1.00  0.00    -0.067 N 
HETATM   19  C   UNL     1      40.383 -13.564  -2.687  1.00  0.00     0.035 C 
HETATM   20  H   UNL     1      38.062 -14.298  -1.820  1.00  0.00     0.280 HD
HETATM   21  C   UNL     1      37.639 -13.074  -0.230  1.00  0.00     0.237 C 
HETATM   22  C   UNL     1      38.220 -12.423  -2.637  1.00  0.00     0.235 C 
HETATM   23  C   UNL     1      37.874 -14.218   0.751  1.00  0.00     0.053 C 
HETATM   24  C   UNL     1      39.535 -12.521  -3.411  1.00  0.00     0.030 C 
ENDBRANCH  11  15
ENDBRANCH   7   9
TORSDOF 2
ENDMDL
