MODEL 1
REMARK VINA RESULT:      -9.2      0.000      0.000
REMARK  10 active torsions:
REMARK  status: ('A' for Active; 'I' for Inactive)
REMARK    1  A    between atoms: S_2  and  C_3 
REMARK    2  A    between atoms: C_5  and  N_6 
REMARK    3  A    between atoms: N_6  and  C_7 
REMARK    4  A    between atoms: C_11  and  C_12 
REMARK       I    between atoms: C_12  and  N_13 
REMARK    5  A    between atoms: N_13  and  C_14 
REMARK    6  A    between atoms: C_14  and  C_15 
REMARK    7  A    between atoms: C_15  and  C_16 
REMARK    8  A    between atoms: C_16  and  N_17 
REMARK    9  A    between atoms: C_21  and  C_22 
REMARK   10  A    between atoms: C_22  and  C_23 
ROOT
HETATM    1  C   UNL     1      42.766 -13.299   3.965  1.00  0.00     0.252 C 
HETATM    2  N   UNL     1      41.948 -12.188   3.947  1.00  0.00    -0.357 N 
HETATM    3  O   UNL     1      43.192 -13.811   2.936  1.00  0.00    -0.268 OA
HETATM    4  H   UNL     1      41.494 -11.984   4.831  1.00  0.00     0.162 HD
ENDROOT
BRANCH   1   5
HETATM    5  C   UNL     1      42.978 -14.015   5.262  1.00  0.00     0.048 A 
HETATM    6  C   UNL     1      42.539 -15.316   5.590  1.00  0.00     0.009 A 
HETATM    7  C   UNL     1      43.119 -15.881   6.747  1.00  0.00     0.070 A 
HETATM    8  C   UNL     1      41.568 -16.078   4.884  1.00  0.00     0.015 A 
HETATM    9  N   UNL     1      43.993 -15.229   7.532  1.00  0.00    -0.231 NA
HETATM   10  C   UNL     1      42.789 -17.179   7.103  1.00  0.00     0.032 A 
HETATM   11  C   UNL     1      44.347 -13.966   7.253  1.00  0.00     0.129 A 
HETATM   12  C   UNL     1      43.815 -13.326   6.150  1.00  0.00     0.068 A 
HETATM   13  C   UNL     1      41.877 -17.940   6.370  1.00  0.00     0.002 A 
HETATM   14  C   UNL     1      41.252 -17.381   5.266  1.00  0.00     0.001 A 
BRANCH  11  15
HETATM   15  N   UNL     1      45.208 -13.210   8.086  1.00  0.00    -0.341 N 
HETATM   16  H   UNL     1      45.846 -13.840   8.570  1.00  0.00     0.167 HD
BRANCH  15  17
HETATM   17  C   UNL     1      44.882 -12.186   9.009  1.00  0.00     0.034 A 
HETATM   18  C   UNL     1      43.672 -11.487   9.003  1.00  0.00     0.048 A 
HETATM   19  C   UNL     1      43.379 -10.548  10.000  1.00  0.00     0.002 A 
HETATM   20  C   UNL     1      44.297 -10.321  11.029  1.00  0.00     0.018 A 
HETATM   21  C   UNL     1      45.505 -11.013  11.052  1.00  0.00     0.004 A 
HETATM   22  C   UNL     1      45.791 -11.942  10.052  1.00  0.00     0.029 A 
BRANCH  19  23
HETATM   23  S   UNL     1      41.807  -9.704   9.969  1.00  0.00    -0.134 SA
HETATM   24  C   UNL     1      40.913 -10.707  11.184  1.00  0.00     0.095 C 
ENDBRANCH  19  23
ENDBRANCH  15  17
ENDBRANCH  11  15
ENDBRANCH   1   5
BRANCH   2  25
HETATM   25  C   UNL     1      41.151 -11.765   2.805  1.00  0.00     0.124 C 
BRANCH  25  26
HETATM   26  C   UNL     1      40.035 -12.649   2.222  1.00  0.00     0.047 C 
BRANCH  26  27
HETATM   27  C   UNL     1      40.068 -13.239   0.805  1.00  0.00     0.236 C 
BRANCH  27  28
HETATM   28  N   UNL     1      40.093 -14.763   0.635  1.00  0.00    -0.071 N 
HETATM   29  H   UNL     1      39.236 -15.013   0.126  1.00  0.00     0.279 HD
HETATM   30  C   UNL     1      41.256 -15.123  -0.286  1.00  0.00     0.235 C 
HETATM   31  C   UNL     1      41.401 -16.631  -0.467  1.00  0.00     0.032 C 
HETATM   32  C   UNL     1      41.473 -17.395   0.865  1.00  0.00    -0.007 C 
HETATM   33  C   UNL     1      40.200 -17.057   1.639  1.00  0.00     0.032 C 
HETATM   34  C   UNL     1      40.070 -15.566   1.901  1.00  0.00     0.235 C 
BRANCH  32  35
HETATM   35  C   UNL     1      42.790 -17.080   1.619  1.00  0.00     0.043 C 
BRANCH  35  36
HETATM   36  C   UNL     1      43.458 -18.250   2.298  1.00  0.00    -0.058 A 
HETATM   37  C   UNL     1      44.062 -18.096   3.551  1.00  0.00     0.007 A 
HETATM   38  C   UNL     1      44.626 -19.197   4.203  1.00  0.00     0.001 A 
HETATM   39  C   UNL     1      44.597 -20.458   3.611  1.00  0.00     0.000 A 
HETATM   40  C   UNL     1      44.012 -20.621   2.360  1.00  0.00     0.001 A 
HETATM   41  C   UNL     1      43.453 -19.523   1.707  1.00  0.00     0.007 A 
ENDBRANCH  35  36
ENDBRANCH  32  35
ENDBRANCH  27  28
ENDBRANCH  26  27
ENDBRANCH  25  26
ENDBRANCH   2  25
TORSDOF 10
ENDMDL
MODEL 2
REMARK VINA RESULT:      -8.8      2.831      5.516
REMARK  10 active torsions:
REMARK  status: ('A' for Active; 'I' for Inactive)
REMARK    1  A    between atoms: S_2  and  C_3 
REMARK    2  A    between atoms: C_5  and  N_6 
REMARK    3  A    between atoms: N_6  and  C_7 
REMARK    4  A    between atoms: C_11  and  C_12 
REMARK       I    between atoms: C_12  and  N_13 
REMARK    5  A    between atoms: N_13  and  C_14 
REMARK    6  A    between atoms: C_14  and  C_15 
REMARK    7  A    between atoms: C_15  and  C_16 
REMARK    8  A    between atoms: C_16  and  N_17 
REMARK    9  A    between atoms: C_21  and  C_22 
REMARK   10  A    between atoms: C_22  and  C_23 
ROOT
HETATM    1  C   UNL     1      39.325 -10.759   8.266  1.00  0.00     0.252 C 
HETATM    2  N   UNL     1      39.520 -12.019   7.738  1.00  0.00    -0.357 N 
HETATM    3  O   UNL     1      38.772  -9.867   7.633  1.00  0.00    -0.268 OA
HETATM    4  H   UNL     1      40.164 -12.601   8.262  1.00  0.00     0.162 HD
ENDROOT
BRANCH   1   5
HETATM    5  C   UNL     1      39.979 -10.415   9.567  1.00  0.00     0.048 A 
HETATM    6  C   UNL     1      39.441  -9.614  10.597  1.00  0.00     0.009 A 
HETATM    7  C   UNL     1      40.112  -9.688  11.838  1.00  0.00     0.070 A 
HETATM    8  C   UNL     1      38.322  -8.745  10.488  1.00  0.00     0.015 A 
HETATM    9  N   UNL     1      41.221 -10.420  12.040  1.00  0.00    -0.231 NA
HETATM   10  C   UNL     1      39.610  -8.981  12.919  1.00  0.00     0.032 A 
HETATM   11  C   UNL     1      41.767 -11.118  11.034  1.00  0.00     0.129 A 
HETATM   12  C   UNL     1      41.188 -11.091   9.778  1.00  0.00     0.068 A 
HETATM   13  C   UNL     1      38.476  -8.174  12.816  1.00  0.00     0.002 A 
HETATM   14  C   UNL     1      37.839  -8.043  11.592  1.00  0.00     0.001 A 
BRANCH  11  15
HETATM   15  N   UNL     1      42.973 -11.847  11.174  1.00  0.00    -0.341 N 
HETATM   16  H   UNL     1      43.365 -11.672  12.097  1.00  0.00     0.167 HD
BRANCH  15  17
HETATM   17  C   UNL     1      44.072 -11.933  10.283  1.00  0.00     0.034 A 
HETATM   18  C   UNL     1      44.102 -12.763   9.160  1.00  0.00     0.048 A 
HETATM   19  C   UNL     1      45.185 -12.732   8.272  1.00  0.00     0.002 A 
HETATM   20  C   UNL     1      46.239 -11.844   8.496  1.00  0.00     0.018 A 
HETATM   21  C   UNL     1      46.222 -11.006   9.609  1.00  0.00     0.004 A 
HETATM   22  C   UNL     1      45.143 -11.048  10.490  1.00  0.00     0.029 A 
BRANCH  19  23
HETATM   23  S   UNL     1      45.164 -13.788   6.833  1.00  0.00    -0.134 SA
HETATM   24  C   UNL     1      44.178 -15.159   7.492  1.00  0.00     0.095 C 
ENDBRANCH  19  23
ENDBRANCH  15  17
ENDBRANCH  11  15
ENDBRANCH   1   5
BRANCH   2  25
HETATM   25  C   UNL     1      39.526 -12.330   6.315  1.00  0.00     0.124 C 
BRANCH  25  26
HETATM   26  C   UNL     1      40.096 -13.653   5.777  1.00  0.00     0.047 C 
BRANCH  26  27
HETATM   27  C   UNL     1      41.506 -13.796   5.188  1.00  0.00     0.236 C 
BRANCH  27  28
HETATM   28  N   UNL     1      41.702 -14.644   3.925  1.00  0.00    -0.071 N 
HETATM   29  H   UNL     1      41.413 -14.055   3.133  1.00  0.00     0.279 HD
HETATM   30  C   UNL     1      43.196 -14.898   3.745  1.00  0.00     0.235 C 
HETATM   31  C   UNL     1      43.487 -15.790   2.542  1.00  0.00     0.032 C 
HETATM   32  C   UNL     1      42.684 -17.101   2.554  1.00  0.00    -0.007 C 
HETATM   33  C   UNL     1      41.206 -16.715   2.604  1.00  0.00     0.032 C 
HETATM   34  C   UNL     1      40.873 -15.891   3.836  1.00  0.00     0.235 C 
BRANCH  32  35
HETATM   35  C   UNL     1      43.148 -18.030   3.704  1.00  0.00     0.043 C 
BRANCH  35  36
HETATM   36  C   UNL     1      43.639 -19.396   3.292  1.00  0.00    -0.058 A 
HETATM   37  C   UNL     1      44.477 -20.135   4.135  1.00  0.00     0.007 A 
HETATM   38  C   UNL     1      44.880 -21.425   3.776  1.00  0.00     0.001 A 
HETATM   39  C   UNL     1      44.455 -21.987   2.573  1.00  0.00     0.000 A 
HETATM   40  C   UNL     1      43.634 -21.257   1.721  1.00  0.00     0.001 A 
HETATM   41  C   UNL     1      43.235 -19.969   2.076  1.00  0.00     0.007 A 
ENDBRANCH  35  36
ENDBRANCH  32  35
ENDBRANCH  27  28
ENDBRANCH  26  27
ENDBRANCH  25  26
ENDBRANCH   2  25
TORSDOF 10
ENDMDL
MODEL 3
REMARK VINA RESULT:      -8.5      1.424      2.028
REMARK  10 active torsions:
REMARK  status: ('A' for Active; 'I' for Inactive)
REMARK    1  A    between atoms: S_2  and  C_3 
REMARK    2  A    between atoms: C_5  and  N_6 
REMARK    3  A    between atoms: N_6  and  C_7 
REMARK    4  A    between atoms: C_11  and  C_12 
REMARK       I    between atoms: C_12  and  N_13 
REMARK    5  A    between atoms: N_13  and  C_14 
REMARK    6  A    between atoms: C_14  and  C_15 
REMARK    7  A    between atoms: C_15  and  C_16 
REMARK    8  A    between atoms: C_16  and  N_17 
REMARK    9  A    between atoms: C_21  and  C_22 
REMARK   10  A    between atoms: C_22  and  C_23 
ROOT
HETATM    1  C   UNL     1      41.204 -14.063   4.860  1.00  0.00     0.252 C 
HETATM    2  N   UNL     1      41.504 -12.968   4.077  1.00  0.00    -0.357 N 
HETATM    3  O   UNL     1      40.050 -14.439   5.039  1.00  0.00    -0.268 OA
HETATM    4  H   UNL     1      42.456 -12.631   4.170  1.00  0.00     0.162 HD
ENDROOT
BRANCH   1   5
HETATM    5  C   UNL     1      42.295 -14.689   5.671  1.00  0.00     0.048 A 
HETATM    6  C   UNL     1      42.631 -16.059   5.721  1.00  0.00     0.009 A 
HETATM    7  C   UNL     1      43.877 -16.358   6.314  1.00  0.00     0.070 A 
HETATM    8  C   UNL     1      41.830 -17.137   5.259  1.00  0.00     0.015 A 
HETATM    9  N   UNL     1      44.687 -15.429   6.849  1.00  0.00    -0.231 NA
HETATM   10  C   UNL     1      44.310 -17.674   6.346  1.00  0.00     0.032 A 
HETATM   11  C   UNL     1      44.324 -14.138   6.863  1.00  0.00     0.129 A 
HETATM   12  C   UNL     1      43.112 -13.754   6.322  1.00  0.00     0.068 A 
HETATM   13  C   UNL     1      43.541 -18.721   5.837  1.00  0.00     0.002 A 
HETATM   14  C   UNL     1      42.288 -18.453   5.305  1.00  0.00     0.001 A 
BRANCH  11  15
HETATM   15  N   UNL     1      45.106 -13.129   7.478  1.00  0.00    -0.341 N 
HETATM   16  H   UNL     1      46.033 -13.500   7.681  1.00  0.00     0.167 HD
BRANCH  15  17
HETATM   17  C   UNL     1      44.771 -12.277   8.559  1.00  0.00     0.034 A 
HETATM   18  C   UNL     1      43.552 -11.605   8.673  1.00  0.00     0.048 A 
HETATM   19  C   UNL     1      43.252 -10.848   9.813  1.00  0.00     0.002 A 
HETATM   20  C   UNL     1      44.172 -10.781  10.862  1.00  0.00     0.018 A 
HETATM   21  C   UNL     1      45.390 -11.451  10.766  1.00  0.00     0.004 A 
HETATM   22  C   UNL     1      45.682 -12.196   9.625  1.00  0.00     0.029 A 
BRANCH  19  23
HETATM   23  S   UNL     1      41.669 -10.033   9.928  1.00  0.00    -0.134 SA
HETATM   24  C   UNL     1      40.958 -10.968  11.307  1.00  0.00     0.095 C 
ENDBRANCH  19  23
ENDBRANCH  15  17
ENDBRANCH  11  15
ENDBRANCH   1   5
BRANCH   2  25
HETATM   25  C   UNL     1      40.569 -11.902   3.748  1.00  0.00     0.124 C 
BRANCH  25  26
HETATM   26  C   UNL     1      40.925 -10.790   2.747  1.00  0.00     0.047 C 
BRANCH  26  27
HETATM   27  C   UNL     1      40.293 -10.662   1.355  1.00  0.00     0.236 C 
BRANCH  27  28
HETATM   28  N   UNL     1      40.221 -11.901   0.454  1.00  0.00    -0.071 N 
HETATM   29  H   UNL     1      40.109 -11.555  -0.508  1.00  0.00     0.279 HD
HETATM   30  C   UNL     1      41.575 -12.604   0.498  1.00  0.00     0.235 C 
HETATM   31  C   UNL     1      41.583 -13.890  -0.324  1.00  0.00     0.032 C 
HETATM   32  C   UNL     1      40.434 -14.845   0.038  1.00  0.00    -0.007 C 
HETATM   33  C   UNL     1      39.133 -14.071  -0.168  1.00  0.00     0.032 C 
HETATM   34  C   UNL     1      39.066 -12.825   0.699  1.00  0.00     0.235 C 
BRANCH  32  35
HETATM   35  C   UNL     1      40.620 -15.427   1.462  1.00  0.00     0.043 C 
BRANCH  35  36
HETATM   36  C   UNL     1      41.763 -16.397   1.635  1.00  0.00    -0.058 A 
HETATM   37  C   UNL     1      43.036 -15.940   1.992  1.00  0.00     0.007 A 
HETATM   38  C   UNL     1      44.077 -16.848   2.211  1.00  0.00     0.001 A 
HETATM   39  C   UNL     1      43.858 -18.218   2.071  1.00  0.00     0.000 A 
HETATM   40  C   UNL     1      42.601 -18.683   1.702  1.00  0.00     0.001 A 
HETATM   41  C   UNL     1      41.564 -17.778   1.480  1.00  0.00     0.007 A 
ENDBRANCH  35  36
ENDBRANCH  32  35
ENDBRANCH  27  28
ENDBRANCH  26  27
ENDBRANCH  25  26
ENDBRANCH   2  25
TORSDOF 10
ENDMDL
MODEL 4
REMARK VINA RESULT:      -8.4      3.656      7.445
REMARK  10 active torsions:
REMARK  status: ('A' for Active; 'I' for Inactive)
REMARK    1  A    between atoms: S_2  and  C_3 
REMARK    2  A    between atoms: C_5  and  N_6 
REMARK    3  A    between atoms: N_6  and  C_7 
REMARK    4  A    between atoms: C_11  and  C_12 
REMARK       I    between atoms: C_12  and  N_13 
REMARK    5  A    between atoms: N_13  and  C_14 
REMARK    6  A    between atoms: C_14  and  C_15 
REMARK    7  A    between atoms: C_15  and  C_16 
REMARK    8  A    between atoms: C_16  and  N_17 
REMARK    9  A    between atoms: C_21  and  C_22 
REMARK   10  A    between atoms: C_22  and  C_23 
ROOT
HETATM    1  C   UNL     1      40.777 -11.999   2.646  1.00  0.00     0.252 C 
HETATM    2  N   UNL     1      41.611 -11.535   3.641  1.00  0.00    -0.357 N 
HETATM    3  O   UNL     1      39.560 -11.860   2.699  1.00  0.00    -0.268 OA
HETATM    4  H   UNL     1      42.561 -11.886   3.594  1.00  0.00     0.162 HD
ENDROOT
BRANCH   1   5
HETATM    5  C   UNL     1      41.352 -12.869   1.572  1.00  0.00     0.048 A 
HETATM    6  C   UNL     1      41.193 -14.265   1.441  1.00  0.00     0.009 A 
HETATM    7  C   UNL     1      41.570 -14.806   0.192  1.00  0.00     0.070 A 
HETATM    8  C   UNL     1      40.719 -15.154   2.443  1.00  0.00     0.015 A 
HETATM    9  N   UNL     1      42.096 -14.074  -0.804  1.00  0.00    -0.231 NA
HETATM   10  C   UNL     1      41.386 -16.160  -0.040  1.00  0.00     0.032 A 
HETATM   11  C   UNL     1      42.312 -12.761  -0.643  1.00  0.00     0.129 A 
HETATM   12  C   UNL     1      41.991 -12.149   0.554  1.00  0.00     0.068 A 
HETATM   13  C   UNL     1      40.866 -17.015   0.932  1.00  0.00     0.002 A 
HETATM   14  C   UNL     1      40.546 -16.514   2.184  1.00  0.00     0.001 A 
BRANCH  11  15
HETATM   15  N   UNL     1      42.930 -11.958  -1.634  1.00  0.00    -0.341 N 
HETATM   16  H   UNL     1      43.921 -12.188  -1.680  1.00  0.00     0.167 HD
BRANCH  15  17
HETATM   17  C   UNL     1      42.834 -10.559  -1.835  1.00  0.00     0.034 A 
HETATM   18  C   UNL     1      41.703  -9.922  -2.352  1.00  0.00     0.048 A 
HETATM   19  C   UNL     1      41.642  -8.526  -2.442  1.00  0.00     0.002 A 
HETATM   20  C   UNL     1      42.716  -7.755  -1.988  1.00  0.00     0.018 A 
HETATM   21  C   UNL     1      43.849  -8.375  -1.465  1.00  0.00     0.004 A 
HETATM   22  C   UNL     1      43.902  -9.766  -1.386  1.00  0.00     0.029 A 
BRANCH  19  23
HETATM   23  S   UNL     1      40.164  -7.756  -3.079  1.00  0.00    -0.134 SA
HETATM   24  C   UNL     1      39.662  -9.026  -4.269  1.00  0.00     0.095 C 
ENDBRANCH  19  23
ENDBRANCH  15  17
ENDBRANCH  11  15
ENDBRANCH   1   5
BRANCH   2  25
HETATM   25  C   UNL     1      41.194 -11.249   5.007  1.00  0.00     0.124 C 
BRANCH  25  26
HETATM   26  C   UNL     1      41.117 -12.351   6.078  1.00  0.00     0.047 C 
BRANCH  26  27
HETATM   27  C   UNL     1      40.748 -13.809   5.774  1.00  0.00     0.236 C 
BRANCH  27  28
HETATM   28  N   UNL     1      41.687 -14.927   6.245  1.00  0.00    -0.071 N 
HETATM   29  H   UNL     1      41.693 -14.889   7.272  1.00  0.00     0.279 HD
HETATM   30  C   UNL     1      41.061 -16.268   5.873  1.00  0.00     0.235 C 
HETATM   31  C   UNL     1      41.956 -17.446   6.248  1.00  0.00     0.032 C 
HETATM   32  C   UNL     1      43.387 -17.315   5.700  1.00  0.00    -0.007 C 
HETATM   33  C   UNL     1      43.951 -16.003   6.244  1.00  0.00     0.032 C 
HETATM   34  C   UNL     1      43.120 -14.804   5.819  1.00  0.00     0.235 C 
BRANCH  32  35
HETATM   35  C   UNL     1      43.406 -17.434   4.155  1.00  0.00     0.043 C 
BRANCH  35  36
HETATM   36  C   UNL     1      43.713 -18.805   3.602  1.00  0.00    -0.058 A 
HETATM   37  C   UNL     1      43.278 -19.170   2.324  1.00  0.00     0.007 A 
HETATM   38  C   UNL     1      43.617 -20.418   1.793  1.00  0.00     0.001 A 
HETATM   39  C   UNL     1      44.387 -21.313   2.532  1.00  0.00     0.000 A 
HETATM   40  C   UNL     1      44.814 -20.967   3.810  1.00  0.00     0.001 A 
HETATM   41  C   UNL     1      44.473 -19.724   4.342  1.00  0.00     0.007 A 
ENDBRANCH  35  36
ENDBRANCH  32  35
ENDBRANCH  27  28
ENDBRANCH  26  27
ENDBRANCH  25  26
ENDBRANCH   2  25
TORSDOF 10
ENDMDL
MODEL 5
REMARK VINA RESULT:      -8.4      2.535      5.207
REMARK  10 active torsions:
REMARK  status: ('A' for Active; 'I' for Inactive)
REMARK    1  A    between atoms: S_2  and  C_3 
REMARK    2  A    between atoms: C_5  and  N_6 
REMARK    3  A    between atoms: N_6  and  C_7 
REMARK    4  A    between atoms: C_11  and  C_12 
REMARK       I    between atoms: C_12  and  N_13 
REMARK    5  A    between atoms: N_13  and  C_14 
REMARK    6  A    between atoms: C_14  and  C_15 
REMARK    7  A    between atoms: C_15  and  C_16 
REMARK    8  A    between atoms: C_16  and  N_17 
REMARK    9  A    between atoms: C_21  and  C_22 
REMARK   10  A    between atoms: C_22  and  C_23 
ROOT
HETATM    1  C   UNL     1      41.255 -12.161   1.166  1.00  0.00     0.252 C 
HETATM    2  N   UNL     1      40.393 -12.447   0.128  1.00  0.00    -0.357 N 
HETATM    3  O   UNL     1      42.473 -12.233   1.040  1.00  0.00    -0.268 OA
HETATM    4  H   UNL     1      39.423 -12.557   0.403  1.00  0.00     0.162 HD
ENDROOT
BRANCH   1   5
HETATM    5  C   UNL     1      40.688 -11.952   2.536  1.00  0.00     0.048 A 
HETATM    6  C   UNL     1      40.053 -10.787   3.017  1.00  0.00     0.009 A 
HETATM    7  C   UNL     1      39.339 -10.940   4.226  1.00  0.00     0.070 A 
HETATM    8  C   UNL     1      40.090  -9.500   2.416  1.00  0.00     0.015 A 
HETATM    9  N   UNL     1      39.292 -12.089   4.920  1.00  0.00    -0.231 NA
HETATM   10  C   UNL     1      38.634  -9.860   4.734  1.00  0.00     0.032 A 
HETATM   11  C   UNL     1      39.960 -13.170   4.492  1.00  0.00     0.129 A 
HETATM   12  C   UNL     1      40.702 -13.108   3.327  1.00  0.00     0.068 A 
HETATM   13  C   UNL     1      38.631  -8.614   4.106  1.00  0.00     0.002 A 
HETATM   14  C   UNL     1      39.375  -8.429   2.950  1.00  0.00     0.001 A 
BRANCH  11  15
HETATM   15  N   UNL     1      40.003 -14.384   5.222  1.00  0.00    -0.341 N 
HETATM   16  H   UNL     1      39.332 -14.338   5.987  1.00  0.00     0.167 HD
BRANCH  15  17
HETATM   17  C   UNL     1      41.128 -15.086   5.718  1.00  0.00     0.034 A 
HETATM   18  C   UNL     1      42.378 -14.500   5.938  1.00  0.00     0.048 A 
HETATM   19  C   UNL     1      43.423 -15.232   6.515  1.00  0.00     0.002 A 
HETATM   20  C   UNL     1      43.211 -16.559   6.898  1.00  0.00     0.018 A 
HETATM   21  C   UNL     1      41.969 -17.156   6.690  1.00  0.00     0.004 A 
HETATM   22  C   UNL     1      40.937 -16.421   6.110  1.00  0.00     0.029 A 
BRANCH  19  23
HETATM   23  S   UNL     1      44.991 -14.432   6.806  1.00  0.00    -0.134 SA
HETATM   24  C   UNL     1      44.463 -13.183   8.008  1.00  0.00     0.095 C 
ENDBRANCH  19  23
ENDBRANCH  15  17
ENDBRANCH  11  15
ENDBRANCH   1   5
BRANCH   2  25
HETATM   25  C   UNL     1      40.734 -13.255  -1.035  1.00  0.00     0.124 C 
BRANCH  25  26
HETATM   26  C   UNL     1      40.336 -14.737  -1.137  1.00  0.00     0.047 C 
BRANCH  26  27
HETATM   27  C   UNL     1      41.241 -15.894  -0.694  1.00  0.00     0.236 C 
BRANCH  27  28
HETATM   28  N   UNL     1      41.543 -16.074   0.799  1.00  0.00    -0.071 N 
HETATM   29  H   UNL     1      40.858 -15.497   1.305  1.00  0.00     0.279 HD
HETATM   30  C   UNL     1      41.244 -17.522   1.178  1.00  0.00     0.235 C 
HETATM   31  C   UNL     1      41.573 -17.814   2.639  1.00  0.00     0.032 C 
HETATM   32  C   UNL     1      43.004 -17.409   3.028  1.00  0.00    -0.007 C 
HETATM   33  C   UNL     1      43.140 -15.917   2.724  1.00  0.00     0.032 C 
HETATM   34  C   UNL     1      42.893 -15.609   1.257  1.00  0.00     0.235 C 
BRANCH  32  35
HETATM   35  C   UNL     1      44.050 -18.309   2.323  1.00  0.00     0.043 C 
BRANCH  35  36
HETATM   36  C   UNL     1      44.286 -19.662   2.949  1.00  0.00    -0.058 A 
HETATM   37  C   UNL     1      44.614 -19.771   4.305  1.00  0.00     0.007 A 
HETATM   38  C   UNL     1      44.771 -21.029   4.895  1.00  0.00     0.001 A 
HETATM   39  C   UNL     1      44.608 -22.187   4.137  1.00  0.00     0.000 A 
HETATM   40  C   UNL     1      44.297 -22.092   2.786  1.00  0.00     0.001 A 
HETATM   41  C   UNL     1      44.143 -20.838   2.196  1.00  0.00     0.007 A 
ENDBRANCH  35  36
ENDBRANCH  32  35
ENDBRANCH  27  28
ENDBRANCH  26  27
ENDBRANCH  25  26
ENDBRANCH   2  25
TORSDOF 10
ENDMDL
MODEL 6
REMARK VINA RESULT:      -8.4      2.653      5.146
REMARK  10 active torsions:
REMARK  status: ('A' for Active; 'I' for Inactive)
REMARK    1  A    between atoms: S_2  and  C_3 
REMARK    2  A    between atoms: C_5  and  N_6 
REMARK    3  A    between atoms: N_6  and  C_7 
REMARK    4  A    between atoms: C_11  and  C_12 
REMARK       I    between atoms: C_12  and  N_13 
REMARK    5  A    between atoms: N_13  and  C_14 
REMARK    6  A    between atoms: C_14  and  C_15 
REMARK    7  A    between atoms: C_15  and  C_16 
REMARK    8  A    between atoms: C_16  and  N_17 
REMARK    9  A    between atoms: C_21  and  C_22 
REMARK   10  A    between atoms: C_22  and  C_23 
ROOT
HETATM    1  C   UNL     1      38.690 -12.283   2.111  1.00  0.00     0.252 C 
HETATM    2  N   UNL     1      38.681 -13.484   1.431  1.00  0.00    -0.357 N 
HETATM    3  O   UNL     1      38.467 -11.216   1.550  1.00  0.00    -0.268 OA
HETATM    4  H   UNL     1      39.080 -14.262   1.945  1.00  0.00     0.162 HD
ENDROOT
BRANCH   1   5
HETATM    5  C   UNL     1      39.177 -12.261   3.526  1.00  0.00     0.048 A 
HETATM    6  C   UNL     1      39.177 -11.153   4.401  1.00  0.00     0.009 A 
HETATM    7  C   UNL     1      39.399 -11.455   5.763  1.00  0.00     0.070 A 
HETATM    8  C   UNL     1      39.001  -9.792   4.034  1.00  0.00     0.015 A 
HETATM    9  N   UNL     1      39.647 -12.695   6.218  1.00  0.00    -0.231 NA
HETATM   10  C   UNL     1      39.352 -10.432   6.697  1.00  0.00     0.032 A 
HETATM   11  C   UNL     1      39.718 -13.729   5.368  1.00  0.00     0.129 A 
HETATM   12  C   UNL     1      39.533 -13.525   4.013  1.00  0.00     0.068 A 
HETATM   13  C   UNL     1      39.121  -9.105   6.332  1.00  0.00     0.002 A 
HETATM   14  C   UNL     1      38.961  -8.781   4.994  1.00  0.00     0.001 A 
BRANCH  11  15
HETATM   15  N   UNL     1      40.048 -15.042   5.784  1.00  0.00    -0.341 N 
HETATM   16  H   UNL     1      39.424 -15.321   6.540  1.00  0.00     0.167 HD
BRANCH  15  17
HETATM   17  C   UNL     1      41.319 -15.586   6.095  1.00  0.00     0.034 A 
HETATM   18  C   UNL     1      42.490 -14.830   6.185  1.00  0.00     0.048 A 
HETATM   19  C   UNL     1      43.697 -15.418   6.583  1.00  0.00     0.002 A 
HETATM   20  C   UNL     1      43.729 -16.774   6.918  1.00  0.00     0.018 A 
HETATM   21  C   UNL     1      42.569 -17.541   6.839  1.00  0.00     0.004 A 
HETATM   22  C   UNL     1      41.374 -16.948   6.435  1.00  0.00     0.029 A 
BRANCH  19  23
HETATM   23  S   UNL     1      45.160 -14.405   6.714  1.00  0.00    -0.134 SA
HETATM   24  C   UNL     1      44.552 -13.165   7.888  1.00  0.00     0.095 C 
ENDBRANCH  19  23
ENDBRANCH  15  17
ENDBRANCH  11  15
ENDBRANCH   1   5
BRANCH   2  25
HETATM   25  C   UNL     1      38.856 -13.623  -0.008  1.00  0.00     0.124 C 
BRANCH  25  26
HETATM   26  C   UNL     1      40.209 -14.015  -0.626  1.00  0.00     0.047 C 
BRANCH  26  27
HETATM   27  C   UNL     1      40.924 -15.343  -0.340  1.00  0.00     0.236 C 
BRANCH  27  28
HETATM   28  N   UNL     1      41.385 -15.646   1.091  1.00  0.00    -0.071 N 
HETATM   29  H   UNL     1      40.868 -15.004   1.705  1.00  0.00     0.279 HD
HETATM   30  C   UNL     1      40.921 -17.053   1.456  1.00  0.00     0.235 C 
HETATM   31  C   UNL     1      41.389 -17.470   2.848  1.00  0.00     0.032 C 
HETATM   32  C   UNL     1      42.903 -17.300   3.052  1.00  0.00    -0.007 C 
HETATM   33  C   UNL     1      43.224 -15.830   2.784  1.00  0.00     0.032 C 
HETATM   34  C   UNL     1      42.838 -15.408   1.376  1.00  0.00     0.235 C 
BRANCH  32  35
HETATM   35  C   UNL     1      43.700 -18.303   2.180  1.00  0.00     0.043 C 
BRANCH  35  36
HETATM   36  C   UNL     1      44.014 -19.632   2.823  1.00  0.00    -0.058 A 
HETATM   37  C   UNL     1      43.981 -20.812   2.071  1.00  0.00     0.007 A 
HETATM   38  C   UNL     1      44.333 -22.032   2.656  1.00  0.00     0.001 A 
HETATM   39  C   UNL     1      44.714 -22.088   3.995  1.00  0.00     0.000 A 
HETATM   40  C   UNL     1      44.737 -20.924   4.757  1.00  0.00     0.001 A 
HETATM   41  C   UNL     1      44.383 -19.708   4.175  1.00  0.00     0.007 A 
ENDBRANCH  35  36
ENDBRANCH  32  35
ENDBRANCH  27  28
ENDBRANCH  26  27
ENDBRANCH  25  26
ENDBRANCH   2  25
TORSDOF 10
ENDMDL
MODEL 7
REMARK VINA RESULT:      -8.2      3.134      5.286
REMARK  10 active torsions:
REMARK  status: ('A' for Active; 'I' for Inactive)
REMARK    1  A    between atoms: S_2  and  C_3 
REMARK    2  A    between atoms: C_5  and  N_6 
REMARK    3  A    between atoms: N_6  and  C_7 
REMARK    4  A    between atoms: C_11  and  C_12 
REMARK       I    between atoms: C_12  and  N_13 
REMARK    5  A    between atoms: N_13  and  C_14 
REMARK    6  A    between atoms: C_14  and  C_15 
REMARK    7  A    between atoms: C_15  and  C_16 
REMARK    8  A    between atoms: C_16  and  N_17 
REMARK    9  A    between atoms: C_21  and  C_22 
REMARK   10  A    between atoms: C_22  and  C_23 
ROOT
HETATM    1  C   UNL     1      40.290 -11.102   2.185  1.00  0.00     0.252 C 
HETATM    2  N   UNL     1      39.339 -12.010   1.769  1.00  0.00    -0.357 N 
HETATM    3  O   UNL     1      41.008 -10.502   1.393  1.00  0.00    -0.268 OA
HETATM    4  H   UNL     1      38.957 -12.590   2.509  1.00  0.00     0.162 HD
ENDROOT
BRANCH   1   5
HETATM    5  C   UNL     1      40.589 -10.991   3.648  1.00  0.00     0.048 A 
HETATM    6  C   UNL     1      39.929 -10.168   4.585  1.00  0.00     0.009 A 
HETATM    7  C   UNL     1      40.185 -10.464   5.942  1.00  0.00     0.070 A 
HETATM    8  C   UNL     1      39.068  -9.078   4.286  1.00  0.00     0.015 A 
HETATM    9  N   UNL     1      41.035 -11.424   6.344  1.00  0.00    -0.231 NA
HETATM   10  C   UNL     1      39.527  -9.743   6.926  1.00  0.00     0.032 A 
HETATM   11  C   UNL     1      41.713 -12.152   5.445  1.00  0.00     0.129 A 
HETATM   12  C   UNL     1      41.540 -11.919   4.093  1.00  0.00     0.068 A 
HETATM   13  C   UNL     1      38.639  -8.711   6.621  1.00  0.00     0.002 A 
HETATM   14  C   UNL     1      38.420  -8.367   5.296  1.00  0.00     0.001 A 
BRANCH  11  15
HETATM   15  N   UNL     1      42.674 -13.126   5.815  1.00  0.00    -0.341 N 
HETATM   16  H   UNL     1      43.521 -12.985   5.267  1.00  0.00     0.167 HD
BRANCH  15  17
HETATM   17  C   UNL     1      42.515 -14.526   5.954  1.00  0.00     0.034 A 
HETATM   18  C   UNL     1      43.572 -15.412   6.179  1.00  0.00     0.048 A 
HETATM   19  C   UNL     1      43.333 -16.775   6.396  1.00  0.00     0.002 A 
HETATM   20  C   UNL     1      42.021 -17.255   6.411  1.00  0.00     0.018 A 
HETATM   21  C   UNL     1      40.956 -16.384   6.194  1.00  0.00     0.004 A 
HETATM   22  C   UNL     1      41.204 -15.030   5.973  1.00  0.00     0.029 A 
BRANCH  19  23
HETATM   23  S   UNL     1      44.712 -17.863   6.710  1.00  0.00    -0.134 SA
HETATM   24  C   UNL     1      43.907 -19.041   7.827  1.00  0.00     0.095 C 
ENDBRANCH  19  23
ENDBRANCH  15  17
ENDBRANCH  11  15
ENDBRANCH   1   5
BRANCH   2  25
HETATM   25  C   UNL     1      39.349 -12.691   0.482  1.00  0.00     0.124 C 
BRANCH  25  26
HETATM   26  C   UNL     1      39.386 -14.225   0.377  1.00  0.00     0.047 C 
BRANCH  26  27
HETATM   27  C   UNL     1      40.002 -15.138   1.446  1.00  0.00     0.236 C 
BRANCH  27  28
HETATM   28  N   UNL     1      41.457 -15.597   1.283  1.00  0.00    -0.071 N 
HETATM   29  H   UNL     1      41.901 -14.931   0.638  1.00  0.00     0.279 HD
HETATM   30  C   UNL     1      42.165 -15.429   2.624  1.00  0.00     0.235 C 
HETATM   31  C   UNL     1      43.609 -15.921   2.578  1.00  0.00     0.032 C 
HETATM   32  C   UNL     1      43.741 -17.355   2.041  1.00  0.00    -0.007 C 
HETATM   33  C   UNL     1      43.114 -17.366   0.647  1.00  0.00     0.032 C 
HETATM   34  C   UNL     1      41.652 -16.954   0.676  1.00  0.00     0.235 C 
BRANCH  32  35
HETATM   35  C   UNL     1      43.132 -18.380   3.030  1.00  0.00     0.043 C 
BRANCH  35  36
HETATM   36  C   UNL     1      43.714 -19.772   2.980  1.00  0.00    -0.058 A 
HETATM   37  C   UNL     1      44.427 -20.285   4.069  1.00  0.00     0.007 A 
HETATM   38  C   UNL     1      44.912 -21.596   4.041  1.00  0.00     0.001 A 
HETATM   39  C   UNL     1      44.694 -22.405   2.927  1.00  0.00     0.000 A 
HETATM   40  C   UNL     1      44.000 -21.902   1.833  1.00  0.00     0.001 A 
HETATM   41  C   UNL     1      43.519 -20.593   1.858  1.00  0.00     0.007 A 
ENDBRANCH  35  36
ENDBRANCH  32  35
ENDBRANCH  27  28
ENDBRANCH  26  27
ENDBRANCH  25  26
ENDBRANCH   2  25
TORSDOF 10
ENDMDL
MODEL 8
REMARK VINA RESULT:      -8.2      3.024      9.707
REMARK  10 active torsions:
REMARK  status: ('A' for Active; 'I' for Inactive)
REMARK    1  A    between atoms: S_2  and  C_3 
REMARK    2  A    between atoms: C_5  and  N_6 
REMARK    3  A    between atoms: N_6  and  C_7 
REMARK    4  A    between atoms: C_11  and  C_12 
REMARK       I    between atoms: C_12  and  N_13 
REMARK    5  A    between atoms: N_13  and  C_14 
REMARK    6  A    between atoms: C_14  and  C_15 
REMARK    7  A    between atoms: C_15  and  C_16 
REMARK    8  A    between atoms: C_16  and  N_17 
REMARK    9  A    between atoms: C_21  and  C_22 
REMARK   10  A    between atoms: C_22  and  C_23 
ROOT
HETATM    1  C   UNL     1      41.181 -16.512   4.962  1.00  0.00     0.252 C 
HETATM    2  N   UNL     1      40.315 -15.438   4.965  1.00  0.00    -0.357 N 
HETATM    3  O   UNL     1      41.658 -16.967   5.996  1.00  0.00    -0.268 OA
HETATM    4  H   UNL     1      40.155 -15.023   4.054  1.00  0.00     0.162 HD
ENDROOT
BRANCH   1   5
HETATM    5  C   UNL     1      41.708 -17.008   3.652  1.00  0.00     0.048 A 
HETATM    6  C   UNL     1      42.650 -18.041   3.457  1.00  0.00     0.009 A 
HETATM    7  C   UNL     1      42.755 -18.527   2.135  1.00  0.00     0.070 A 
HETATM    8  C   UNL     1      43.497 -18.603   4.449  1.00  0.00     0.015 A 
HETATM    9  N   UNL     1      42.057 -18.024   1.102  1.00  0.00    -0.231 NA
HETATM   10  C   UNL     1      43.611 -19.584   1.871  1.00  0.00     0.032 A 
HETATM   11  C   UNL     1      41.220 -16.993   1.285  1.00  0.00     0.129 A 
HETATM   12  C   UNL     1      41.067 -16.440   2.543  1.00  0.00     0.068 A 
HETATM   13  C   UNL     1      44.397 -20.168   2.864  1.00  0.00     0.002 A 
HETATM   14  C   UNL     1      44.352 -19.666   4.156  1.00  0.00     0.001 A 
BRANCH  11  15
HETATM   15  N   UNL     1      40.516 -16.379   0.219  1.00  0.00    -0.341 N 
HETATM   16  H   UNL     1      40.113 -17.102  -0.375  1.00  0.00     0.167 HD
BRANCH  15  17
HETATM   17  C   UNL     1      40.936 -15.339  -0.645  1.00  0.00     0.034 A 
HETATM   18  C   UNL     1      41.366 -14.085  -0.203  1.00  0.00     0.048 A 
HETATM   19  C   UNL     1      41.853 -13.132  -1.107  1.00  0.00     0.002 A 
HETATM   20  C   UNL     1      41.933 -13.444  -2.466  1.00  0.00     0.018 A 
HETATM   21  C   UNL     1      41.513 -14.692  -2.922  1.00  0.00     0.004 A 
HETATM   22  C   UNL     1      41.025 -15.632  -2.015  1.00  0.00     0.029 A 
BRANCH  19  23
HETATM   23  S   UNL     1      42.421 -11.556  -0.492  1.00  0.00    -0.134 SA
HETATM   24  C   UNL     1      41.612 -11.566   1.129  1.00  0.00     0.095 C 
ENDBRANCH  19  23
ENDBRANCH  15  17
ENDBRANCH  11  15
ENDBRANCH   1   5
BRANCH   2  25
HETATM   25  C   UNL     1      40.203 -14.466   6.044  1.00  0.00     0.124 C 
BRANCH  25  26
HETATM   26  C   UNL     1      39.987 -12.969   5.767  1.00  0.00     0.047 C 
BRANCH  26  27
HETATM   27  C   UNL     1      41.010 -11.881   6.121  1.00  0.00     0.236 C 
BRANCH  27  28
HETATM   28  N   UNL     1      40.630 -10.812   7.154  1.00  0.00    -0.071 N 
HETATM   29  H   UNL     1      40.163 -10.058   6.634  1.00  0.00     0.279 HD
HETATM   30  C   UNL     1      39.579 -11.401   8.089  1.00  0.00     0.235 C 
HETATM   31  C   UNL     1      39.181 -10.427   9.195  1.00  0.00     0.032 C 
HETATM   32  C   UNL     1      40.386  -9.873   9.973  1.00  0.00    -0.007 C 
HETATM   33  C   UNL     1      41.299  -9.197   8.950  1.00  0.00     0.032 C 
HETATM   34  C   UNL     1      41.773 -10.166   7.880  1.00  0.00     0.235 C 
BRANCH  32  35
HETATM   35  C   UNL     1      41.067 -10.982  10.813  1.00  0.00     0.043 C 
BRANCH  35  36
HETATM   36  C   UNL     1      41.699 -10.534  12.108  1.00  0.00    -0.058 A 
HETATM   37  C   UNL     1      42.947  -9.900  12.109  1.00  0.00     0.007 A 
HETATM   38  C   UNL     1      43.501  -9.433  13.305  1.00  0.00     0.001 A 
HETATM   39  C   UNL     1      42.818  -9.597  14.509  1.00  0.00     0.000 A 
HETATM   40  C   UNL     1      41.585 -10.238  14.523  1.00  0.00     0.001 A 
HETATM   41  C   UNL     1      41.034 -10.708  13.332  1.00  0.00     0.007 A 
ENDBRANCH  35  36
ENDBRANCH  32  35
ENDBRANCH  27  28
ENDBRANCH  26  27
ENDBRANCH  25  26
ENDBRANCH   2  25
TORSDOF 10
ENDMDL
MODEL 9
REMARK VINA RESULT:      -7.9      3.498      9.979
REMARK  10 active torsions:
REMARK  status: ('A' for Active; 'I' for Inactive)
REMARK    1  A    between atoms: S_2  and  C_3 
REMARK    2  A    between atoms: C_5  and  N_6 
REMARK    3  A    between atoms: N_6  and  C_7 
REMARK    4  A    between atoms: C_11  and  C_12 
REMARK       I    between atoms: C_12  and  N_13 
REMARK    5  A    between atoms: N_13  and  C_14 
REMARK    6  A    between atoms: C_14  and  C_15 
REMARK    7  A    between atoms: C_15  and  C_16 
REMARK    8  A    between atoms: C_16  and  N_17 
REMARK    9  A    between atoms: C_21  and  C_22 
REMARK   10  A    between atoms: C_22  and  C_23 
ROOT
HETATM    1  C   UNL     1      39.456 -12.278   5.837  1.00  0.00     0.252 C 
HETATM    2  N   UNL     1      40.016 -11.068   5.485  1.00  0.00    -0.357 N 
HETATM    3  O   UNL     1      38.806 -12.420   6.868  1.00  0.00    -0.268 OA
HETATM    4  H   UNL     1      40.695 -11.120   4.733  1.00  0.00     0.162 HD
ENDROOT
BRANCH   1   5
HETATM    5  C   UNL     1      39.816 -13.496   5.045  1.00  0.00     0.048 A 
HETATM    6  C   UNL     1      39.804 -13.623   3.639  1.00  0.00     0.009 A 
HETATM    7  C   UNL     1      40.470 -14.757   3.125  1.00  0.00     0.070 A 
HETATM    8  C   UNL     1      39.174 -12.739   2.721  1.00  0.00     0.015 A 
HETATM    9  N   UNL     1      41.041 -15.696   3.898  1.00  0.00    -0.231 NA
HETATM   10  C   UNL     1      40.560 -14.922   1.752  1.00  0.00     0.032 A 
HETATM   11  C   UNL     1      40.981 -15.605   5.235  1.00  0.00     0.129 A 
HETATM   12  C   UNL     1      40.333 -14.537   5.827  1.00  0.00     0.068 A 
HETATM   13  C   UNL     1      39.986 -14.018   0.857  1.00  0.00     0.002 A 
HETATM   14  C   UNL     1      39.277 -12.931   1.344  1.00  0.00     0.001 A 
BRANCH  11  15
HETATM   15  N   UNL     1      41.502 -16.603   6.095  1.00  0.00    -0.341 N 
HETATM   16  H   UNL     1      41.497 -16.255   7.053  1.00  0.00     0.167 HD
BRANCH  15  17
HETATM   17  C   UNL     1      42.683 -17.373   5.955  1.00  0.00     0.034 A 
HETATM   18  C   UNL     1      42.860 -18.358   4.980  1.00  0.00     0.048 A 
HETATM   19  C   UNL     1      44.086 -19.020   4.842  1.00  0.00     0.002 A 
HETATM   20  C   UNL     1      45.156 -18.678   5.673  1.00  0.00     0.018 A 
HETATM   21  C   UNL     1      44.997 -17.694   6.646  1.00  0.00     0.004 A 
HETATM   22  C   UNL     1      43.771 -17.044   6.780  1.00  0.00     0.029 A 
BRANCH  19  23
HETATM   23  S   UNL     1      44.275 -20.248   3.561  1.00  0.00    -0.134 SA
HETATM   24  C   UNL     1      43.297 -19.461   2.254  1.00  0.00     0.095 C 
ENDBRANCH  19  23
ENDBRANCH  15  17
ENDBRANCH  11  15
ENDBRANCH   1   5
BRANCH   2  25
HETATM   25  C   UNL     1      40.300  -9.984   6.414  1.00  0.00     0.124 C 
BRANCH  25  26
HETATM   26  C   UNL     1      40.694 -10.252   7.876  1.00  0.00     0.047 C 
BRANCH  26  27
HETATM   27  C   UNL     1      42.105 -10.666   8.317  1.00  0.00     0.236 C 
BRANCH  27  28
HETATM   28  N   UNL     1      42.285 -11.377   9.664  1.00  0.00    -0.071 N 
HETATM   29  H   UNL     1      42.050 -12.365   9.505  1.00  0.00     0.279 HD
HETATM   30  C   UNL     1      43.766 -11.344  10.029  1.00  0.00     0.235 C 
HETATM   31  C   UNL     1      44.037 -11.977  11.392  1.00  0.00     0.032 C 
HETATM   32  C   UNL     1      43.162 -11.394  12.513  1.00  0.00    -0.007 C 
HETATM   33  C   UNL     1      41.707 -11.601  12.092  1.00  0.00     0.032 C 
HETATM   34  C   UNL     1      41.390 -10.914  10.775  1.00  0.00     0.235 C 
BRANCH  32  35
HETATM   35  C   UNL     1      43.544  -9.922  12.811  1.00  0.00     0.043 C 
BRANCH  35  36
HETATM   36  C   UNL     1      42.745  -9.240  13.895  1.00  0.00    -0.058 A 
HETATM   37  C   UNL     1      42.505  -9.883  15.114  1.00  0.00     0.007 A 
HETATM   38  C   UNL     1      41.817  -9.224  16.137  1.00  0.00     0.001 A 
HETATM   39  C   UNL     1      41.359  -7.921  15.953  1.00  0.00     0.000 A 
HETATM   40  C   UNL     1      41.578  -7.276  14.741  1.00  0.00     0.001 A 
HETATM   41  C   UNL     1      42.260  -7.934  13.718  1.00  0.00     0.007 A 
ENDBRANCH  35  36
ENDBRANCH  32  35
ENDBRANCH  27  28
ENDBRANCH  26  27
ENDBRANCH  25  26
ENDBRANCH   2  25
TORSDOF 10
ENDMDL
MODEL 10
REMARK VINA RESULT:      -7.8      3.029      4.886
REMARK  10 active torsions:
REMARK  status: ('A' for Active; 'I' for Inactive)
REMARK    1  A    between atoms: S_2  and  C_3 
REMARK    2  A    between atoms: C_5  and  N_6 
REMARK    3  A    between atoms: N_6  and  C_7 
REMARK    4  A    between atoms: C_11  and  C_12 
REMARK       I    between atoms: C_12  and  N_13 
REMARK    5  A    between atoms: N_13  and  C_14 
REMARK    6  A    between atoms: C_14  and  C_15 
REMARK    7  A    between atoms: C_15  and  C_16 
REMARK    8  A    between atoms: C_16  and  N_17 
REMARK    9  A    between atoms: C_21  and  C_22 
REMARK   10  A    between atoms: C_22  and  C_23 
ROOT
HETATM    1  C   UNL     1      41.023 -11.749   5.378  1.00  0.00     0.252 C 
HETATM    2  N   UNL     1      41.605 -11.254   4.229  1.00  0.00    -0.357 N 
HETATM    3  O   UNL     1      40.573 -12.888   5.442  1.00  0.00    -0.268 OA
HETATM    4  H   UNL     1      41.748 -10.250   4.227  1.00  0.00     0.162 HD
ENDROOT
BRANCH   1   5
HETATM    5  C   UNL     1      40.756 -10.808   6.511  1.00  0.00     0.048 A 
HETATM    6  C   UNL     1      39.840  -9.734   6.519  1.00  0.00     0.009 A 
HETATM    7  C   UNL     1      39.549  -9.193   7.790  1.00  0.00     0.070 A 
HETATM    8  C   UNL     1      39.220  -9.151   5.381  1.00  0.00     0.015 A 
HETATM    9  N   UNL     1      40.127  -9.615   8.927  1.00  0.00    -0.231 NA
HETATM   10  C   UNL     1      38.611  -8.177   7.892  1.00  0.00     0.032 A 
HETATM   11  C   UNL     1      41.051 -10.586   8.900  1.00  0.00     0.129 A 
HETATM   12  C   UNL     1      41.414 -11.163   7.696  1.00  0.00     0.068 A 
HETATM   13  C   UNL     1      37.965  -7.649   6.774  1.00  0.00     0.002 A 
HETATM   14  C   UNL     1      38.282  -8.127   5.512  1.00  0.00     0.001 A 
BRANCH  11  15
HETATM   15  N   UNL     1      41.744 -11.018  10.058  1.00  0.00    -0.341 N 
HETATM   16  H   UNL     1      41.360 -11.911  10.364  1.00  0.00     0.167 HD
BRANCH  15  17
HETATM   17  C   UNL     1      42.054 -10.292  11.234  1.00  0.00     0.034 A 
HETATM   18  C   UNL     1      41.110  -9.590  11.988  1.00  0.00     0.048 A 
HETATM   19  C   UNL     1      41.470  -8.967  13.190  1.00  0.00     0.002 A 
HETATM   20  C   UNL     1      42.783  -9.066  13.655  1.00  0.00     0.018 A 
HETATM   21  C   UNL     1      43.735  -9.767  12.918  1.00  0.00     0.004 A 
HETATM   22  C   UNL     1      43.369 -10.379  11.720  1.00  0.00     0.029 A 
BRANCH  19  23
HETATM   23  S   UNL     1      40.223  -8.110  14.136  1.00  0.00    -0.134 SA
HETATM   24  C   UNL     1      38.967  -7.905  12.845  1.00  0.00     0.095 C 
ENDBRANCH  19  23
ENDBRANCH  15  17
ENDBRANCH  11  15
ENDBRANCH   1   5
BRANCH   2  25
HETATM   25  C   UNL     1      41.380 -11.785   2.892  1.00  0.00     0.124 C 
BRANCH  25  26
HETATM   26  C   UNL     1      42.048 -13.085   2.413  1.00  0.00     0.047 C 
BRANCH  26  27
HETATM   27  C   UNL     1      41.387 -14.467   2.509  1.00  0.00     0.236 C 
BRANCH  27  28
HETATM   28  N   UNL     1      41.751 -15.385   3.683  1.00  0.00    -0.071 N 
HETATM   29  H   UNL     1      41.204 -15.058   4.488  1.00  0.00     0.279 HD
HETATM   30  C   UNL     1      41.246 -16.790   3.366  1.00  0.00     0.235 C 
HETATM   31  C   UNL     1      41.618 -17.794   4.454  1.00  0.00     0.032 C 
HETATM   32  C   UNL     1      43.118 -17.792   4.790  1.00  0.00    -0.007 C 
HETATM   33  C   UNL     1      43.475 -16.367   5.215  1.00  0.00     0.032 C 
HETATM   34  C   UNL     1      43.186 -15.356   4.118  1.00  0.00     0.235 C 
BRANCH  32  35
HETATM   35  C   UNL     1      43.956 -18.341   3.609  1.00  0.00     0.043 C 
BRANCH  35  36
HETATM   36  C   UNL     1      44.175 -19.835   3.593  1.00  0.00    -0.058 A 
HETATM   37  C   UNL     1      44.041 -20.561   2.405  1.00  0.00     0.007 A 
HETATM   38  C   UNL     1      44.304 -21.934   2.383  1.00  0.00     0.001 A 
HETATM   39  C   UNL     1      44.696 -22.595   3.545  1.00  0.00     0.000 A 
HETATM   40  C   UNL     1      44.818 -21.888   4.736  1.00  0.00     0.001 A 
HETATM   41  C   UNL     1      44.553 -20.519   4.759  1.00  0.00     0.007 A 
ENDBRANCH  35  36
ENDBRANCH  32  35
ENDBRANCH  27  28
ENDBRANCH  26  27
ENDBRANCH  25  26
ENDBRANCH   2  25
TORSDOF 10
ENDMDL
