MODEL 1
REMARK VINA RESULT:      -8.0      0.000      0.000
REMARK  9 active torsions:
REMARK  status: ('A' for Active; 'I' for Inactive)
REMARK    1  A    between atoms: O_2  and  C_3 
REMARK    2  A    between atoms: C_6  and  C_7 
REMARK    3  A    between atoms: C_7  and  N_8 
REMARK       I    between atoms: N_8  and  C_9 
REMARK    4  A    between atoms: C_9  and  C_10 
REMARK    5  A    between atoms: C_10  and  S_11 
REMARK    6  A    between atoms: S_11  and  C_12 
REMARK    7  A    between atoms: N_13  and  C_14 
REMARK    8  A    between atoms: C_14  and  C_15 
REMARK    9  A    between atoms: C_21  and  C_22 
ROOT
HETATM    1  C   UNL     1      44.159 -19.991   6.222  1.00  0.00     0.192 A 
HETATM    2  N   UNL     1      44.330 -19.556   4.936  1.00  0.00    -0.307 N 
HETATM    3  C   UNL     1      44.495 -20.699   4.189  1.00  0.00     0.135 A 
HETATM    4  N   UNL     1      44.347 -21.749   4.970  1.00  0.00    -0.134 NA
HETATM    5  N   UNL     1      44.134 -21.301   6.251  1.00  0.00    -0.123 NA
ENDROOT
BRANCH   1   6
HETATM    6  S   UNL     1      44.055 -18.946   7.591  1.00  0.00    -0.081 SA
BRANCH   6   7
HETATM    7  C   UNL     1      42.764 -17.779   7.095  1.00  0.00     0.185 C 
BRANCH   7   8
HETATM    8  C   UNL     1      43.042 -16.301   7.317  1.00  0.00     0.227 C 
HETATM    9  N   UNL     1      42.304 -15.321   6.725  1.00  0.00    -0.356 N 
HETATM   10  H   UNL     1      42.591 -14.396   7.024  1.00  0.00     0.162 HD
HETATM   11  O   UNL     1      43.878 -15.942   8.154  1.00  0.00    -0.273 OA
BRANCH   9  12
HETATM   12  C   UNL     1      41.218 -15.425   5.779  1.00  0.00     0.161 C 
BRANCH  12  13
HETATM   13  C   UNL     1      41.521 -14.724   4.479  1.00  0.00    -0.040 A 
HETATM   14  C   UNL     1      40.491 -14.388   3.587  1.00  0.00     0.011 A 
HETATM   15  C   UNL     1      40.766 -13.697   2.400  1.00  0.00     0.037 A 
HETATM   16  C   UNL     1      42.072 -13.316   2.098  1.00  0.00     0.068 A 
HETATM   17  C   UNL     1      43.098 -13.644   2.985  1.00  0.00     0.037 A 
HETATM   18  C   UNL     1      42.830 -14.341   4.166  1.00  0.00     0.011 A 
BRANCH  16  19
HETATM   19  O   UNL     1      42.473 -12.626   0.987  1.00  0.00    -0.356 OA
HETATM   20  C   UNL     1      41.570 -12.593  -0.110  1.00  0.00     0.210 C 
ENDBRANCH  16  19
ENDBRANCH  12  13
ENDBRANCH   9  12
ENDBRANCH   7   8
ENDBRANCH   6   7
ENDBRANCH   1   6
BRANCH   2  21
HETATM   21  C   UNL     1      44.433 -18.191   4.453  1.00  0.00     0.171 C 
BRANCH  21  22
HETATM   22  C   UNL     1      43.493 -17.851   3.317  1.00  0.00    -0.040 A 
HETATM   23  C   UNL     1      42.103 -18.032   3.390  1.00  0.00     0.009 A 
HETATM   24  C   UNL     1      41.283 -17.694   2.311  1.00  0.00     0.001 A 
HETATM   25  C   UNL     1      41.835 -17.143   1.157  1.00  0.00     0.000 A 
HETATM   26  C   UNL     1      43.208 -16.925   1.080  1.00  0.00     0.001 A 
HETATM   27  C   UNL     1      44.031 -17.272   2.153  1.00  0.00     0.009 A 
ENDBRANCH  21  22
ENDBRANCH   2  21
BRANCH   3  28
HETATM   28  C   UNL     1      44.798 -20.785   2.699  1.00  0.00     0.057 A 
HETATM   29  C   UNL     1      44.578 -22.115   2.006  1.00  0.00     0.013 A 
HETATM   30  C   UNL     1      43.634 -20.991   1.752  1.00  0.00     0.013 A 
ENDBRANCH   3  28
TORSDOF 9
ENDMDL
MODEL 2
REMARK VINA RESULT:      -7.6      2.386      5.126
REMARK  9 active torsions:
REMARK  status: ('A' for Active; 'I' for Inactive)
REMARK    1  A    between atoms: O_2  and  C_3 
REMARK    2  A    between atoms: C_6  and  C_7 
REMARK    3  A    between atoms: C_7  and  N_8 
REMARK       I    between atoms: N_8  and  C_9 
REMARK    4  A    between atoms: C_9  and  C_10 
REMARK    5  A    between atoms: C_10  and  S_11 
REMARK    6  A    between atoms: S_11  and  C_12 
REMARK    7  A    between atoms: N_13  and  C_14 
REMARK    8  A    between atoms: C_14  and  C_15 
REMARK    9  A    between atoms: C_21  and  C_22 
ROOT
HETATM    1  C   UNL     1      41.516 -17.210   3.623  1.00  0.00     0.192 A 
HETATM    2  N   UNL     1      42.749 -17.530   4.123  1.00  0.00    -0.307 N 
HETATM    3  C   UNL     1      42.663 -17.287   5.474  1.00  0.00     0.135 A 
HETATM    4  N   UNL     1      41.432 -16.924   5.768  1.00  0.00    -0.134 NA
HETATM    5  N   UNL     1      40.710 -16.878   4.601  1.00  0.00    -0.123 NA
ENDROOT
BRANCH   1   6
HETATM    6  S   UNL     1      41.128 -17.196   1.942  1.00  0.00    -0.081 SA
BRANCH   6   7
HETATM    7  C   UNL     1      39.823 -15.946   1.852  1.00  0.00     0.185 C 
BRANCH   7   8
HETATM    8  C   UNL     1      40.149 -14.654   1.119  1.00  0.00     0.227 C 
HETATM    9  N   UNL     1      40.320 -13.469   1.769  1.00  0.00    -0.356 N 
HETATM   10  H   UNL     1      40.585 -12.723   1.135  1.00  0.00     0.162 HD
HETATM   11  O   UNL     1      40.395 -14.668  -0.091  1.00  0.00    -0.273 OA
BRANCH   9  12
HETATM   12  C   UNL     1      40.188 -13.155   3.172  1.00  0.00     0.161 C 
BRANCH  12  13
HETATM   13  C   UNL     1      41.453 -13.432   3.943  1.00  0.00    -0.040 A 
HETATM   14  C   UNL     1      42.654 -13.717   3.275  1.00  0.00     0.011 A 
HETATM   15  C   UNL     1      43.840 -13.931   3.988  1.00  0.00     0.037 A 
HETATM   16  C   UNL     1      43.846 -13.844   5.379  1.00  0.00     0.068 A 
HETATM   17  C   UNL     1      42.654 -13.556   6.047  1.00  0.00     0.037 A 
HETATM   18  C   UNL     1      41.467 -13.351   5.340  1.00  0.00     0.011 A 
BRANCH  16  19
HETATM   19  O   UNL     1      44.932 -14.013   6.192  1.00  0.00    -0.356 OA
HETATM   20  C   UNL     1      44.759 -13.704   7.569  1.00  0.00     0.210 C 
ENDBRANCH  16  19
ENDBRANCH  12  13
ENDBRANCH   9  12
ENDBRANCH   7   8
ENDBRANCH   6   7
ENDBRANCH   1   6
BRANCH   2  21
HETATM   21  C   UNL     1      43.939 -17.934   3.397  1.00  0.00     0.171 C 
BRANCH  21  22
HETATM   22  C   UNL     1      44.061 -19.424   3.162  1.00  0.00    -0.040 A 
HETATM   23  C   UNL     1      43.649 -20.050   1.976  1.00  0.00     0.009 A 
HETATM   24  C   UNL     1      43.793 -21.430   1.814  1.00  0.00     0.001 A 
HETATM   25  C   UNL     1      44.376 -22.198   2.819  1.00  0.00     0.000 A 
HETATM   26  C   UNL     1      44.821 -21.587   3.988  1.00  0.00     0.001 A 
HETATM   27  C   UNL     1      44.669 -20.210   4.158  1.00  0.00     0.009 A 
ENDBRANCH  21  22
ENDBRANCH   2  21
BRANCH   3  28
HETATM   28  C   UNL     1      43.781 -17.405   6.500  1.00  0.00     0.057 A 
HETATM   29  C   UNL     1      43.415 -17.292   7.966  1.00  0.00     0.013 A 
HETATM   30  C   UNL     1      43.786 -18.621   7.404  1.00  0.00     0.013 A 
ENDBRANCH   3  28
TORSDOF 9
ENDMDL
MODEL 3
REMARK VINA RESULT:      -7.3      3.246      7.021
REMARK  9 active torsions:
REMARK  status: ('A' for Active; 'I' for Inactive)
REMARK    1  A    between atoms: O_2  and  C_3 
REMARK    2  A    between atoms: C_6  and  C_7 
REMARK    3  A    between atoms: C_7  and  N_8 
REMARK       I    between atoms: N_8  and  C_9 
REMARK    4  A    between atoms: C_9  and  C_10 
REMARK    5  A    between atoms: C_10  and  S_11 
REMARK    6  A    between atoms: S_11  and  C_12 
REMARK    7  A    between atoms: N_13  and  C_14 
REMARK    8  A    between atoms: C_14  and  C_15 
REMARK    9  A    between atoms: C_21  and  C_22 
ROOT
HETATM    1  C   UNL     1      41.998 -14.406   3.964  1.00  0.00     0.192 A 
HETATM    2  N   UNL     1      42.406 -14.795   5.212  1.00  0.00    -0.307 N 
HETATM    3  C   UNL     1      43.690 -14.317   5.336  1.00  0.00     0.135 A 
HETATM    4  N   UNL     1      43.994 -13.618   4.262  1.00  0.00    -0.134 NA
HETATM    5  N   UNL     1      42.927 -13.674   3.400  1.00  0.00    -0.123 NA
ENDROOT
BRANCH   1   6
HETATM    6  S   UNL     1      40.503 -14.878   3.244  1.00  0.00    -0.081 SA
BRANCH   6   7
HETATM    7  C   UNL     1      40.931 -16.445   2.446  1.00  0.00     0.185 C 
BRANCH   7   8
HETATM    8  C   UNL     1      41.692 -16.369   1.132  1.00  0.00     0.227 C 
HETATM    9  N   UNL     1      43.016 -16.673   1.035  1.00  0.00    -0.356 N 
HETATM   10  H   UNL     1      43.348 -16.622   0.079  1.00  0.00     0.162 HD
HETATM   11  O   UNL     1      41.091 -16.149   0.075  1.00  0.00    -0.273 OA
BRANCH   9  12
HETATM   12  C   UNL     1      43.957 -17.047   2.065  1.00  0.00     0.161 C 
BRANCH  12  13
HETATM   13  C   UNL     1      44.015 -18.538   2.275  1.00  0.00    -0.040 A 
HETATM   14  C   UNL     1      43.119 -19.392   1.613  1.00  0.00     0.011 A 
HETATM   15  C   UNL     1      43.200 -20.781   1.772  1.00  0.00     0.037 A 
HETATM   16  C   UNL     1      44.189 -21.337   2.581  1.00  0.00     0.068 A 
HETATM   17  C   UNL     1      45.086 -20.491   3.237  1.00  0.00     0.037 A 
HETATM   18  C   UNL     1      45.003 -19.104   3.088  1.00  0.00     0.011 A 
BRANCH  16  19
HETATM   19  O   UNL     1      44.390 -22.671   2.808  1.00  0.00    -0.356 OA
HETATM   20  C   UNL     1      44.786 -23.047   4.121  1.00  0.00     0.210 C 
ENDBRANCH  16  19
ENDBRANCH  12  13
ENDBRANCH   9  12
ENDBRANCH   7   8
ENDBRANCH   6   7
ENDBRANCH   1   6
BRANCH   2  21
HETATM   21  C   UNL     1      41.702 -15.626   6.171  1.00  0.00     0.171 C 
BRANCH  21  22
HETATM   22  C   UNL     1      42.401 -16.923   6.517  1.00  0.00    -0.040 A 
HETATM   23  C   UNL     1      42.542 -17.984   5.610  1.00  0.00     0.009 A 
HETATM   24  C   UNL     1      43.204 -19.156   5.985  1.00  0.00     0.001 A 
HETATM   25  C   UNL     1      43.760 -19.273   7.257  1.00  0.00     0.000 A 
HETATM   26  C   UNL     1      43.658 -18.216   8.157  1.00  0.00     0.001 A 
HETATM   27  C   UNL     1      42.987 -17.048   7.790  1.00  0.00     0.009 A 
ENDBRANCH  21  22
ENDBRANCH   2  21
BRANCH   3  28
HETATM   28  C   UNL     1      44.640 -14.534   6.505  1.00  0.00     0.057 A 
HETATM   29  C   UNL     1      45.742 -13.517   6.722  1.00  0.00     0.013 A 
HETATM   30  C   UNL     1      44.582 -13.551   7.656  1.00  0.00     0.013 A 
ENDBRANCH   3  28
TORSDOF 9
ENDMDL
MODEL 4
REMARK VINA RESULT:      -7.2      1.842      3.650
REMARK  9 active torsions:
REMARK  status: ('A' for Active; 'I' for Inactive)
REMARK    1  A    between atoms: O_2  and  C_3 
REMARK    2  A    between atoms: C_6  and  C_7 
REMARK    3  A    between atoms: C_7  and  N_8 
REMARK       I    between atoms: N_8  and  C_9 
REMARK    4  A    between atoms: C_9  and  C_10 
REMARK    5  A    between atoms: C_10  and  S_11 
REMARK    6  A    between atoms: S_11  and  C_12 
REMARK    7  A    between atoms: N_13  and  C_14 
REMARK    8  A    between atoms: C_14  and  C_15 
REMARK    9  A    between atoms: C_21  and  C_22 
ROOT
HETATM    1  C   UNL     1      42.507 -17.440   5.408  1.00  0.00     0.192 A 
HETATM    2  N   UNL     1      43.038 -17.822   4.205  1.00  0.00    -0.307 N 
HETATM    3  C   UNL     1      42.005 -17.707   3.304  1.00  0.00     0.135 A 
HETATM    4  N   UNL     1      40.952 -17.210   3.918  1.00  0.00    -0.134 NA
HETATM    5  N   UNL     1      41.270 -17.040   5.243  1.00  0.00    -0.123 NA
ENDROOT
BRANCH   1   6
HETATM    6  S   UNL     1      43.348 -17.539   6.911  1.00  0.00    -0.081 SA
BRANCH   6   7
HETATM    7  C   UNL     1      44.649 -16.296   6.714  1.00  0.00     0.185 C 
BRANCH   7   8
HETATM    8  C   UNL     1      44.279 -14.851   7.011  1.00  0.00     0.227 C 
HETATM    9  N   UNL     1      43.953 -13.965   6.029  1.00  0.00    -0.356 N 
HETATM   10  H   UNL     1      43.682 -13.064   6.406  1.00  0.00     0.162 HD
HETATM   11  O   UNL     1      44.138 -14.469   8.177  1.00  0.00    -0.273 OA
BRANCH   9  12
HETATM   12  C   UNL     1      43.939 -14.136   4.595  1.00  0.00     0.161 C 
BRANCH  12  13
HETATM   13  C   UNL     1      42.565 -13.937   4.008  1.00  0.00    -0.040 A 
HETATM   14  C   UNL     1      41.464 -13.661   4.832  1.00  0.00     0.011 A 
HETATM   15  C   UNL     1      40.196 -13.432   4.285  1.00  0.00     0.037 A 
HETATM   16  C   UNL     1      40.014 -13.459   2.903  1.00  0.00     0.068 A 
HETATM   17  C   UNL     1      41.109 -13.729   2.079  1.00  0.00     0.037 A 
HETATM   18  C   UNL     1      42.374 -13.966   2.622  1.00  0.00     0.011 A 
BRANCH  16  19
HETATM   19  O   UNL     1      38.839 -13.237   2.241  1.00  0.00    -0.356 OA
HETATM   20  C   UNL     1      38.433 -14.226   1.304  1.00  0.00     0.210 C 
ENDBRANCH  16  19
ENDBRANCH  12  13
ENDBRANCH   9  12
ENDBRANCH   7   8
ENDBRANCH   6   7
ENDBRANCH   1   6
BRANCH   2  21
HETATM   21  C   UNL     1      44.364 -18.345   3.931  1.00  0.00     0.171 C 
BRANCH  21  22
HETATM   22  C   UNL     1      44.464 -19.855   3.950  1.00  0.00    -0.040 A 
HETATM   23  C   UNL     1      44.634 -20.598   5.128  1.00  0.00     0.009 A 
HETATM   24  C   UNL     1      44.713 -21.992   5.084  1.00  0.00     0.001 A 
HETATM   25  C   UNL     1      44.594 -22.664   3.870  1.00  0.00     0.000 A 
HETATM   26  C   UNL     1      44.391 -21.943   2.696  1.00  0.00     0.001 A 
HETATM   27  C   UNL     1      44.322 -20.550   2.735  1.00  0.00     0.009 A 
ENDBRANCH  21  22
ENDBRANCH   2  21
BRANCH   3  28
HETATM   28  C   UNL     1      42.030 -18.081   1.829  1.00  0.00     0.057 A 
HETATM   29  C   UNL     1      41.322 -17.164   0.852  1.00  0.00     0.013 A 
HETATM   30  C   UNL     1      42.811 -17.188   0.886  1.00  0.00     0.013 A 
ENDBRANCH   3  28
TORSDOF 9
ENDMDL
MODEL 5
REMARK VINA RESULT:      -7.0      3.523      6.236
REMARK  9 active torsions:
REMARK  status: ('A' for Active; 'I' for Inactive)
REMARK    1  A    between atoms: O_2  and  C_3 
REMARK    2  A    between atoms: C_6  and  C_7 
REMARK    3  A    between atoms: C_7  and  N_8 
REMARK       I    between atoms: N_8  and  C_9 
REMARK    4  A    between atoms: C_9  and  C_10 
REMARK    5  A    between atoms: C_10  and  S_11 
REMARK    6  A    between atoms: S_11  and  C_12 
REMARK    7  A    between atoms: N_13  and  C_14 
REMARK    8  A    between atoms: C_14  and  C_15 
REMARK    9  A    between atoms: C_21  and  C_22 
ROOT
HETATM    1  C   UNL     1      42.078 -13.060   1.846  1.00  0.00     0.192 A 
HETATM    2  N   UNL     1      41.406 -14.112   1.283  1.00  0.00    -0.307 N 
HETATM    3  C   UNL     1      41.174 -13.734  -0.019  1.00  0.00     0.135 A 
HETATM    4  N   UNL     1      41.745 -12.568  -0.237  1.00  0.00    -0.134 NA
HETATM    5  N   UNL     1      42.315 -12.145   0.938  1.00  0.00    -0.123 NA
ENDROOT
BRANCH   1   6
HETATM    6  S   UNL     1      42.485 -12.957   3.519  1.00  0.00    -0.081 SA
BRANCH   6   7
HETATM    7  C   UNL     1      40.882 -12.627   4.292  1.00  0.00     0.185 C 
BRANCH   7   8
HETATM    8  C   UNL     1      40.771 -12.866   5.789  1.00  0.00     0.227 C 
HETATM    9  N   UNL     1      40.516 -14.096   6.316  1.00  0.00    -0.356 N 
HETATM   10  H   UNL     1      40.530 -14.085   7.330  1.00  0.00     0.162 HD
HETATM   11  O   UNL     1      41.038 -11.962   6.587  1.00  0.00    -0.273 OA
BRANCH   9  12
HETATM   12  C   UNL     1      40.251 -15.350   5.651  1.00  0.00     0.161 C 
BRANCH  12  13
HETATM   13  C   UNL     1      41.455 -16.257   5.635  1.00  0.00    -0.040 A 
HETATM   14  C   UNL     1      41.332 -17.608   5.278  1.00  0.00     0.011 A 
HETATM   15  C   UNL     1      42.456 -18.441   5.220  1.00  0.00     0.037 A 
HETATM   16  C   UNL     1      43.722 -17.930   5.501  1.00  0.00     0.068 A 
HETATM   17  C   UNL     1      43.848 -16.585   5.853  1.00  0.00     0.037 A 
HETATM   18  C   UNL     1      42.728 -15.752   5.921  1.00  0.00     0.011 A 
BRANCH  16  19
HETATM   19  O   UNL     1      44.898 -18.626   5.466  1.00  0.00    -0.356 OA
HETATM   20  C   UNL     1      44.844 -19.956   4.965  1.00  0.00     0.210 C 
ENDBRANCH  16  19
ENDBRANCH  12  13
ENDBRANCH   9  12
ENDBRANCH   7   8
ENDBRANCH   6   7
ENDBRANCH   1   6
BRANCH   2  21
HETATM   21  C   UNL     1      40.931 -15.324   1.924  1.00  0.00     0.171 C 
BRANCH  21  22
HETATM   22  C   UNL     1      41.889 -16.494   1.851  1.00  0.00    -0.040 A 
HETATM   23  C   UNL     1      41.471 -17.815   1.630  1.00  0.00     0.009 A 
HETATM   24  C   UNL     1      42.402 -18.854   1.566  1.00  0.00     0.001 A 
HETATM   25  C   UNL     1      43.763 -18.586   1.692  1.00  0.00     0.000 A 
HETATM   26  C   UNL     1      44.197 -17.276   1.878  1.00  0.00     0.001 A 
HETATM   27  C   UNL     1      43.268 -16.237   1.953  1.00  0.00     0.009 A 
ENDBRANCH  21  22
ENDBRANCH   2  21
BRANCH   3  28
HETATM   28  C   UNL     1      40.392 -14.507  -1.072  1.00  0.00     0.057 A 
HETATM   29  C   UNL     1      40.199 -13.861  -2.429  1.00  0.00     0.013 A 
HETATM   30  C   UNL     1      41.145 -15.004  -2.289  1.00  0.00     0.013 A 
ENDBRANCH   3  28
TORSDOF 9
ENDMDL
MODEL 6
REMARK VINA RESULT:      -6.9      3.019      5.574
REMARK  9 active torsions:
REMARK  status: ('A' for Active; 'I' for Inactive)
REMARK    1  A    between atoms: O_2  and  C_3 
REMARK    2  A    between atoms: C_6  and  C_7 
REMARK    3  A    between atoms: C_7  and  N_8 
REMARK       I    between atoms: N_8  and  C_9 
REMARK    4  A    between atoms: C_9  and  C_10 
REMARK    5  A    between atoms: C_10  and  S_11 
REMARK    6  A    between atoms: S_11  and  C_12 
REMARK    7  A    between atoms: N_13  and  C_14 
REMARK    8  A    between atoms: C_14  and  C_15 
REMARK    9  A    between atoms: C_21  and  C_22 
ROOT
HETATM    1  C   UNL     1      41.486 -17.069   4.019  1.00  0.00     0.192 A 
HETATM    2  N   UNL     1      42.742 -17.430   4.429  1.00  0.00    -0.307 N 
HETATM    3  C   UNL     1      42.733 -17.272   5.795  1.00  0.00     0.135 A 
HETATM    4  N   UNL     1      41.524 -16.920   6.180  1.00  0.00    -0.134 NA
HETATM    5  N   UNL     1      40.739 -16.794   5.060  1.00  0.00    -0.123 NA
ENDROOT
BRANCH   1   6
HETATM    6  S   UNL     1      41.006 -16.945   2.366  1.00  0.00    -0.081 SA
BRANCH   6   7
HETATM    7  C   UNL     1      40.614 -15.186   2.204  1.00  0.00     0.185 C 
BRANCH   7   8
HETATM    8  C   UNL     1      39.591 -14.798   1.148  1.00  0.00     0.227 C 
HETATM    9  N   UNL     1      39.896 -14.739  -0.178  1.00  0.00    -0.356 N 
HETATM   10  H   UNL     1      39.085 -14.517  -0.745  1.00  0.00     0.162 HD
HETATM   11  O   UNL     1      38.403 -14.647   1.455  1.00  0.00    -0.273 OA
BRANCH   9  12
HETATM   12  C   UNL     1      41.159 -14.946  -0.847  1.00  0.00     0.161 C 
BRANCH  12  13
HETATM   13  C   UNL     1      41.641 -13.708  -1.558  1.00  0.00    -0.040 A 
HETATM   14  C   UNL     1      41.519 -13.586  -2.951  1.00  0.00     0.011 A 
HETATM   15  C   UNL     1      41.925 -12.418  -3.608  1.00  0.00     0.037 A 
HETATM   16  C   UNL     1      42.443 -11.348  -2.880  1.00  0.00     0.068 A 
HETATM   17  C   UNL     1      42.562 -11.464  -1.494  1.00  0.00     0.037 A 
HETATM   18  C   UNL     1      42.166 -12.631  -0.835  1.00  0.00     0.011 A 
BRANCH  16  19
HETATM   19  O   UNL     1      42.859 -10.151  -3.393  1.00  0.00    -0.356 OA
HETATM   20  C   UNL     1      42.482  -9.859  -4.732  1.00  0.00     0.210 C 
ENDBRANCH  16  19
ENDBRANCH  12  13
ENDBRANCH   9  12
ENDBRANCH   7   8
ENDBRANCH   6   7
ENDBRANCH   1   6
BRANCH   2  21
HETATM   21  C   UNL     1      43.885 -17.795   3.613  1.00  0.00     0.171 C 
BRANCH  21  22
HETATM   22  C   UNL     1      43.970 -19.266   3.267  1.00  0.00    -0.040 A 
HETATM   23  C   UNL     1      43.487 -19.800   2.063  1.00  0.00     0.009 A 
HETATM   24  C   UNL     1      43.600 -21.167   1.796  1.00  0.00     0.001 A 
HETATM   25  C   UNL     1      44.222 -22.012   2.712  1.00  0.00     0.000 A 
HETATM   26  C   UNL     1      44.736 -21.492   3.896  1.00  0.00     0.001 A 
HETATM   27  C   UNL     1      44.615 -20.129   4.171  1.00  0.00     0.009 A 
ENDBRANCH  21  22
ENDBRANCH   2  21
BRANCH   3  28
HETATM   28  C   UNL     1      43.904 -17.464   6.747  1.00  0.00     0.057 A 
HETATM   29  C   UNL     1      43.602 -17.611   8.225  1.00  0.00     0.013 A 
HETATM   30  C   UNL     1      44.038 -18.803   7.444  1.00  0.00     0.013 A 
ENDBRANCH   3  28
TORSDOF 9
ENDMDL
MODEL 7
REMARK VINA RESULT:      -6.9      2.883      6.465
REMARK  9 active torsions:
REMARK  status: ('A' for Active; 'I' for Inactive)
REMARK    1  A    between atoms: O_2  and  C_3 
REMARK    2  A    between atoms: C_6  and  C_7 
REMARK    3  A    between atoms: C_7  and  N_8 
REMARK       I    between atoms: N_8  and  C_9 
REMARK    4  A    between atoms: C_9  and  C_10 
REMARK    5  A    between atoms: C_10  and  S_11 
REMARK    6  A    between atoms: S_11  and  C_12 
REMARK    7  A    between atoms: N_13  and  C_14 
REMARK    8  A    between atoms: C_14  and  C_15 
REMARK    9  A    between atoms: C_21  and  C_22 
ROOT
HETATM    1  C   UNL     1      41.486 -13.228   3.982  1.00  0.00     0.192 A 
HETATM    2  N   UNL     1      41.149 -14.293   3.190  1.00  0.00    -0.307 N 
HETATM    3  C   UNL     1      40.776 -13.741   1.987  1.00  0.00     0.135 A 
HETATM    4  N   UNL     1      40.958 -12.438   2.036  1.00  0.00    -0.134 NA
HETATM    5  N   UNL     1      41.407 -12.116   3.293  1.00  0.00    -0.123 NA
ENDROOT
BRANCH   1   6
HETATM    6  S   UNL     1      41.890 -13.356   5.655  1.00  0.00    -0.081 SA
BRANCH   6   7
HETATM    7  C   UNL     1      43.619 -13.889   5.599  1.00  0.00     0.185 C 
BRANCH   7   8
HETATM    8  C   UNL     1      44.186 -14.535   6.854  1.00  0.00     0.227 C 
HETATM    9  N   UNL     1      43.816 -15.779   7.267  1.00  0.00    -0.356 N 
HETATM   10  H   UNL     1      44.330 -16.075   8.089  1.00  0.00     0.162 HD
HETATM   11  O   UNL     1      45.107 -13.993   7.473  1.00  0.00    -0.273 OA
BRANCH   9  12
HETATM   12  C   UNL     1      42.840 -16.686   6.710  1.00  0.00     0.161 C 
BRANCH  12  13
HETATM   13  C   UNL     1      43.419 -18.050   6.431  1.00  0.00    -0.040 A 
HETATM   14  C   UNL     1      43.296 -19.088   7.367  1.00  0.00     0.011 A 
HETATM   15  C   UNL     1      43.794 -20.367   7.091  1.00  0.00     0.037 A 
HETATM   16  C   UNL     1      44.407 -20.631   5.867  1.00  0.00     0.068 A 
HETATM   17  C   UNL     1      44.526 -19.602   4.931  1.00  0.00     0.037 A 
HETATM   18  C   UNL     1      44.039 -18.321   5.206  1.00  0.00     0.011 A 
BRANCH  16  19
HETATM   19  O   UNL     1      44.919 -21.833   5.465  1.00  0.00    -0.356 OA
HETATM   20  C   UNL     1      44.733 -22.187   4.100  1.00  0.00     0.210 C 
ENDBRANCH  16  19
ENDBRANCH  12  13
ENDBRANCH   9  12
ENDBRANCH   7   8
ENDBRANCH   6   7
ENDBRANCH   1   6
BRANCH   2  21
HETATM   21  C   UNL     1      41.084 -15.697   3.549  1.00  0.00     0.171 C 
BRANCH  21  22
HETATM   22  C   UNL     1      42.044 -16.588   2.791  1.00  0.00    -0.040 A 
HETATM   23  C   UNL     1      43.337 -16.185   2.423  1.00  0.00     0.009 A 
HETATM   24  C   UNL     1      44.182 -17.054   1.729  1.00  0.00     0.001 A 
HETATM   25  C   UNL     1      43.761 -18.345   1.419  1.00  0.00     0.000 A 
HETATM   26  C   UNL     1      42.494 -18.772   1.807  1.00  0.00     0.001 A 
HETATM   27  C   UNL     1      41.643 -17.902   2.492  1.00  0.00     0.009 A 
ENDBRANCH  21  22
ENDBRANCH   2  21
BRANCH   3  28
HETATM   28  C   UNL     1      40.235 -14.477   0.769  1.00  0.00     0.057 A 
HETATM   29  C   UNL     1      40.226 -13.745  -0.557  1.00  0.00     0.013 A 
HETATM   30  C   UNL     1      41.212 -14.839  -0.330  1.00  0.00     0.013 A 
ENDBRANCH   3  28
TORSDOF 9
ENDMDL
MODEL 8
REMARK VINA RESULT:      -6.8      5.030      7.453
REMARK  9 active torsions:
REMARK  status: ('A' for Active; 'I' for Inactive)
REMARK    1  A    between atoms: O_2  and  C_3 
REMARK    2  A    between atoms: C_6  and  C_7 
REMARK    3  A    between atoms: C_7  and  N_8 
REMARK       I    between atoms: N_8  and  C_9 
REMARK    4  A    between atoms: C_9  and  C_10 
REMARK    5  A    between atoms: C_10  and  S_11 
REMARK    6  A    between atoms: S_11  and  C_12 
REMARK    7  A    between atoms: N_13  and  C_14 
REMARK    8  A    between atoms: C_14  and  C_15 
REMARK    9  A    between atoms: C_21  and  C_22 
ROOT
HETATM    1  C   UNL     1      43.637 -14.535   4.902  1.00  0.00     0.192 A 
HETATM    2  N   UNL     1      42.801 -15.389   4.233  1.00  0.00    -0.307 N 
HETATM    3  C   UNL     1      42.521 -14.759   3.043  1.00  0.00     0.135 A 
HETATM    4  N   UNL     1      43.212 -13.640   2.976  1.00  0.00    -0.134 NA
HETATM    5  N   UNL     1      43.916 -13.501   4.146  1.00  0.00    -0.123 NA
ENDROOT
BRANCH   1   6
HETATM    6  S   UNL     1      44.176 -14.780   6.522  1.00  0.00    -0.081 SA
BRANCH   6   7
HETATM    7  C   UNL     1      43.717 -13.226   7.327  1.00  0.00     0.185 C 
BRANCH   7   8
HETATM    8  C   UNL     1      44.724 -12.620   8.292  1.00  0.00     0.227 C 
HETATM    9  N   UNL     1      44.384 -11.660   9.196  1.00  0.00    -0.356 N 
HETATM   10  H   UNL     1      45.163 -11.408   9.794  1.00  0.00     0.162 HD
HETATM   11  O   UNL     1      45.868 -13.080   8.370  1.00  0.00    -0.273 OA
BRANCH   9  12
HETATM   12  C   UNL     1      43.121 -10.992   9.405  1.00  0.00     0.161 C 
BRANCH  12  13
HETATM   13  C   UNL     1      42.835 -10.751  10.865  1.00  0.00    -0.040 A 
HETATM   14  C   UNL     1      41.676 -11.265  11.466  1.00  0.00     0.011 A 
HETATM   15  C   UNL     1      41.431 -11.079  12.832  1.00  0.00     0.037 A 
HETATM   16  C   UNL     1      42.352 -10.392  13.621  1.00  0.00     0.068 A 
HETATM   17  C   UNL     1      43.509  -9.883  13.028  1.00  0.00     0.037 A 
HETATM   18  C   UNL     1      43.753 -10.058  11.663  1.00  0.00     0.011 A 
BRANCH  16  19
HETATM   19  O   UNL     1      42.245 -10.156  14.964  1.00  0.00    -0.356 OA
HETATM   20  C   UNL     1      41.733  -8.889  15.355  1.00  0.00     0.210 C 
ENDBRANCH  16  19
ENDBRANCH  12  13
ENDBRANCH   9  12
ENDBRANCH   7   8
ENDBRANCH   6   7
ENDBRANCH   1   6
BRANCH   2  21
HETATM   21  C   UNL     1      42.231 -16.639   4.699  1.00  0.00     0.171 C 
BRANCH  21  22
HETATM   22  C   UNL     1      43.046 -17.869   4.362  1.00  0.00    -0.040 A 
HETATM   23  C   UNL     1      42.990 -18.509   3.114  1.00  0.00     0.009 A 
HETATM   24  C   UNL     1      43.771 -19.638   2.858  1.00  0.00     0.001 A 
HETATM   25  C   UNL     1      44.639 -20.127   3.832  1.00  0.00     0.000 A 
HETATM   26  C   UNL     1      44.732 -19.484   5.063  1.00  0.00     0.001 A 
HETATM   27  C   UNL     1      43.945 -18.361   5.326  1.00  0.00     0.009 A 
ENDBRANCH  21  22
ENDBRANCH   2  21
BRANCH   3  28
HETATM   28  C   UNL     1      41.574 -15.239   1.952  1.00  0.00     0.057 A 
HETATM   29  C   UNL     1      41.634 -14.548   0.605  1.00  0.00     0.013 A 
HETATM   30  C   UNL     1      42.177 -15.928   0.745  1.00  0.00     0.013 A 
ENDBRANCH   3  28
TORSDOF 9
ENDMDL
MODEL 9
REMARK VINA RESULT:      -6.7      4.707      7.005
REMARK  9 active torsions:
REMARK  status: ('A' for Active; 'I' for Inactive)
REMARK    1  A    between atoms: O_2  and  C_3 
REMARK    2  A    between atoms: C_6  and  C_7 
REMARK    3  A    between atoms: C_7  and  N_8 
REMARK       I    between atoms: N_8  and  C_9 
REMARK    4  A    between atoms: C_9  and  C_10 
REMARK    5  A    between atoms: C_10  and  S_11 
REMARK    6  A    between atoms: S_11  and  C_12 
REMARK    7  A    between atoms: N_13  and  C_14 
REMARK    8  A    between atoms: C_14  and  C_15 
REMARK    9  A    between atoms: C_21  and  C_22 
ROOT
HETATM    1  C   UNL     1      41.147 -15.129   4.173  1.00  0.00     0.192 A 
HETATM    2  N   UNL     1      41.503 -16.440   4.009  1.00  0.00    -0.307 N 
HETATM    3  C   UNL     1      42.093 -16.500   2.768  1.00  0.00     0.135 A 
HETATM    4  N   UNL     1      42.157 -15.285   2.263  1.00  0.00    -0.134 NA
HETATM    5  N   UNL     1      41.562 -14.422   3.150  1.00  0.00    -0.123 NA
ENDROOT
BRANCH   1   6
HETATM    6  S   UNL     1      40.234 -14.534   5.511  1.00  0.00    -0.081 SA
BRANCH   6   7
HETATM    7  C   UNL     1      40.991 -12.919   5.814  1.00  0.00     0.185 C 
BRANCH   7   8
HETATM    8  C   UNL     1      40.302 -12.007   6.818  1.00  0.00     0.227 C 
HETATM    9  N   UNL     1      40.996 -11.210   7.677  1.00  0.00    -0.356 N 
HETATM   10  H   UNL     1      40.381 -10.630   8.237  1.00  0.00     0.162 HD
HETATM   11  O   UNL     1      39.075 -11.869   6.795  1.00  0.00    -0.273 OA
BRANCH   9  12
HETATM   12  C   UNL     1      42.421 -11.086   7.878  1.00  0.00     0.161 C 
BRANCH  12  13
HETATM   13  C   UNL     1      42.772 -10.779   9.312  1.00  0.00    -0.040 A 
HETATM   14  C   UNL     1      44.080 -10.965   9.786  1.00  0.00     0.011 A 
HETATM   15  C   UNL     1      44.419 -10.639  11.105  1.00  0.00     0.037 A 
HETATM   16  C   UNL     1      43.459 -10.106  11.963  1.00  0.00     0.068 A 
HETATM   17  C   UNL     1      42.158  -9.915  11.494  1.00  0.00     0.037 A 
HETATM   18  C   UNL     1      41.813 -10.248  10.181  1.00  0.00     0.011 A 
BRANCH  16  19
HETATM   19  O   UNL     1      43.659  -9.731  13.263  1.00  0.00    -0.356 OA
HETATM   20  C   UNL     1      42.560  -9.881  14.152  1.00  0.00     0.210 C 
ENDBRANCH  16  19
ENDBRANCH  12  13
ENDBRANCH   9  12
ENDBRANCH   7   8
ENDBRANCH   6   7
ENDBRANCH   1   6
BRANCH   2  21
HETATM   21  C   UNL     1      41.231 -17.564   4.887  1.00  0.00     0.171 C 
BRANCH  21  22
HETATM   22  C   UNL     1      42.302 -17.830   5.922  1.00  0.00    -0.040 A 
HETATM   23  C   UNL     1      42.390 -17.126   7.133  1.00  0.00     0.009 A 
HETATM   24  C   UNL     1      43.397 -17.420   8.055  1.00  0.00     0.001 A 
HETATM   25  C   UNL     1      44.311 -18.439   7.795  1.00  0.00     0.000 A 
HETATM   26  C   UNL     1      44.217 -19.169   6.613  1.00  0.00     0.001 A 
HETATM   27  C   UNL     1      43.218 -18.870   5.686  1.00  0.00     0.009 A 
ENDBRANCH  21  22
ENDBRANCH   2  21
BRANCH   3  28
HETATM   28  C   UNL     1      42.604 -17.743   2.055  1.00  0.00     0.057 A 
HETATM   29  C   UNL     1      43.677 -17.566   0.999  1.00  0.00     0.013 A 
HETATM   30  C   UNL     1      44.035 -18.169   2.313  1.00  0.00     0.013 A 
ENDBRANCH   3  28
TORSDOF 9
ENDMDL
MODEL 10
REMARK VINA RESULT:      -6.6      2.696      5.187
REMARK  9 active torsions:
REMARK  status: ('A' for Active; 'I' for Inactive)
REMARK    1  A    between atoms: O_2  and  C_3 
REMARK    2  A    between atoms: C_6  and  C_7 
REMARK    3  A    between atoms: C_7  and  N_8 
REMARK       I    between atoms: N_8  and  C_9 
REMARK    4  A    between atoms: C_9  and  C_10 
REMARK    5  A    between atoms: C_10  and  S_11 
REMARK    6  A    between atoms: S_11  and  C_12 
REMARK    7  A    between atoms: N_13  and  C_14 
REMARK    8  A    between atoms: C_14  and  C_15 
REMARK    9  A    between atoms: C_21  and  C_22 
ROOT
HETATM    1  C   UNL     1      41.908 -17.543   3.574  1.00  0.00     0.192 A 
HETATM    2  N   UNL     1      43.060 -17.847   4.247  1.00  0.00    -0.307 N 
HETATM    3  C   UNL     1      42.827 -17.465   5.548  1.00  0.00     0.135 A 
HETATM    4  N   UNL     1      41.586 -17.038   5.655  1.00  0.00    -0.134 NA
HETATM    5  N   UNL     1      41.007 -17.090   4.411  1.00  0.00    -0.123 NA
ENDROOT
BRANCH   1   6
HETATM    6  S   UNL     1      41.719 -17.688   1.865  1.00  0.00    -0.081 SA
BRANCH   6   7
HETATM    7  C   UNL     1      41.891 -15.975   1.306  1.00  0.00     0.185 C 
BRANCH   7   8
HETATM    8  C   UNL     1      40.901 -15.484   0.260  1.00  0.00     0.227 C 
HETATM    9  N   UNL     1      39.686 -14.965   0.592  1.00  0.00    -0.356 N 
HETATM   10  H   UNL     1      39.178 -14.638  -0.222  1.00  0.00     0.162 HD
HETATM   11  O   UNL     1      41.228 -15.425  -0.930  1.00  0.00    -0.273 OA
BRANCH   9  12
HETATM   12  C   UNL     1      39.064 -14.821   1.887  1.00  0.00     0.161 C 
BRANCH  12  13
HETATM   13  C   UNL     1      39.632 -13.664   2.670  1.00  0.00    -0.040 A 
HETATM   14  C   UNL     1      39.997 -13.818   4.016  1.00  0.00     0.011 A 
HETATM   15  C   UNL     1      40.565 -12.758   4.732  1.00  0.00     0.037 A 
HETATM   16  C   UNL     1      40.794 -11.533   4.107  1.00  0.00     0.068 A 
HETATM   17  C   UNL     1      40.436 -11.378   2.766  1.00  0.00     0.037 A 
HETATM   18  C   UNL     1      39.860 -12.431   2.050  1.00  0.00     0.011 A 
BRANCH  16  19
HETATM   19  O   UNL     1      41.354 -10.427   4.682  1.00  0.00    -0.356 OA
HETATM   20  C   UNL     1      40.513  -9.637   5.513  1.00  0.00     0.210 C 
ENDBRANCH  16  19
ENDBRANCH  12  13
ENDBRANCH   9  12
ENDBRANCH   7   8
ENDBRANCH   6   7
ENDBRANCH   1   6
BRANCH   2  21
HETATM   21  C   UNL     1      44.309 -18.356   3.711  1.00  0.00     0.171 C 
BRANCH  21  22
HETATM   22  C   UNL     1      44.393 -19.865   3.633  1.00  0.00    -0.040 A 
HETATM   23  C   UNL     1      44.161 -20.587   2.452  1.00  0.00     0.009 A 
HETATM   24  C   UNL     1      44.260 -21.980   2.439  1.00  0.00     0.001 A 
HETATM   25  C   UNL     1      44.620 -22.669   3.595  1.00  0.00     0.000 A 
HETATM   26  C   UNL     1      44.887 -21.966   4.766  1.00  0.00     0.001 A 
HETATM   27  C   UNL     1      44.778 -20.575   4.785  1.00  0.00     0.009 A 
ENDBRANCH  21  22
ENDBRANCH   2  21
BRANCH   3  28
HETATM   28  C   UNL     1      43.812 -17.511   6.707  1.00  0.00     0.057 A 
HETATM   29  C   UNL     1      43.275 -17.281   8.105  1.00  0.00     0.013 A 
HETATM   30  C   UNL     1      43.688 -18.653   7.696  1.00  0.00     0.013 A 
ENDBRANCH   3  28
TORSDOF 9
ENDMDL
