MODEL 1
REMARK VINA RESULT:      -9.2      0.000      0.000
REMARK  7 active torsions:
REMARK  status: ('A' for Active; 'I' for Inactive)
REMARK    1  A    between atoms: C_7  and  C_8 
REMARK    2  A    between atoms: C_11  and  N_12 
REMARK       I    between atoms: N_12  and  C_13 
REMARK    3  A    between atoms: C_13  and  C_14 
REMARK    4  A    between atoms: C_14  and  N_15 
REMARK    5  A    between atoms: N_15  and  C_16 
REMARK    6  A    between atoms: C_17  and  O_18 
REMARK    7  A    between atoms: C_22  and  N_23 
REMARK       I    between atoms: N_23  and  C_24 
ROOT
HETATM    1  N   UNL     1      39.300 -10.872   6.841  1.00  0.00    -0.325 N 
HETATM    2  C   UNL     1      39.558  -9.847   7.701  1.00  0.00     0.244 C 
HETATM    3  O   UNL     1      38.548  -9.247   8.102  1.00  0.00    -0.271 OA
HETATM    4  H   UNL     1      38.295 -10.970   6.750  1.00  0.00     0.169 HD
ENDROOT
BRANCH   2   5
HETATM    5  C   UNL     1      40.954  -9.400   8.157  1.00  0.00     0.170 C 
HETATM    6  C   UNL     1      41.109  -7.879   8.053  1.00  0.00     0.042 C 
BRANCH   5   7
HETATM    7  N   UNL     1      41.404  -9.825   9.487  1.00  0.00    -0.375 N 
HETATM    8  H   UNL     1      40.633  -9.918  10.151  1.00  0.00     0.160 HD
BRANCH   7   9
HETATM    9  C   UNL     1      42.413 -10.716   9.840  1.00  0.00     0.064 A 
HETATM   10  C   UNL     1      42.519 -11.073  11.208  1.00  0.00     0.094 A 
HETATM   11  C   UNL     1      43.594 -11.837  11.663  1.00  0.00     0.041 A 
HETATM   12  C   UNL     1      44.595 -12.241  10.774  1.00  0.00     0.032 A 
HETATM   13  C   UNL     1      44.523 -11.893   9.429  1.00  0.00     0.037 A 
HETATM   14  C   UNL     1      43.412 -11.166   8.970  1.00  0.00     0.061 A 
BRANCH  10  15
HETATM   15  O   UNL     1      41.494 -10.613  12.009  1.00  0.00    -0.354 OA
HETATM   16  C   UNL     1      40.710 -11.591  12.678  1.00  0.00     0.210 C 
ENDBRANCH  10  15
BRANCH  13  17
HETATM   17  N   UNL     1      45.488 -12.240   8.466  1.00  0.00    -0.327 N 
HETATM   18  C   UNL     1      45.525 -13.194   7.492  1.00  0.00     0.218 C 
HETATM   19  C   UNL     1      44.482 -14.272   7.415  1.00  0.00     0.117 C 
HETATM   20  O   UNL     1      46.469 -13.185   6.698  1.00  0.00    -0.274 OA
HETATM   21  H   UNL     1      46.358 -11.719   8.495  1.00  0.00     0.169 HD
ENDBRANCH  13  17
ENDBRANCH   7   9
ENDBRANCH   5   7
ENDBRANCH   2   5
BRANCH   1  22
HETATM   22  C   UNL     1      40.053 -11.847   6.174  1.00  0.00     0.034 A 
HETATM   23  C   UNL     1      41.324 -11.687   5.636  1.00  0.00     0.030 A 
HETATM   24  C   UNL     1      42.014 -12.780   5.077  1.00  0.00     0.016 A 
HETATM   25  C   UNL     1      41.434 -14.054   5.019  1.00  0.00    -0.000 A 
HETATM   26  C   UNL     1      40.124 -14.188   5.496  1.00  0.00     0.016 A 
HETATM   27  C   UNL     1      39.447 -13.105   6.062  1.00  0.00     0.030 A 
BRANCH  25  28
HETATM   28  C   UNL     1      42.119 -15.255   4.500  1.00  0.00     0.109 A 
HETATM   29  N   UNL     1      42.648 -15.322   3.294  1.00  0.00    -0.240 NA
HETATM   30  C   UNL     1      43.146 -16.588   3.047  1.00  0.00     0.075 A 
HETATM   31  C   UNL     1      42.997 -17.500   4.089  1.00  0.00     0.036 A 
HETATM   32  C   UNL     1      43.762 -17.012   1.854  1.00  0.00     0.033 A 
HETATM   33  C   UNL     1      43.442 -18.831   3.980  1.00  0.00     0.028 A 
HETATM   34  S   UNL     1      42.219 -16.716   5.407  1.00  0.00    -0.067 SA
HETATM   35  C   UNL     1      44.048 -19.242   2.782  1.00  0.00    -0.061 A 
HETATM   36  C   UNL     1      44.535 -20.654   2.619  1.00  0.00     0.048 C 
HETATM   37  C   UNL     1      44.208 -18.333   1.733  1.00  0.00     0.009 A 
ENDBRANCH  25  28
ENDBRANCH   1  22
TORSDOF 7
ENDMDL
MODEL 2
REMARK VINA RESULT:      -9.1      1.712      3.540
REMARK  7 active torsions:
REMARK  status: ('A' for Active; 'I' for Inactive)
REMARK    1  A    between atoms: C_7  and  C_8 
REMARK    2  A    between atoms: C_11  and  N_12 
REMARK       I    between atoms: N_12  and  C_13 
REMARK    3  A    between atoms: C_13  and  C_14 
REMARK    4  A    between atoms: C_14  and  N_15 
REMARK    5  A    between atoms: N_15  and  C_16 
REMARK    6  A    between atoms: C_17  and  O_18 
REMARK    7  A    between atoms: C_22  and  N_23 
REMARK       I    between atoms: N_23  and  C_24 
ROOT
HETATM    1  N   UNL     1      40.360 -11.288   5.369  1.00  0.00    -0.325 N 
HETATM    2  C   UNL     1      40.326 -10.374   6.377  1.00  0.00     0.244 C 
HETATM    3  O   UNL     1      39.781  -9.298   6.079  1.00  0.00    -0.271 OA
HETATM    4  H   UNL     1      39.862 -10.906   4.572  1.00  0.00     0.169 HD
ENDROOT
BRANCH   2   5
HETATM    5  C   UNL     1      40.918 -10.576   7.780  1.00  0.00     0.170 C 
HETATM    6  C   UNL     1      39.865 -11.120   8.751  1.00  0.00     0.042 C 
BRANCH   5   7
HETATM    7  N   UNL     1      42.128 -11.397   7.896  1.00  0.00    -0.375 N 
HETATM    8  H   UNL     1      42.492 -11.692   6.987  1.00  0.00     0.160 HD
BRANCH   7   9
HETATM    9  C   UNL     1      43.188 -11.295   8.793  1.00  0.00     0.064 A 
HETATM   10  C   UNL     1      44.304 -12.145   8.584  1.00  0.00     0.094 A 
HETATM   11  C   UNL     1      45.333 -12.211   9.523  1.00  0.00     0.041 A 
HETATM   12  C   UNL     1      45.262 -11.453  10.696  1.00  0.00     0.032 A 
HETATM   13  C   UNL     1      44.173 -10.623  10.933  1.00  0.00     0.037 A 
HETATM   14  C   UNL     1      43.165 -10.524   9.959  1.00  0.00     0.061 A 
BRANCH  10  15
HETATM   15  O   UNL     1      44.272 -12.863   7.406  1.00  0.00    -0.354 OA
HETATM   16  C   UNL     1      44.369 -14.277   7.511  1.00  0.00     0.210 C 
ENDBRANCH  10  15
BRANCH  13  17
HETATM   17  N   UNL     1      44.009  -9.838  12.089  1.00  0.00    -0.327 N 
HETATM   18  C   UNL     1      43.223  -9.969  13.195  1.00  0.00     0.218 C 
HETATM   19  C   UNL     1      42.143 -11.010  13.267  1.00  0.00     0.117 C 
HETATM   20  O   UNL     1      43.384  -9.175  14.127  1.00  0.00    -0.274 OA
HETATM   21  H   UNL     1      44.542  -8.975  12.124  1.00  0.00     0.169 HD
ENDBRANCH  13  17
ENDBRANCH   7   9
ENDBRANCH   5   7
ENDBRANCH   2   5
BRANCH   1  22
HETATM   22  C   UNL     1      40.798 -12.610   5.215  1.00  0.00     0.034 A 
HETATM   23  C   UNL     1      40.233 -13.742   5.790  1.00  0.00     0.030 A 
HETATM   24  C   UNL     1      40.711 -15.027   5.472  1.00  0.00     0.016 A 
HETATM   25  C   UNL     1      41.786 -15.207   4.592  1.00  0.00    -0.000 A 
HETATM   26  C   UNL     1      42.397 -14.057   4.076  1.00  0.00     0.016 A 
HETATM   27  C   UNL     1      41.912 -12.783   4.382  1.00  0.00     0.030 A 
BRANCH  25  28
HETATM   28  C   UNL     1      42.302 -16.525   4.171  1.00  0.00     0.109 A 
HETATM   29  N   UNL     1      43.211 -17.198   4.850  1.00  0.00    -0.240 NA
HETATM   30  C   UNL     1      43.567 -18.354   4.181  1.00  0.00     0.075 A 
HETATM   31  C   UNL     1      42.911 -18.568   2.971  1.00  0.00     0.036 A 
HETATM   32  C   UNL     1      44.520 -19.296   4.613  1.00  0.00     0.033 A 
HETATM   33  C   UNL     1      43.177 -19.694   2.170  1.00  0.00     0.028 A 
HETATM   34  S   UNL     1      41.814 -17.272   2.697  1.00  0.00    -0.067 SA
HETATM   35  C   UNL     1      44.136 -20.621   2.610  1.00  0.00    -0.061 A 
HETATM   36  C   UNL     1      44.456 -21.836   1.787  1.00  0.00     0.048 C 
HETATM   37  C   UNL     1      44.795 -20.419   3.825  1.00  0.00     0.009 A 
ENDBRANCH  25  28
ENDBRANCH   1  22
TORSDOF 7
ENDMDL
MODEL 3
REMARK VINA RESULT:      -8.9      4.646      8.454
REMARK  7 active torsions:
REMARK  status: ('A' for Active; 'I' for Inactive)
REMARK    1  A    between atoms: C_7  and  C_8 
REMARK    2  A    between atoms: C_11  and  N_12 
REMARK       I    between atoms: N_12  and  C_13 
REMARK    3  A    between atoms: C_13  and  C_14 
REMARK    4  A    between atoms: C_14  and  N_15 
REMARK    5  A    between atoms: N_15  and  C_16 
REMARK    6  A    between atoms: C_17  and  O_18 
REMARK    7  A    between atoms: C_22  and  N_23 
REMARK       I    between atoms: N_23  and  C_24 
ROOT
HETATM    1  N   UNL     1      43.072 -15.384   7.006  1.00  0.00    -0.325 N 
HETATM    2  C   UNL     1      43.337 -16.628   7.492  1.00  0.00     0.244 C 
HETATM    3  O   UNL     1      43.639 -16.656   8.697  1.00  0.00    -0.271 OA
HETATM    4  H   UNL     1      43.123 -14.721   7.772  1.00  0.00     0.169 HD
ENDROOT
BRANCH   2   5
HETATM    5  C   UNL     1      43.310 -17.926   6.673  1.00  0.00     0.170 C 
HETATM    6  C   UNL     1      41.901 -18.220   6.148  1.00  0.00     0.042 C 
BRANCH   5   7
HETATM    7  N   UNL     1      44.258 -18.048   5.560  1.00  0.00    -0.375 N 
HETATM    8  H   UNL     1      45.197 -18.307   5.870  1.00  0.00     0.160 HD
BRANCH   7   9
HETATM    9  C   UNL     1      44.058 -18.538   4.272  1.00  0.00     0.064 A 
HETATM   10  C   UNL     1      44.492 -19.860   4.002  1.00  0.00     0.094 A 
HETATM   11  C   UNL     1      44.466 -20.365   2.702  1.00  0.00     0.041 A 
HETATM   12  C   UNL     1      44.031 -19.561   1.645  1.00  0.00     0.032 A 
HETATM   13  C   UNL     1      43.612 -18.256   1.880  1.00  0.00     0.037 A 
HETATM   14  C   UNL     1      43.594 -17.772   3.198  1.00  0.00     0.061 A 
BRANCH  10  15
HETATM   15  O   UNL     1      44.920 -20.567   5.107  1.00  0.00    -0.354 OA
HETATM   16  C   UNL     1      44.963 -21.983   4.990  1.00  0.00     0.210 C 
ENDBRANCH  10  15
BRANCH  13  17
HETATM   17  N   UNL     1      43.173 -17.370   0.879  1.00  0.00    -0.327 N 
HETATM   18  C   UNL     1      41.958 -16.820   0.595  1.00  0.00     0.218 C 
HETATM   19  C   UNL     1      40.709 -17.284   1.289  1.00  0.00     0.117 C 
HETATM   20  O   UNL     1      41.895 -15.961  -0.289  1.00  0.00    -0.274 OA
HETATM   21  H   UNL     1      43.866 -17.090   0.193  1.00  0.00     0.169 HD
ENDBRANCH  13  17
ENDBRANCH   7   9
ENDBRANCH   5   7
ENDBRANCH   2   5
BRANCH   1  22
HETATM   22  C   UNL     1      42.655 -14.843   5.782  1.00  0.00     0.034 A 
HETATM   23  C   UNL     1      43.473 -14.438   4.735  1.00  0.00     0.030 A 
HETATM   24  C   UNL     1      42.921 -14.003   3.515  1.00  0.00     0.016 A 
HETATM   25  C   UNL     1      41.534 -13.938   3.325  1.00  0.00    -0.000 A 
HETATM   26  C   UNL     1      40.718 -14.278   4.412  1.00  0.00     0.016 A 
HETATM   27  C   UNL     1      41.269 -14.722   5.617  1.00  0.00     0.030 A 
BRANCH  25  28
HETATM   28  C   UNL     1      40.887 -13.547   2.057  1.00  0.00     0.109 A 
HETATM   29  N   UNL     1      39.696 -13.976   1.689  1.00  0.00    -0.240 NA
HETATM   30  C   UNL     1      39.379 -13.518   0.424  1.00  0.00     0.075 A 
HETATM   31  C   UNL     1      40.348 -12.720  -0.181  1.00  0.00     0.036 A 
HETATM   32  C   UNL     1      38.193 -13.799  -0.281  1.00  0.00     0.033 A 
HETATM   33  C   UNL     1      40.174 -12.192  -1.474  1.00  0.00     0.028 A 
HETATM   34  S   UNL     1      41.677 -12.546   0.897  1.00  0.00    -0.067 SA
HETATM   35  C   UNL     1      38.989 -12.487  -2.168  1.00  0.00    -0.061 A 
HETATM   36  C   UNL     1      38.762 -11.949  -3.551  1.00  0.00     0.048 C 
HETATM   37  C   UNL     1      38.009 -13.281  -1.568  1.00  0.00     0.009 A 
ENDBRANCH  25  28
ENDBRANCH   1  22
TORSDOF 7
ENDMDL
MODEL 4
REMARK VINA RESULT:      -8.8      2.143      3.144
REMARK  7 active torsions:
REMARK  status: ('A' for Active; 'I' for Inactive)
REMARK    1  A    between atoms: C_7  and  C_8 
REMARK    2  A    between atoms: C_11  and  N_12 
REMARK       I    between atoms: N_12  and  C_13 
REMARK    3  A    between atoms: C_13  and  C_14 
REMARK    4  A    between atoms: C_14  and  N_15 
REMARK    5  A    between atoms: N_15  and  C_16 
REMARK    6  A    between atoms: C_17  and  O_18 
REMARK    7  A    between atoms: C_22  and  N_23 
REMARK       I    between atoms: N_23  and  C_24 
ROOT
HETATM    1  N   UNL     1      39.336 -11.919   5.275  1.00  0.00    -0.325 N 
HETATM    2  C   UNL     1      39.605 -10.600   5.484  1.00  0.00     0.244 C 
HETATM    3  O   UNL     1      38.601  -9.897   5.688  1.00  0.00    -0.271 OA
HETATM    4  H   UNL     1      38.339 -12.066   5.392  1.00  0.00     0.169 HD
ENDROOT
BRANCH   2   5
HETATM    5  C   UNL     1      41.001  -9.962   5.455  1.00  0.00     0.170 C 
HETATM    6  C   UNL     1      41.220  -9.166   4.164  1.00  0.00     0.042 C 
BRANCH   5   7
HETATM    7  N   UNL     1      41.389  -9.121   6.593  1.00  0.00    -0.375 N 
HETATM    8  H   UNL     1      41.120  -8.143   6.469  1.00  0.00     0.160 HD
BRANCH   7   9
HETATM    9  C   UNL     1      41.397  -9.416   7.954  1.00  0.00     0.064 A 
HETATM   10  C   UNL     1      40.817  -8.465   8.831  1.00  0.00     0.094 A 
HETATM   11  C   UNL     1      40.922  -8.617  10.214  1.00  0.00     0.041 A 
HETATM   12  C   UNL     1      41.624  -9.700  10.750  1.00  0.00     0.032 A 
HETATM   13  C   UNL     1      42.214 -10.641   9.912  1.00  0.00     0.037 A 
HETATM   14  C   UNL     1      42.060 -10.508   8.522  1.00  0.00     0.061 A 
BRANCH  10  15
HETATM   15  O   UNL     1      40.162  -7.424   8.206  1.00  0.00    -0.354 OA
HETATM   16  C   UNL     1      38.752  -7.357   8.372  1.00  0.00     0.210 C 
ENDBRANCH  10  15
BRANCH  13  17
HETATM   17  N   UNL     1      42.950 -11.752  10.360  1.00  0.00    -0.327 N 
HETATM   18  C   UNL     1      44.276 -11.946  10.615  1.00  0.00     0.218 C 
HETATM   19  C   UNL     1      45.303 -10.919  10.229  1.00  0.00     0.117 C 
HETATM   20  O   UNL     1      44.625 -13.012  11.128  1.00  0.00    -0.274 OA
HETATM   21  H   UNL     1      42.426 -12.610  10.499  1.00  0.00     0.169 HD
ENDBRANCH  13  17
ENDBRANCH   7   9
ENDBRANCH   5   7
ENDBRANCH   2   5
BRANCH   1  22
HETATM   22  C   UNL     1      40.085 -13.083   5.060  1.00  0.00     0.034 A 
HETATM   23  C   UNL     1      40.745 -13.833   6.026  1.00  0.00     0.030 A 
HETATM   24  C   UNL     1      41.381 -15.043   5.689  1.00  0.00     0.016 A 
HETATM   25  C   UNL     1      41.395 -15.516   4.370  1.00  0.00    -0.000 A 
HETATM   26  C   UNL     1      40.793 -14.715   3.392  1.00  0.00     0.016 A 
HETATM   27  C   UNL     1      40.150 -13.521   3.731  1.00  0.00     0.030 A 
BRANCH  25  28
HETATM   28  C   UNL     1      41.993 -16.801   3.955  1.00  0.00     0.109 A 
HETATM   29  N   UNL     1      42.849 -17.475   4.698  1.00  0.00    -0.240 NA
HETATM   30  C   UNL     1      43.307 -18.592   4.027  1.00  0.00     0.075 A 
HETATM   31  C   UNL     1      42.785 -18.775   2.748  1.00  0.00     0.036 A 
HETATM   32  C   UNL     1      44.241 -19.524   4.519  1.00  0.00     0.033 A 
HETATM   33  C   UNL     1      43.167 -19.860   1.937  1.00  0.00     0.028 A 
HETATM   34  S   UNL     1      41.681 -17.500   2.411  1.00  0.00    -0.067 SA
HETATM   35  C   UNL     1      44.105 -20.777   2.439  1.00  0.00    -0.061 A 
HETATM   36  C   UNL     1      44.546 -21.948   1.608  1.00  0.00     0.048 C 
HETATM   37  C   UNL     1      44.630 -20.607   3.722  1.00  0.00     0.009 A 
ENDBRANCH  25  28
ENDBRANCH   1  22
TORSDOF 7
ENDMDL
MODEL 5
REMARK VINA RESULT:      -8.7      3.830      6.670
REMARK  7 active torsions:
REMARK  status: ('A' for Active; 'I' for Inactive)
REMARK    1  A    between atoms: C_7  and  C_8 
REMARK    2  A    between atoms: C_11  and  N_12 
REMARK       I    between atoms: N_12  and  C_13 
REMARK    3  A    between atoms: C_13  and  C_14 
REMARK    4  A    between atoms: C_14  and  N_15 
REMARK    5  A    between atoms: N_15  and  C_16 
REMARK    6  A    between atoms: C_17  and  O_18 
REMARK    7  A    between atoms: C_22  and  N_23 
REMARK       I    between atoms: N_23  and  C_24 
ROOT
HETATM    1  N   UNL     1      41.888 -11.162   4.949  1.00  0.00    -0.325 N 
HETATM    2  C   UNL     1      40.813 -10.354   4.737  1.00  0.00     0.244 C 
HETATM    3  O   UNL     1      40.972  -9.179   5.108  1.00  0.00    -0.271 OA
HETATM    4  H   UNL     1      42.643 -10.601   5.328  1.00  0.00     0.169 HD
ENDROOT
BRANCH   2   5
HETATM    5  C   UNL     1      39.477 -10.795   4.122  1.00  0.00     0.170 C 
HETATM    6  C   UNL     1      38.364  -9.791   4.439  1.00  0.00     0.042 C 
BRANCH   5   7
HETATM    7  N   UNL     1      39.452 -11.082   2.683  1.00  0.00    -0.375 N 
HETATM    8  H   UNL     1      40.299 -10.769   2.205  1.00  0.00     0.160 HD
BRANCH   7   9
HETATM    9  C   UNL     1      38.932 -12.180   2.005  1.00  0.00     0.064 A 
HETATM   10  C   UNL     1      37.763 -11.975   1.230  1.00  0.00     0.094 A 
HETATM   11  C   UNL     1      37.098 -13.054   0.647  1.00  0.00     0.041 A 
HETATM   12  C   UNL     1      37.567 -14.357   0.843  1.00  0.00     0.032 A 
HETATM   13  C   UNL     1      38.704 -14.588   1.610  1.00  0.00     0.037 A 
HETATM   14  C   UNL     1      39.396 -13.491   2.151  1.00  0.00     0.061 A 
BRANCH  10  15
HETATM   15  O   UNL     1      37.370 -10.658   1.110  1.00  0.00    -0.354 OA
HETATM   16  C   UNL     1      35.983 -10.383   1.252  1.00  0.00     0.210 C 
ENDBRANCH  10  15
BRANCH  13  17
HETATM   17  N   UNL     1      39.239 -15.861   1.873  1.00  0.00    -0.327 N 
HETATM   18  C   UNL     1      40.385 -16.485   1.478  1.00  0.00     0.218 C 
HETATM   19  C   UNL     1      41.271 -15.894   0.418  1.00  0.00     0.117 C 
HETATM   20  O   UNL     1      40.659 -17.581   1.976  1.00  0.00    -0.274 OA
HETATM   21  H   UNL     1      38.668 -16.479   2.440  1.00  0.00     0.169 HD
ENDBRANCH  13  17
ENDBRANCH   7   9
ENDBRANCH   5   7
ENDBRANCH   2   5
BRANCH   1  22
HETATM   22  C   UNL     1      42.221 -12.496   4.677  1.00  0.00     0.034 A 
HETATM   23  C   UNL     1      42.634 -13.013   3.455  1.00  0.00     0.030 A 
HETATM   24  C   UNL     1      43.037 -14.358   3.340  1.00  0.00     0.016 A 
HETATM   25  C   UNL     1      43.010 -15.222   4.442  1.00  0.00    -0.000 A 
HETATM   26  C   UNL     1      42.522 -14.711   5.651  1.00  0.00     0.016 A 
HETATM   27  C   UNL     1      42.135 -13.373   5.766  1.00  0.00     0.030 A 
BRANCH  25  28
HETATM   28  C   UNL     1      43.471 -16.625   4.407  1.00  0.00     0.109 A 
HETATM   29  N   UNL     1      43.622 -17.310   3.291  1.00  0.00    -0.240 NA
HETATM   30  C   UNL     1      43.980 -18.617   3.563  1.00  0.00     0.075 A 
HETATM   31  C   UNL     1      44.110 -18.931   4.914  1.00  0.00     0.036 A 
HETATM   32  C   UNL     1      44.206 -19.626   2.606  1.00  0.00     0.033 A 
HETATM   33  C   UNL     1      44.456 -20.224   5.346  1.00  0.00     0.028 A 
HETATM   34  S   UNL     1      43.779 -17.523   5.845  1.00  0.00    -0.067 SA
HETATM   35  C   UNL     1      44.671 -21.222   4.381  1.00  0.00    -0.061 A 
HETATM   36  C   UNL     1      45.038 -22.618   4.796  1.00  0.00     0.048 C 
HETATM   37  C   UNL     1      44.550 -20.916   3.024  1.00  0.00     0.009 A 
ENDBRANCH  25  28
ENDBRANCH   1  22
TORSDOF 7
ENDMDL
MODEL 6
REMARK VINA RESULT:      -8.6      3.064      8.102
REMARK  7 active torsions:
REMARK  status: ('A' for Active; 'I' for Inactive)
REMARK    1  A    between atoms: C_7  and  C_8 
REMARK    2  A    between atoms: C_11  and  N_12 
REMARK       I    between atoms: N_12  and  C_13 
REMARK    3  A    between atoms: C_13  and  C_14 
REMARK    4  A    between atoms: C_14  and  N_15 
REMARK    5  A    between atoms: N_15  and  C_16 
REMARK    6  A    between atoms: C_17  and  O_18 
REMARK    7  A    between atoms: C_22  and  N_23 
REMARK       I    between atoms: N_23  and  C_24 
ROOT
HETATM    1  N   UNL     1      38.924 -12.153   3.270  1.00  0.00    -0.325 N 
HETATM    2  C   UNL     1      38.979 -13.129   2.321  1.00  0.00     0.244 C 
HETATM    3  O   UNL     1      38.097 -13.048   1.449  1.00  0.00    -0.271 OA
HETATM    4  H   UNL     1      38.181 -11.507   3.024  1.00  0.00     0.169 HD
ENDROOT
BRANCH   2   5
HETATM    5  C   UNL     1      39.997 -14.277   2.285  1.00  0.00     0.170 C 
HETATM    6  C   UNL     1      41.394 -13.765   1.917  1.00  0.00     0.042 C 
BRANCH   5   7
HETATM    7  N   UNL     1      40.110 -15.124   3.478  1.00  0.00    -0.375 N 
HETATM    8  H   UNL     1      39.348 -15.802   3.551  1.00  0.00     0.160 HD
BRANCH   7   9
HETATM    9  C   UNL     1      41.243 -15.652   4.089  1.00  0.00     0.064 A 
HETATM   10  C   UNL     1      41.724 -16.896   3.608  1.00  0.00     0.094 A 
HETATM   11  C   UNL     1      42.759 -17.561   4.266  1.00  0.00     0.041 A 
HETATM   12  C   UNL     1      43.319 -17.015   5.424  1.00  0.00     0.032 A 
HETATM   13  C   UNL     1      42.858 -15.803   5.925  1.00  0.00     0.037 A 
HETATM   14  C   UNL     1      41.850 -15.116   5.229  1.00  0.00     0.061 A 
BRANCH  10  15
HETATM   15  O   UNL     1      41.095 -17.360   2.470  1.00  0.00    -0.354 OA
HETATM   16  C   UNL     1      41.895 -17.502   1.304  1.00  0.00     0.210 C 
ENDBRANCH  10  15
BRANCH  13  17
HETATM   17  N   UNL     1      43.350 -15.186   7.090  1.00  0.00    -0.327 N 
HETATM   18  C   UNL     1      44.365 -14.304   7.314  1.00  0.00     0.218 C 
HETATM   19  C   UNL     1      45.352 -13.958   6.235  1.00  0.00     0.117 C 
HETATM   20  O   UNL     1      44.490 -13.828   8.446  1.00  0.00    -0.274 OA
HETATM   21  H   UNL     1      42.905 -15.454   7.961  1.00  0.00     0.169 HD
ENDBRANCH  13  17
ENDBRANCH   7   9
ENDBRANCH   5   7
ENDBRANCH   2   5
BRANCH   1  22
HETATM   22  C   UNL     1      39.684 -11.784   4.387  1.00  0.00     0.034 A 
HETATM   23  C   UNL     1      40.779 -10.929   4.398  1.00  0.00     0.030 A 
HETATM   24  C   UNL     1      41.394 -10.560   5.610  1.00  0.00     0.016 A 
HETATM   25  C   UNL     1      40.944 -11.062   6.837  1.00  0.00    -0.000 A 
HETATM   26  C   UNL     1      39.888 -11.982   6.809  1.00  0.00     0.016 A 
HETATM   27  C   UNL     1      39.270 -12.336   5.607  1.00  0.00     0.030 A 
BRANCH  25  28
HETATM   28  C   UNL     1      41.504 -10.676   8.148  1.00  0.00     0.109 A 
HETATM   29  N   UNL     1      42.761 -10.885   8.488  1.00  0.00    -0.240 NA
HETATM   30  C   UNL     1      42.985 -10.502   9.797  1.00  0.00     0.075 A 
HETATM   31  C   UNL     1      41.876  -9.986  10.465  1.00  0.00     0.036 A 
HETATM   32  C   UNL     1      44.208 -10.602  10.487  1.00  0.00     0.033 A 
HETATM   33  C   UNL     1      41.945  -9.567  11.806  1.00  0.00     0.028 A 
HETATM   34  S   UNL     1      40.533  -9.982   9.390  1.00  0.00    -0.067 SA
HETATM   35  C   UNL     1      43.170  -9.680  12.484  1.00  0.00    -0.061 A 
HETATM   36  C   UNL     1      43.290  -9.248  13.918  1.00  0.00     0.048 C 
HETATM   37  C   UNL     1      44.289 -10.189  11.822  1.00  0.00     0.009 A 
ENDBRANCH  25  28
ENDBRANCH   1  22
TORSDOF 7
ENDMDL
MODEL 7
REMARK VINA RESULT:      -8.6      5.786      8.670
REMARK  7 active torsions:
REMARK  status: ('A' for Active; 'I' for Inactive)
REMARK    1  A    between atoms: C_7  and  C_8 
REMARK    2  A    between atoms: C_11  and  N_12 
REMARK       I    between atoms: N_12  and  C_13 
REMARK    3  A    between atoms: C_13  and  C_14 
REMARK    4  A    between atoms: C_14  and  N_15 
REMARK    5  A    between atoms: N_15  and  C_16 
REMARK    6  A    between atoms: C_17  and  O_18 
REMARK    7  A    between atoms: C_22  and  N_23 
REMARK       I    between atoms: N_23  and  C_24 
ROOT
HETATM    1  N   UNL     1      38.472 -12.422   2.111  1.00  0.00    -0.325 N 
HETATM    2  C   UNL     1      38.747 -11.209   1.557  1.00  0.00     0.244 C 
HETATM    3  O   UNL     1      37.826 -10.381   1.650  1.00  0.00    -0.271 OA
HETATM    4  H   UNL     1      37.560 -12.376   2.551  1.00  0.00     0.169 HD
ENDROOT
BRANCH   2   5
HETATM    5  C   UNL     1      40.051 -10.835   0.838  1.00  0.00     0.170 C 
HETATM    6  C   UNL     1      40.908  -9.899   1.697  1.00  0.00     0.042 C 
BRANCH   5   7
HETATM    7  N   UNL     1      40.900 -11.931   0.354  1.00  0.00    -0.375 N 
HETATM    8  H   UNL     1      40.924 -12.723   0.999  1.00  0.00     0.160 HD
BRANCH   7   9
HETATM    9  C   UNL     1      41.091 -12.399  -0.942  1.00  0.00     0.064 A 
HETATM   10  C   UNL     1      42.303 -12.051  -1.590  1.00  0.00     0.094 A 
HETATM   11  C   UNL     1      42.502 -12.352  -2.937  1.00  0.00     0.041 A 
HETATM   12  C   UNL     1      41.494 -12.983  -3.672  1.00  0.00     0.032 A 
HETATM   13  C   UNL     1      40.290 -13.324  -3.065  1.00  0.00     0.037 A 
HETATM   14  C   UNL     1      40.117 -13.062  -1.696  1.00  0.00     0.061 A 
BRANCH  10  15
HETATM   15  O   UNL     1      43.228 -11.416  -0.786  1.00  0.00    -0.354 OA
HETATM   16  C   UNL     1      43.611 -10.099  -1.159  1.00  0.00     0.210 C 
ENDBRANCH  10  15
BRANCH  13  17
HETATM   17  N   UNL     1      39.215 -13.946  -3.726  1.00  0.00    -0.327 N 
HETATM   18  C   UNL     1      38.865 -15.251  -3.903  1.00  0.00     0.218 C 
HETATM   19  C   UNL     1      39.797 -16.367  -3.524  1.00  0.00     0.117 C 
HETATM   20  O   UNL     1      37.779 -15.502  -4.432  1.00  0.00    -0.274 OA
HETATM   21  H   UNL     1      38.569 -13.330  -4.209  1.00  0.00     0.169 HD
ENDBRANCH  13  17
ENDBRANCH   7   9
ENDBRANCH   5   7
ENDBRANCH   2   5
BRANCH   1  22
HETATM   22  C   UNL     1      39.163 -13.625   2.306  1.00  0.00     0.034 A 
HETATM   23  C   UNL     1      39.061 -14.774   1.531  1.00  0.00     0.030 A 
HETATM   24  C   UNL     1      39.889 -15.886   1.777  1.00  0.00     0.016 A 
HETATM   25  C   UNL     1      40.821 -15.883   2.823  1.00  0.00    -0.000 A 
HETATM   26  C   UNL     1      40.864 -14.750   3.645  1.00  0.00     0.016 A 
HETATM   27  C   UNL     1      40.050 -13.642   3.391  1.00  0.00     0.030 A 
BRANCH  25  28
HETATM   28  C   UNL     1      41.759 -16.989   3.102  1.00  0.00     0.109 A 
HETATM   29  N   UNL     1      42.158 -17.849   2.186  1.00  0.00    -0.240 NA
HETATM   30  C   UNL     1      42.963 -18.823   2.745  1.00  0.00     0.075 A 
HETATM   31  C   UNL     1      43.185 -18.699   4.115  1.00  0.00     0.036 A 
HETATM   32  C   UNL     1      43.548 -19.904   2.058  1.00  0.00     0.033 A 
HETATM   33  C   UNL     1      43.972 -19.623   4.827  1.00  0.00     0.028 A 
HETATM   34  S   UNL     1      42.358 -17.303   4.687  1.00  0.00    -0.067 SA
HETATM   35  C   UNL     1      44.542 -20.700   4.130  1.00  0.00    -0.061 A 
HETATM   36  C   UNL     1      45.386 -21.712   4.849  1.00  0.00     0.048 C 
HETATM   37  C   UNL     1      44.332 -20.830   2.755  1.00  0.00     0.009 A 
ENDBRANCH  25  28
ENDBRANCH   1  22
TORSDOF 7
ENDMDL
MODEL 8
REMARK VINA RESULT:      -8.6      3.851      6.793
REMARK  7 active torsions:
REMARK  status: ('A' for Active; 'I' for Inactive)
REMARK    1  A    between atoms: C_7  and  C_8 
REMARK    2  A    between atoms: C_11  and  N_12 
REMARK       I    between atoms: N_12  and  C_13 
REMARK    3  A    between atoms: C_13  and  C_14 
REMARK    4  A    between atoms: C_14  and  N_15 
REMARK    5  A    between atoms: N_15  and  C_16 
REMARK    6  A    between atoms: C_17  and  O_18 
REMARK    7  A    between atoms: C_22  and  N_23 
REMARK       I    between atoms: N_23  and  C_24 
ROOT
HETATM    1  N   UNL     1      40.209 -11.667   6.056  1.00  0.00    -0.325 N 
HETATM    2  C   UNL     1      39.469 -10.615   5.606  1.00  0.00     0.244 C 
HETATM    3  O   UNL     1      39.168  -9.786   6.481  1.00  0.00    -0.271 OA
HETATM    4  H   UNL     1      40.414 -11.518   7.038  1.00  0.00     0.169 HD
ENDROOT
BRANCH   2   5
HETATM    5  C   UNL     1      38.991 -10.419   4.160  1.00  0.00     0.170 C 
HETATM    6  C   UNL     1      40.160 -10.075   3.232  1.00  0.00     0.042 C 
BRANCH   5   7
HETATM    7  N   UNL     1      38.213 -11.503   3.549  1.00  0.00    -0.375 N 
HETATM    8  H   UNL     1      37.260 -11.558   3.915  1.00  0.00     0.160 HD
BRANCH   7   9
HETATM    9  C   UNL     1      38.219 -11.970   2.238  1.00  0.00     0.064 A 
HETATM   10  C   UNL     1      37.259 -11.426   1.347  1.00  0.00     0.094 A 
HETATM   11  C   UNL     1      37.102 -11.951   0.064  1.00  0.00     0.041 A 
HETATM   12  C   UNL     1      37.877 -13.038  -0.350  1.00  0.00     0.032 A 
HETATM   13  C   UNL     1      38.816 -13.600   0.509  1.00  0.00     0.037 A 
HETATM   14  C   UNL     1      39.002 -13.034   1.781  1.00  0.00     0.061 A 
BRANCH  10  15
HETATM   15  O   UNL     1      36.533 -10.368   1.853  1.00  0.00    -0.354 OA
HETATM   16  C   UNL     1      35.230 -10.166   1.321  1.00  0.00     0.210 C 
ENDBRANCH  10  15
BRANCH  13  17
HETATM   17  N   UNL     1      39.627 -14.703   0.186  1.00  0.00    -0.327 N 
HETATM   18  C   UNL     1      40.821 -14.818  -0.463  1.00  0.00     0.218 C 
HETATM   19  C   UNL     1      41.433 -13.650  -1.184  1.00  0.00     0.117 C 
HETATM   20  O   UNL     1      41.370 -15.922  -0.492  1.00  0.00    -0.274 OA
HETATM   21  H   UNL     1      39.266 -15.616   0.444  1.00  0.00     0.169 HD
ENDBRANCH  13  17
ENDBRANCH   7   9
ENDBRANCH   5   7
ENDBRANCH   2   5
BRANCH   1  22
HETATM   22  C   UNL     1      40.818 -12.793   5.487  1.00  0.00     0.034 A 
HETATM   23  C   UNL     1      42.098 -12.860   4.952  1.00  0.00     0.030 A 
HETATM   24  C   UNL     1      42.628 -14.084   4.501  1.00  0.00     0.016 A 
HETATM   25  C   UNL     1      41.876 -15.265   4.550  1.00  0.00    -0.000 A 
HETATM   26  C   UNL     1      40.561 -15.173   5.020  1.00  0.00     0.016 A 
HETATM   27  C   UNL     1      40.042 -13.959   5.480  1.00  0.00     0.030 A 
BRANCH  25  28
HETATM   28  C   UNL     1      42.387 -16.591   4.147  1.00  0.00     0.109 A 
HETATM   29  N   UNL     1      43.288 -17.261   4.839  1.00  0.00    -0.240 NA
HETATM   30  C   UNL     1      43.641 -18.427   4.186  1.00  0.00     0.075 A 
HETATM   31  C   UNL     1      42.990 -18.651   2.975  1.00  0.00     0.036 A 
HETATM   32  C   UNL     1      44.586 -19.369   4.634  1.00  0.00     0.033 A 
HETATM   33  C   UNL     1      43.254 -19.789   2.189  1.00  0.00     0.028 A 
HETATM   34  S   UNL     1      41.902 -17.352   2.680  1.00  0.00    -0.067 SA
HETATM   35  C   UNL     1      44.205 -20.716   2.645  1.00  0.00    -0.061 A 
HETATM   36  C   UNL     1      44.522 -21.942   1.839  1.00  0.00     0.048 C 
HETATM   37  C   UNL     1      44.858 -20.503   3.861  1.00  0.00     0.009 A 
ENDBRANCH  25  28
ENDBRANCH   1  22
TORSDOF 7
ENDMDL
MODEL 9
REMARK VINA RESULT:      -8.5      4.955      7.863
REMARK  7 active torsions:
REMARK  status: ('A' for Active; 'I' for Inactive)
REMARK    1  A    between atoms: C_7  and  C_8 
REMARK    2  A    between atoms: C_11  and  N_12 
REMARK       I    between atoms: N_12  and  C_13 
REMARK    3  A    between atoms: C_13  and  C_14 
REMARK    4  A    between atoms: C_14  and  N_15 
REMARK    5  A    between atoms: N_15  and  C_16 
REMARK    6  A    between atoms: C_17  and  O_18 
REMARK    7  A    between atoms: C_22  and  N_23 
REMARK       I    between atoms: N_23  and  C_24 
ROOT
HETATM    1  N   UNL     1      40.655 -11.178   4.147  1.00  0.00    -0.325 N 
HETATM    2  C   UNL     1      40.514 -10.171   3.240  1.00  0.00     0.244 C 
HETATM    3  O   UNL     1      40.265  -9.061   3.739  1.00  0.00    -0.271 OA
HETATM    4  H   UNL     1      40.581 -10.784   5.078  1.00  0.00     0.169 HD
ENDROOT
BRANCH   2   5
HETATM    5  C   UNL     1      40.612 -10.328   1.716  1.00  0.00     0.170 C 
HETATM    6  C   UNL     1      39.789  -9.255   0.995  1.00  0.00     0.042 C 
BRANCH   5   7
HETATM    7  N   UNL     1      41.953 -10.365   1.122  1.00  0.00    -0.375 N 
HETATM    8  H   UNL     1      42.672 -10.644   1.792  1.00  0.00     0.160 HD
BRANCH   7   9
HETATM    9  C   UNL     1      42.349 -10.758  -0.154  1.00  0.00     0.064 A 
HETATM   10  C   UNL     1      42.752  -9.741  -1.055  1.00  0.00     0.094 A 
HETATM   11  C   UNL     1      43.014 -10.038  -2.392  1.00  0.00     0.041 A 
HETATM   12  C   UNL     1      42.859 -11.345  -2.864  1.00  0.00     0.032 A 
HETATM   13  C   UNL     1      42.452 -12.360  -2.005  1.00  0.00     0.037 A 
HETATM   14  C   UNL     1      42.238 -12.061  -0.649  1.00  0.00     0.061 A 
BRANCH  10  15
HETATM   15  O   UNL     1      42.859  -8.483  -0.498  1.00  0.00    -0.354 OA
HETATM   16  C   UNL     1      44.083  -7.789  -0.703  1.00  0.00     0.210 C 
ENDBRANCH  10  15
BRANCH  13  17
HETATM   17  N   UNL     1      42.254 -13.697  -2.393  1.00  0.00    -0.327 N 
HETATM   18  C   UNL     1      41.288 -14.317  -3.128  1.00  0.00     0.218 C 
HETATM   19  C   UNL     1      40.030 -13.599  -3.527  1.00  0.00     0.117 C 
HETATM   20  O   UNL     1      41.443 -15.507  -3.418  1.00  0.00    -0.274 OA
HETATM   21  H   UNL     1      42.931 -14.369  -2.045  1.00  0.00     0.169 HD
ENDBRANCH  13  17
ENDBRANCH   7   9
ENDBRANCH   5   7
ENDBRANCH   2   5
BRANCH   1  22
HETATM   22  C   UNL     1      40.974 -12.541   4.104  1.00  0.00     0.034 A 
HETATM   23  C   UNL     1      40.098 -13.603   4.291  1.00  0.00     0.030 A 
HETATM   24  C   UNL     1      40.529 -14.932   4.122  1.00  0.00     0.016 A 
HETATM   25  C   UNL     1      41.856 -15.231   3.786  1.00  0.00    -0.000 A 
HETATM   26  C   UNL     1      42.748 -14.158   3.673  1.00  0.00     0.016 A 
HETATM   27  C   UNL     1      42.315 -12.838   3.829  1.00  0.00     0.030 A 
BRANCH  25  28
HETATM   28  C   UNL     1      42.362 -16.595   3.538  1.00  0.00     0.109 A 
HETATM   29  N   UNL     1      43.200 -17.215   4.346  1.00  0.00    -0.240 NA
HETATM   30  C   UNL     1      43.569 -18.440   3.823  1.00  0.00     0.075 A 
HETATM   31  C   UNL     1      42.996 -18.761   2.594  1.00  0.00     0.036 A 
HETATM   32  C   UNL     1      44.461 -19.354   4.416  1.00  0.00     0.033 A 
HETATM   33  C   UNL     1      43.287 -19.968   1.931  1.00  0.00     0.028 A 
HETATM   34  S   UNL     1      41.960 -17.476   2.112  1.00  0.00    -0.067 SA
HETATM   35  C   UNL     1      44.185 -20.866   2.531  1.00  0.00    -0.061 A 
HETATM   36  C   UNL     1      44.528 -22.164   1.859  1.00  0.00     0.048 C 
HETATM   37  C   UNL     1      44.759 -20.557   3.766  1.00  0.00     0.009 A 
ENDBRANCH  25  28
ENDBRANCH   1  22
TORSDOF 7
ENDMDL
MODEL 10
REMARK VINA RESULT:      -8.4      3.522      9.502
REMARK  7 active torsions:
REMARK  status: ('A' for Active; 'I' for Inactive)
REMARK    1  A    between atoms: C_7  and  C_8 
REMARK    2  A    between atoms: C_11  and  N_12 
REMARK       I    between atoms: N_12  and  C_13 
REMARK    3  A    between atoms: C_13  and  C_14 
REMARK    4  A    between atoms: C_14  and  N_15 
REMARK    5  A    between atoms: N_15  and  C_16 
REMARK    6  A    between atoms: C_17  and  O_18 
REMARK    7  A    between atoms: C_22  and  N_23 
REMARK       I    between atoms: N_23  and  C_24 
ROOT
HETATM    1  N   UNL     1      39.999 -12.433   4.263  1.00  0.00    -0.325 N 
HETATM    2  C   UNL     1      40.362 -13.558   3.586  1.00  0.00     0.244 C 
HETATM    3  O   UNL     1      40.084 -13.541   2.375  1.00  0.00    -0.271 OA
HETATM    4  H   UNL     1      39.615 -11.768   3.600  1.00  0.00     0.169 HD
ENDROOT
BRANCH   2   5
HETATM    5  C   UNL     1      41.034 -14.790   4.208  1.00  0.00     0.170 C 
HETATM    6  C   UNL     1      40.397 -15.147   5.555  1.00  0.00     0.042 C 
BRANCH   5   7
HETATM    7  N   UNL     1      41.112 -16.007   3.391  1.00  0.00    -0.375 N 
HETATM    8  H   UNL     1      40.424 -16.018   2.636  1.00  0.00     0.160 HD
BRANCH   7   9
HETATM    9  C   UNL     1      42.226 -16.742   2.996  1.00  0.00     0.064 A 
HETATM   10  C   UNL     1      42.680 -16.573   1.664  1.00  0.00     0.094 A 
HETATM   11  C   UNL     1      43.691 -17.385   1.149  1.00  0.00     0.041 A 
HETATM   12  C   UNL     1      44.253 -18.392   1.939  1.00  0.00     0.032 A 
HETATM   13  C   UNL     1      43.817 -18.588   3.245  1.00  0.00     0.037 A 
HETATM   14  C   UNL     1      42.834 -17.734   3.771  1.00  0.00     0.061 A 
BRANCH  10  15
HETATM   15  O   UNL     1      42.051 -15.566   0.960  1.00  0.00    -0.354 OA
HETATM   16  C   UNL     1      41.355 -15.942  -0.220  1.00  0.00     0.210 C 
ENDBRANCH  10  15
BRANCH  13  17
HETATM   17  N   UNL     1      44.312 -19.583   4.107  1.00  0.00    -0.327 N 
HETATM   18  C   UNL     1      44.673 -20.883   3.912  1.00  0.00     0.218 C 
HETATM   19  C   UNL     1      44.383 -21.588   2.618  1.00  0.00     0.117 C 
HETATM   20  O   UNL     1      45.202 -21.492   4.846  1.00  0.00    -0.274 OA
HETATM   21  H   UNL     1      44.399 -19.326   5.085  1.00  0.00     0.169 HD
ENDBRANCH  13  17
ENDBRANCH   7   9
ENDBRANCH   5   7
ENDBRANCH   2   5
BRANCH   1  22
HETATM   22  C   UNL     1      40.127 -11.954   5.573  1.00  0.00     0.034 A 
HETATM   23  C   UNL     1      39.181 -12.050   6.586  1.00  0.00     0.030 A 
HETATM   24  C   UNL     1      39.475 -11.616   7.892  1.00  0.00     0.016 A 
HETATM   25  C   UNL     1      40.717 -11.049   8.209  1.00  0.00    -0.000 A 
HETATM   26  C   UNL     1      41.636 -10.888   7.165  1.00  0.00     0.016 A 
HETATM   27  C   UNL     1      41.347 -11.332   5.872  1.00  0.00     0.030 A 
BRANCH  25  28
HETATM   28  C   UNL     1      41.114 -10.624   9.566  1.00  0.00     0.109 A 
HETATM   29  N   UNL     1      42.369 -10.472   9.939  1.00  0.00    -0.240 NA
HETATM   30  C   UNL     1      42.447 -10.152  11.282  1.00  0.00     0.075 A 
HETATM   31  C   UNL     1      41.224 -10.054  11.942  1.00  0.00     0.036 A 
HETATM   32  C   UNL     1      43.632  -9.936  12.010  1.00  0.00     0.033 A 
HETATM   33  C   UNL     1      41.142  -9.750  13.313  1.00  0.00     0.028 A 
HETATM   34  S   UNL     1      39.959 -10.365  10.819  1.00  0.00    -0.067 SA
HETATM   35  C   UNL     1      42.333  -9.544  14.029  1.00  0.00    -0.061 A 
HETATM   36  C   UNL     1      42.296  -9.220  15.495  1.00  0.00     0.048 C 
HETATM   37  C   UNL     1      43.564  -9.633  13.375  1.00  0.00     0.009 A 
ENDBRANCH  25  28
ENDBRANCH   1  22
TORSDOF 7
ENDMDL
