MODEL 1
REMARK VINA RESULT:      -8.2      0.000      0.000
REMARK  3 active torsions:
REMARK  status: ('A' for Active; 'I' for Inactive)
REMARK    1  A    between atoms: C_2  and  N_3 
REMARK       I    between atoms: N_3  and  C_4 
REMARK    2  A    between atoms: C_4  and  C_5 
REMARK    3  A    between atoms: C_5  and  C_6 
ROOT
HETATM    1  C   UNL     1      41.890 -17.539   5.229  1.00  0.00     0.286 C 
HETATM    2  N   UNL     1      42.749 -16.605   4.382  1.00  0.00    -0.056 N 
HETATM    3  H   UNL     1      43.305 -16.051   5.069  1.00  0.00     0.278 HD
HETATM    4  H   UNL     1      43.431 -17.129   3.821  1.00  0.00     0.278 HD
HETATM    5  C   UNL     1      41.975 -15.633   3.536  1.00  0.00     0.209 C 
HETATM    6  C   UNL     1      40.981 -14.852   4.431  1.00  0.00     0.115 C 
HETATM    7  N   UNL     1      40.192 -15.723   5.304  1.00  0.00    -0.353 N 
HETATM    8  C   UNL     1      40.725 -16.821   5.939  1.00  0.00     0.249 C 
HETATM    9  O   UNL     1      40.208 -17.250   6.966  1.00  0.00    -0.271 OA
HETATM   10  C   UNL     1      41.299 -16.369   2.377  1.00  0.00     0.035 C 
HETATM   11  C   UNL     1      40.430 -15.419   1.557  1.00  0.00     0.002 C 
HETATM   12  C   UNL     1      39.405 -14.706   2.435  1.00  0.00     0.002 C 
HETATM   13  C   UNL     1      40.073 -13.953   3.585  1.00  0.00     0.027 C 
HETATM   14  H   UNL     1      39.451 -15.291   5.852  1.00  0.00     0.163 HD
ENDROOT
BRANCH   1  15
HETATM   15  C   UNL     1      42.754 -18.337   6.217  1.00  0.00     0.146 C 
BRANCH  15  16
HETATM   16  C   UNL     1      44.218 -18.060   5.999  1.00  0.00     0.224 C 
HETATM   17  N   UNL     1      44.976 -18.771   5.125  1.00  0.00    -0.327 N 
HETATM   18  H   UNL     1      45.957 -18.510   5.189  1.00  0.00     0.169 HD
HETATM   19  O   UNL     1      44.733 -17.112   6.610  1.00  0.00    -0.273 OA
BRANCH  17  20
HETATM   20  C   UNL     1      44.692 -19.763   4.164  1.00  0.00     0.034 A 
HETATM   21  C   UNL     1      44.874 -21.137   4.332  1.00  0.00     0.032 A 
HETATM   22  C   UNL     1      44.526 -22.031   3.311  1.00  0.00     0.044 A 
HETATM   23  C   UNL     1      43.991 -21.555   2.123  1.00  0.00     0.116 A 
HETATM   24  C   UNL     1      43.792 -20.197   1.935  1.00  0.00     0.044 A 
HETATM   25  F   UNL     1      43.656 -22.417   1.156  1.00  0.00    -0.206 F 
HETATM   26  C   UNL     1      44.138 -19.306   2.955  1.00  0.00     0.032 A 
ENDBRANCH  17  20
ENDBRANCH  15  16
ENDBRANCH   1  15
TORSDOF 3
ENDMDL
MODEL 2
REMARK VINA RESULT:      -8.1      1.423      1.843
REMARK  3 active torsions:
REMARK  status: ('A' for Active; 'I' for Inactive)
REMARK    1  A    between atoms: C_2  and  N_3 
REMARK       I    between atoms: N_3  and  C_4 
REMARK    2  A    between atoms: C_4  and  C_5 
REMARK    3  A    between atoms: C_5  and  C_6 
ROOT
HETATM    1  C   UNL     1      42.444 -16.952   5.427  1.00  0.00     0.286 C 
HETATM    2  N   UNL     1      43.680 -16.067   5.294  1.00  0.00    -0.056 N 
HETATM    3  H   UNL     1      44.069 -15.998   6.259  1.00  0.00     0.278 HD
HETATM    4  H   UNL     1      44.406 -16.520   4.727  1.00  0.00     0.278 HD
HETATM    5  C   UNL     1      43.404 -14.669   4.816  1.00  0.00     0.209 C 
HETATM    6  C   UNL     1      42.323 -14.022   5.718  1.00  0.00     0.115 C 
HETATM    7  N   UNL     1      41.156 -14.881   5.916  1.00  0.00    -0.353 N 
HETATM    8  C   UNL     1      41.254 -16.242   6.101  1.00  0.00     0.249 C 
HETATM    9  O   UNL     1      40.365 -16.849   6.690  1.00  0.00    -0.271 OA
HETATM   10  C   UNL     1      43.026 -14.686   3.333  1.00  0.00     0.035 C 
HETATM   11  C   UNL     1      42.650 -13.289   2.847  1.00  0.00     0.002 C 
HETATM   12  C   UNL     1      41.534 -12.687   3.697  1.00  0.00     0.002 C 
HETATM   13  C   UNL     1      41.911 -12.648   5.178  1.00  0.00     0.027 C 
HETATM   14  H   UNL     1      40.363 -14.487   6.419  1.00  0.00     0.163 HD
ENDROOT
BRANCH   1  15
HETATM   15  C   UNL     1      42.787 -18.276   6.125  1.00  0.00     0.146 C 
BRANCH  15  16
HETATM   16  C   UNL     1      44.278 -18.479   6.192  1.00  0.00     0.224 C 
HETATM   17  N   UNL     1      44.947 -19.284   5.327  1.00  0.00    -0.327 N 
HETATM   18  H   UNL     1      45.926 -19.377   5.591  1.00  0.00     0.169 HD
HETATM   19  O   UNL     1      44.918 -17.846   7.044  1.00  0.00    -0.273 OA
BRANCH  17  20
HETATM   20  C   UNL     1      44.582 -19.990   4.163  1.00  0.00     0.034 A 
HETATM   21  C   UNL     1      44.058 -19.424   2.998  1.00  0.00     0.032 A 
HETATM   22  C   UNL     1      43.760 -20.228   1.889  1.00  0.00     0.044 A 
HETATM   23  C   UNL     1      43.988 -21.595   1.941  1.00  0.00     0.116 A 
HETATM   24  C   UNL     1      44.514 -22.178   3.082  1.00  0.00     0.044 A 
HETATM   25  F   UNL     1      43.705 -22.354   0.876  1.00  0.00    -0.206 F 
HETATM   26  C   UNL     1      44.814 -21.376   4.187  1.00  0.00     0.032 A 
ENDBRANCH  17  20
ENDBRANCH  15  16
ENDBRANCH   1  15
TORSDOF 3
ENDMDL
MODEL 3
REMARK VINA RESULT:      -7.9      2.071      2.952
REMARK  3 active torsions:
REMARK  status: ('A' for Active; 'I' for Inactive)
REMARK    1  A    between atoms: C_2  and  N_3 
REMARK       I    between atoms: N_3  and  C_4 
REMARK    2  A    between atoms: C_4  and  C_5 
REMARK    3  A    between atoms: C_5  and  C_6 
ROOT
HETATM    1  C   UNL     1      41.184 -16.176   3.190  1.00  0.00     0.286 C 
HETATM    2  N   UNL     1      40.185 -15.278   3.912  1.00  0.00    -0.056 N 
HETATM    3  H   UNL     1      39.459 -15.926   4.287  1.00  0.00     0.278 HD
HETATM    4  H   UNL     1      40.611 -14.826   4.731  1.00  0.00     0.278 HD
HETATM    5  C   UNL     1      39.490 -14.276   3.034  1.00  0.00     0.209 C 
HETATM    6  C   UNL     1      38.845 -15.009   1.831  1.00  0.00     0.115 C 
HETATM    7  N   UNL     1      39.765 -15.929   1.163  1.00  0.00    -0.353 N 
HETATM    8  C   UNL     1      40.656 -16.723   1.849  1.00  0.00     0.249 C 
HETATM    9  O   UNL     1      41.073 -17.760   1.344  1.00  0.00    -0.271 OA
HETATM   10  C   UNL     1      40.468 -13.174   2.619  1.00  0.00     0.035 C 
HETATM   11  C   UNL     1      39.811 -12.195   1.650  1.00  0.00     0.002 C 
HETATM   12  C   UNL     1      39.240 -12.917   0.432  1.00  0.00     0.002 C 
HETATM   13  C   UNL     1      38.248 -14.007   0.836  1.00  0.00     0.027 C 
HETATM   14  H   UNL     1      39.442 -16.376   0.306  1.00  0.00     0.163 HD
ENDROOT
BRANCH   1  15
HETATM   15  C   UNL     1      41.677 -17.303   4.109  1.00  0.00     0.146 C 
BRANCH  15  16
HETATM   16  C   UNL     1      43.041 -16.990   4.664  1.00  0.00     0.224 C 
HETATM   17  N   UNL     1      44.046 -17.902   4.696  1.00  0.00    -0.327 N 
HETATM   18  H   UNL     1      44.856 -17.542   5.197  1.00  0.00     0.169 HD
HETATM   19  O   UNL     1      43.261 -15.836   5.061  1.00  0.00    -0.273 OA
BRANCH  17  20
HETATM   20  C   UNL     1      44.203 -19.205   4.183  1.00  0.00     0.034 A 
HETATM   21  C   UNL     1      44.018 -19.584   2.851  1.00  0.00     0.032 A 
HETATM   22  C   UNL     1      44.234 -20.910   2.452  1.00  0.00     0.044 A 
HETATM   23  C   UNL     1      44.639 -21.858   3.381  1.00  0.00     0.116 A 
HETATM   24  C   UNL     1      44.837 -21.505   4.706  1.00  0.00     0.044 A 
HETATM   25  F   UNL     1      44.848 -23.120   2.990  1.00  0.00    -0.206 F 
HETATM   26  C   UNL     1      44.624 -20.182   5.103  1.00  0.00     0.032 A 
ENDBRANCH  17  20
ENDBRANCH  15  16
ENDBRANCH   1  15
TORSDOF 3
ENDMDL
MODEL 4
REMARK VINA RESULT:      -7.7      3.661      4.949
REMARK  3 active torsions:
REMARK  status: ('A' for Active; 'I' for Inactive)
REMARK    1  A    between atoms: C_2  and  N_3 
REMARK       I    between atoms: N_3  and  C_4 
REMARK    2  A    between atoms: C_4  and  C_5 
REMARK    3  A    between atoms: C_5  and  C_6 
ROOT
HETATM    1  C   UNL     1      40.540 -14.869   1.009  1.00  0.00     0.286 C 
HETATM    2  N   UNL     1      41.480 -14.231  -0.010  1.00  0.00    -0.056 N 
HETATM    3  H   UNL     1      41.560 -13.234   0.283  1.00  0.00     0.278 HD
HETATM    4  H   UNL     1      42.426 -14.623   0.058  1.00  0.00     0.278 HD
HETATM    5  C   UNL     1      40.978 -14.250  -1.426  1.00  0.00     0.209 C 
HETATM    6  C   UNL     1      39.561 -13.627  -1.477  1.00  0.00     0.115 C 
HETATM    7  N   UNL     1      38.660 -14.174  -0.463  1.00  0.00    -0.353 N 
HETATM    8  C   UNL     1      39.066 -14.458   0.821  1.00  0.00     0.249 C 
HETATM    9  O   UNL     1      38.248 -14.480   1.735  1.00  0.00    -0.271 OA
HETATM   10  C   UNL     1      41.035 -15.674  -1.984  1.00  0.00     0.035 C 
HETATM   11  C   UNL     1      40.443 -15.736  -3.390  1.00  0.00     0.002 C 
HETATM   12  C   UNL     1      39.020 -15.186  -3.418  1.00  0.00     0.002 C 
HETATM   13  C   UNL     1      38.957 -13.756  -2.880  1.00  0.00     0.027 C 
HETATM   14  H   UNL     1      37.684 -13.882  -0.496  1.00  0.00     0.163 HD
ENDROOT
BRANCH   1  15
HETATM   15  C   UNL     1      41.024 -14.610   2.443  1.00  0.00     0.146 C 
BRANCH  15  16
HETATM   16  C   UNL     1      42.478 -14.218   2.459  1.00  0.00     0.224 C 
HETATM   17  N   UNL     1      43.478 -15.122   2.621  1.00  0.00    -0.327 N 
HETATM   18  H   UNL     1      44.381 -14.662   2.707  1.00  0.00     0.169 HD
HETATM   19  O   UNL     1      42.767 -13.028   2.269  1.00  0.00    -0.273 OA
BRANCH  17  20
HETATM   20  C   UNL     1      43.526 -16.530   2.680  1.00  0.00     0.034 A 
HETATM   21  C   UNL     1      43.409 -17.302   3.838  1.00  0.00     0.032 A 
HETATM   22  C   UNL     1      43.442 -18.701   3.767  1.00  0.00     0.044 A 
HETATM   23  C   UNL     1      43.587 -19.331   2.540  1.00  0.00     0.116 A 
HETATM   24  C   UNL     1      43.697 -18.588   1.376  1.00  0.00     0.044 A 
HETATM   25  F   UNL     1      43.612 -20.667   2.482  1.00  0.00    -0.206 F 
HETATM   26  C   UNL     1      43.662 -17.193   1.447  1.00  0.00     0.032 A 
ENDBRANCH  17  20
ENDBRANCH  15  16
ENDBRANCH   1  15
TORSDOF 3
ENDMDL
MODEL 5
REMARK VINA RESULT:      -7.6      1.853      2.487
REMARK  3 active torsions:
REMARK  status: ('A' for Active; 'I' for Inactive)
REMARK    1  A    between atoms: C_2  and  N_3 
REMARK       I    between atoms: N_3  and  C_4 
REMARK    2  A    between atoms: C_4  and  C_5 
REMARK    3  A    between atoms: C_5  and  C_6 
ROOT
HETATM    1  C   UNL     1      41.434 -16.766   3.274  1.00  0.00     0.286 C 
HETATM    2  N   UNL     1      42.624 -16.700   2.321  1.00  0.00    -0.056 N 
HETATM    3  H   UNL     1      43.399 -16.289   2.883  1.00  0.00     0.278 HD
HETATM    4  H   UNL     1      42.938 -17.639   2.049  1.00  0.00     0.278 HD
HETATM    5  C   UNL     1      42.419 -15.822   1.119  1.00  0.00     0.209 C 
HETATM    6  C   UNL     1      41.971 -14.414   1.582  1.00  0.00     0.115 C 
HETATM    7  N   UNL     1      40.875 -14.453   2.550  1.00  0.00    -0.353 N 
HETATM    8  C   UNL     1      40.802 -15.388   3.557  1.00  0.00     0.249 C 
HETATM    9  O   UNL     1      40.166 -15.147   4.578  1.00  0.00    -0.271 OA
HETATM   10  C   UNL     1      41.437 -16.482   0.147  1.00  0.00     0.035 C 
HETATM   11  C   UNL     1      41.140 -15.568  -1.038  1.00  0.00     0.002 C 
HETATM   12  C   UNL     1      40.631 -14.205  -0.574  1.00  0.00     0.002 C 
HETATM   13  C   UNL     1      41.615 -13.530   0.382  1.00  0.00     0.027 C 
HETATM   14  H   UNL     1      40.463 -13.564   2.829  1.00  0.00     0.163 HD
ENDROOT
BRANCH   1  15
HETATM   15  C   UNL     1      41.807 -17.498   4.571  1.00  0.00     0.146 C 
BRANCH  15  16
HETATM   16  C   UNL     1      43.213 -17.166   4.993  1.00  0.00     0.224 C 
HETATM   17  N   UNL     1      44.224 -18.071   4.953  1.00  0.00    -0.327 N 
HETATM   18  H   UNL     1      45.073 -17.697   5.371  1.00  0.00     0.169 HD
HETATM   19  O   UNL     1      43.460 -16.003   5.345  1.00  0.00    -0.273 OA
BRANCH  17  20
HETATM   20  C   UNL     1      44.343 -19.385   4.455  1.00  0.00     0.034 A 
HETATM   21  C   UNL     1      44.296 -19.753   3.108  1.00  0.00     0.032 A 
HETATM   22  C   UNL     1      44.458 -21.093   2.731  1.00  0.00     0.044 A 
HETATM   23  C   UNL     1      44.672 -22.066   3.696  1.00  0.00     0.116 A 
HETATM   24  C   UNL     1      44.731 -21.724   5.037  1.00  0.00     0.044 A 
HETATM   25  F   UNL     1      44.830 -23.341   3.326  1.00  0.00    -0.206 F 
HETATM   26  C   UNL     1      44.572 -20.388   5.413  1.00  0.00     0.032 A 
ENDBRANCH  17  20
ENDBRANCH  15  16
ENDBRANCH   1  15
TORSDOF 3
ENDMDL
MODEL 6
REMARK VINA RESULT:      -7.6      2.497      3.492
REMARK  3 active torsions:
REMARK  status: ('A' for Active; 'I' for Inactive)
REMARK    1  A    between atoms: C_2  and  N_3 
REMARK       I    between atoms: N_3  and  C_4 
REMARK    2  A    between atoms: C_4  and  C_5 
REMARK    3  A    between atoms: C_5  and  C_6 
ROOT
HETATM    1  C   UNL     1      41.835 -16.235   0.662  1.00  0.00     0.286 C 
HETATM    2  N   UNL     1      41.963 -14.716   0.600  1.00  0.00    -0.056 N 
HETATM    3  H   UNL     1      42.374 -14.441   1.518  1.00  0.00     0.278 HD
HETATM    4  H   UNL     1      42.643 -14.426  -0.113  1.00  0.00     0.278 HD
HETATM    5  C   UNL     1      40.661 -13.981   0.448  1.00  0.00     0.209 C 
HETATM    6  C   UNL     1      39.683 -14.434   1.560  1.00  0.00     0.115 C 
HETATM    7  N   UNL     1      39.594 -15.889   1.684  1.00  0.00    -0.353 N 
HETATM    8  C   UNL     1      40.690 -16.715   1.576  1.00  0.00     0.249 C 
HETATM    9  O   UNL     1      40.683 -17.821   2.107  1.00  0.00    -0.271 OA
HETATM   10  C   UNL     1      40.108 -14.180  -0.965  1.00  0.00     0.035 C 
HETATM   11  C   UNL     1      38.740 -13.520  -1.117  1.00  0.00     0.002 C 
HETATM   12  C   UNL     1      37.760 -14.025  -0.061  1.00  0.00     0.002 C 
HETATM   13  C   UNL     1      38.296 -13.813   1.355  1.00  0.00     0.027 C 
HETATM   14  H   UNL     1      38.900 -16.263   2.329  1.00  0.00     0.163 HD
ENDROOT
BRANCH   1  15
HETATM   15  C   UNL     1      43.174 -16.886   1.038  1.00  0.00     0.146 C 
BRANCH  15  16
HETATM   16  C   UNL     1      43.519 -16.616   2.479  1.00  0.00     0.224 C 
HETATM   17  N   UNL     1      43.799 -17.608   3.363  1.00  0.00    -0.327 N 
HETATM   18  H   UNL     1      43.907 -17.242   4.307  1.00  0.00     0.169 HD
HETATM   19  O   UNL     1      43.597 -15.437   2.852  1.00  0.00    -0.273 OA
BRANCH  17  20
HETATM   20  C   UNL     1      43.978 -19.001   3.248  1.00  0.00     0.034 A 
HETATM   21  C   UNL     1      43.691 -19.769   2.117  1.00  0.00     0.032 A 
HETATM   22  C   UNL     1      43.941 -21.148   2.111  1.00  0.00     0.044 A 
HETATM   23  C   UNL     1      44.480 -21.761   3.232  1.00  0.00     0.116 A 
HETATM   24  C   UNL     1      44.781 -21.020   4.363  1.00  0.00     0.044 A 
HETATM   25  F   UNL     1      44.720 -23.077   3.216  1.00  0.00    -0.206 F 
HETATM   26  C   UNL     1      44.534 -19.644   4.368  1.00  0.00     0.032 A 
ENDBRANCH  17  20
ENDBRANCH  15  16
ENDBRANCH   1  15
TORSDOF 3
ENDMDL
MODEL 7
REMARK VINA RESULT:      -7.6      4.235      7.218
REMARK  3 active torsions:
REMARK  status: ('A' for Active; 'I' for Inactive)
REMARK    1  A    between atoms: C_2  and  N_3 
REMARK       I    between atoms: N_3  and  C_4 
REMARK    2  A    between atoms: C_4  and  C_5 
REMARK    3  A    between atoms: C_5  and  C_6 
ROOT
HETATM    1  C   UNL     1      40.114 -15.277   1.693  1.00  0.00     0.286 C 
HETATM    2  N   UNL     1      40.193 -16.677   1.093  1.00  0.00    -0.056 N 
HETATM    3  H   UNL     1      39.339 -17.168   1.437  1.00  0.00     0.278 HD
HETATM    4  H   UNL     1      40.111 -16.651   0.070  1.00  0.00     0.278 HD
HETATM    5  C   UNL     1      41.385 -17.482   1.528  1.00  0.00     0.209 C 
HETATM    6  C   UNL     1      41.447 -17.512   3.075  1.00  0.00     0.115 C 
HETATM    7  N   UNL     1      41.306 -16.186   3.678  1.00  0.00    -0.353 N 
HETATM    8  C   UNL     1      40.425 -15.241   3.203  1.00  0.00     0.249 C 
HETATM    9  O   UNL     1      40.006 -14.360   3.946  1.00  0.00    -0.271 OA
HETATM   10  C   UNL     1      42.656 -16.928   0.880  1.00  0.00     0.035 C 
HETATM   11  C   UNL     1      43.893 -17.670   1.378  1.00  0.00     0.002 C 
HETATM   12  C   UNL     1      43.986 -17.633   2.902  1.00  0.00     0.002 C 
HETATM   13  C   UNL     1      42.728 -18.202   3.558  1.00  0.00     0.027 C 
HETATM   14  H   UNL     1      41.431 -16.113   4.686  1.00  0.00     0.163 HD
ENDROOT
BRANCH   1  15
HETATM   15  C   UNL     1      38.765 -14.616   1.375  1.00  0.00     0.146 C 
BRANCH  15  16
HETATM   16  C   UNL     1      38.963 -13.267   0.735  1.00  0.00     0.224 C 
HETATM   17  N   UNL     1      39.229 -13.116  -0.588  1.00  0.00    -0.327 N 
HETATM   18  H   UNL     1      39.431 -12.145  -0.816  1.00  0.00     0.169 HD
HETATM   19  O   UNL     1      38.828 -12.258   1.441  1.00  0.00    -0.273 OA
BRANCH  17  20
HETATM   20  C   UNL     1      39.270 -13.999  -1.686  1.00  0.00     0.034 A 
HETATM   21  C   UNL     1      40.372 -14.762  -2.078  1.00  0.00     0.032 A 
HETATM   22  C   UNL     1      40.283 -15.631  -3.174  1.00  0.00     0.044 A 
HETATM   23  C   UNL     1      39.092 -15.744  -3.876  1.00  0.00     0.116 A 
HETATM   24  C   UNL     1      37.982 -15.004  -3.502  1.00  0.00     0.044 A 
HETATM   25  F   UNL     1      39.015 -16.580  -4.918  1.00  0.00    -0.206 F 
HETATM   26  C   UNL     1      38.071 -14.139  -2.408  1.00  0.00     0.032 A 
ENDBRANCH  17  20
ENDBRANCH  15  16
ENDBRANCH   1  15
TORSDOF 3
ENDMDL
MODEL 8
REMARK VINA RESULT:      -7.5      2.601      3.508
REMARK  3 active torsions:
REMARK  status: ('A' for Active; 'I' for Inactive)
REMARK    1  A    between atoms: C_2  and  N_3 
REMARK       I    between atoms: N_3  and  C_4 
REMARK    2  A    between atoms: C_4  and  C_5 
REMARK    3  A    between atoms: C_5  and  C_6 
ROOT
HETATM    1  C   UNL     1      41.314 -16.205   3.180  1.00  0.00     0.286 C 
HETATM    2  N   UNL     1      41.638 -16.388   4.660  1.00  0.00    -0.056 N 
HETATM    3  H   UNL     1      40.968 -17.112   4.997  1.00  0.00     0.278 HD
HETATM    4  H   UNL     1      42.576 -16.786   4.792  1.00  0.00     0.278 HD
HETATM    5  C   UNL     1      41.441 -15.160   5.503  1.00  0.00     0.209 C 
HETATM    6  C   UNL     1      40.008 -14.615   5.289  1.00  0.00     0.115 C 
HETATM    7  N   UNL     1      39.648 -14.494   3.875  1.00  0.00    -0.353 N 
HETATM    8  C   UNL     1      40.003 -15.433   2.933  1.00  0.00     0.249 C 
HETATM    9  O   UNL     1      39.346 -15.552   1.904  1.00  0.00    -0.271 OA
HETATM   10  C   UNL     1      42.534 -14.132   5.198  1.00  0.00     0.035 C 
HETATM   11  C   UNL     1      42.302 -12.838   5.973  1.00  0.00     0.002 C 
HETATM   12  C   UNL     1      40.912 -12.269   5.701  1.00  0.00     0.002 C 
HETATM   13  C   UNL     1      39.813 -13.282   6.021  1.00  0.00     0.027 C 
HETATM   14  H   UNL     1      38.757 -14.054   3.654  1.00  0.00     0.163 HD
ENDROOT
BRANCH   1  15
HETATM   15  C   UNL     1      41.329 -17.552   2.443  1.00  0.00     0.146 C 
BRANCH  15  16
HETATM   16  C   UNL     1      42.373 -17.561   1.357  1.00  0.00     0.224 C 
HETATM   17  N   UNL     1      43.435 -18.407   1.368  1.00  0.00    -0.327 N 
HETATM   18  H   UNL     1      44.082 -18.197   0.612  1.00  0.00     0.169 HD
HETATM   19  O   UNL     1      42.223 -16.795   0.394  1.00  0.00    -0.273 OA
BRANCH  17  20
HETATM   20  C   UNL     1      43.812 -19.495   2.181  1.00  0.00     0.034 A 
HETATM   21  C   UNL     1      43.810 -20.838   1.798  1.00  0.00     0.032 A 
HETATM   22  C   UNL     1      44.237 -21.832   2.688  1.00  0.00     0.044 A 
HETATM   23  C   UNL     1      44.671 -21.487   3.959  1.00  0.00     0.116 A 
HETATM   24  C   UNL     1      44.690 -20.162   4.360  1.00  0.00     0.044 A 
HETATM   25  F   UNL     1      45.082 -22.443   4.800  1.00  0.00    -0.206 F 
HETATM   26  C   UNL     1      44.266 -19.170   3.472  1.00  0.00     0.032 A 
ENDBRANCH  17  20
ENDBRANCH  15  16
ENDBRANCH   1  15
TORSDOF 3
ENDMDL
MODEL 9
REMARK VINA RESULT:      -7.4      2.698      6.048
REMARK  3 active torsions:
REMARK  status: ('A' for Active; 'I' for Inactive)
REMARK    1  A    between atoms: C_2  and  N_3 
REMARK       I    between atoms: N_3  and  C_4 
REMARK    2  A    between atoms: C_4  and  C_5 
REMARK    3  A    between atoms: C_5  and  C_6 
ROOT
HETATM    1  C   UNL     1      42.716 -18.218   6.186  1.00  0.00     0.286 C 
HETATM    2  N   UNL     1      44.237 -18.258   6.063  1.00  0.00    -0.056 N 
HETATM    3  H   UNL     1      44.515 -17.282   5.826  1.00  0.00     0.278 HD
HETATM    4  H   UNL     1      44.680 -18.467   6.966  1.00  0.00     0.278 HD
HETATM    5  C   UNL     1      44.757 -19.156   4.977  1.00  0.00     0.209 C 
HETATM    6  C   UNL     1      44.078 -18.784   3.635  1.00  0.00     0.115 C 
HETATM    7  N   UNL     1      42.623 -18.673   3.743  1.00  0.00    -0.353 N 
HETATM    8  C   UNL     1      41.997 -18.103   4.827  1.00  0.00     0.249 C 
HETATM    9  O   UNL     1      40.873 -17.626   4.710  1.00  0.00    -0.271 OA
HETATM   10  C   UNL     1      44.562 -20.623   5.369  1.00  0.00     0.035 C 
HETATM   11  C   UNL     1      44.997 -21.554   4.242  1.00  0.00     0.002 C 
HETATM   12  C   UNL     1      44.270 -21.228   2.939  1.00  0.00     0.002 C 
HETATM   13  C   UNL     1      44.475 -19.769   2.529  1.00  0.00     0.027 C 
HETATM   14  H   UNL     1      42.099 -18.525   2.882  1.00  0.00     0.163 HD
ENDROOT
BRANCH   1  15
HETATM   15  C   UNL     1      42.271 -17.119   7.161  1.00  0.00     0.146 C 
BRANCH  15  16
HETATM   16  C   UNL     1      43.199 -15.935   7.100  1.00  0.00     0.224 C 
HETATM   17  N   UNL     1      42.981 -14.875   6.280  1.00  0.00    -0.327 N 
HETATM   18  H   UNL     1      43.763 -14.224   6.302  1.00  0.00     0.169 HD
HETATM   19  O   UNL     1      44.172 -15.913   7.867  1.00  0.00    -0.273 OA
BRANCH  17  20
HETATM   20  C   UNL     1      41.919 -14.491   5.436  1.00  0.00     0.034 A 
HETATM   21  C   UNL     1      40.630 -14.148   5.852  1.00  0.00     0.032 A 
HETATM   22  C   UNL     1      39.664 -13.752   4.918  1.00  0.00     0.044 A 
HETATM   23  C   UNL     1      39.983 -13.694   3.569  1.00  0.00     0.116 A 
HETATM   24  C   UNL     1      41.256 -14.022   3.133  1.00  0.00     0.044 A 
HETATM   25  F   UNL     1      39.055 -13.310   2.685  1.00  0.00    -0.206 F 
HETATM   26  C   UNL     1      42.221 -14.414   4.065  1.00  0.00     0.032 A 
ENDBRANCH  17  20
ENDBRANCH  15  16
ENDBRANCH   1  15
TORSDOF 3
ENDMDL
MODEL 10
REMARK VINA RESULT:      -7.4      2.456      3.310
REMARK  3 active torsions:
REMARK  status: ('A' for Active; 'I' for Inactive)
REMARK    1  A    between atoms: C_2  and  N_3 
REMARK       I    between atoms: N_3  and  C_4 
REMARK    2  A    between atoms: C_4  and  C_5 
REMARK    3  A    between atoms: C_5  and  C_6 
ROOT
HETATM    1  C   UNL     1      41.748 -16.645   3.346  1.00  0.00     0.286 C 
HETATM    2  N   UNL     1      42.708 -15.606   2.776  1.00  0.00    -0.056 N 
HETATM    3  H   UNL     1      43.615 -16.108   2.665  1.00  0.00     0.278 HD
HETATM    4  H   UNL     1      42.428 -15.314   1.832  1.00  0.00     0.278 HD
HETATM    5  C   UNL     1      42.952 -14.420   3.666  1.00  0.00     0.209 C 
HETATM    6  C   UNL     1      43.396 -14.911   5.066  1.00  0.00     0.115 C 
HETATM    7  N   UNL     1      42.528 -15.958   5.606  1.00  0.00    -0.353 N 
HETATM    8  C   UNL     1      42.010 -16.970   4.830  1.00  0.00     0.249 C 
HETATM    9  O   UNL     1      41.683 -18.035   5.344  1.00  0.00    -0.271 OA
HETATM   10  C   UNL     1      41.710 -13.526   3.703  1.00  0.00     0.035 C 
HETATM   11  C   UNL     1      41.898 -12.364   4.673  1.00  0.00     0.002 C 
HETATM   12  C   UNL     1      42.266 -12.860   6.069  1.00  0.00     0.002 C 
HETATM   13  C   UNL     1      43.517 -13.738   6.045  1.00  0.00     0.027 C 
HETATM   14  H   UNL     1      42.700 -16.265   6.562  1.00  0.00     0.163 HD
ENDROOT
BRANCH   1  15
HETATM   15  C   UNL     1      41.730 -17.913   2.480  1.00  0.00     0.146 C 
BRANCH  15  16
HETATM   16  C   UNL     1      42.926 -17.959   1.567  1.00  0.00     0.224 C 
HETATM   17  N   UNL     1      43.981 -18.786   1.782  1.00  0.00    -0.327 N 
HETATM   18  H   UNL     1      44.734 -18.604   1.122  1.00  0.00     0.169 HD
HETATM   19  O   UNL     1      42.918 -17.244   0.553  1.00  0.00    -0.273 OA
BRANCH  17  20
HETATM   20  C   UNL     1      44.239 -19.826   2.698  1.00  0.00     0.034 A 
HETATM   21  C   UNL     1      44.218 -21.193   2.407  1.00  0.00     0.032 A 
HETATM   22  C   UNL     1      44.522 -22.136   3.397  1.00  0.00     0.044 A 
HETATM   23  C   UNL     1      44.853 -21.717   4.677  1.00  0.00     0.116 A 
HETATM   24  C   UNL     1      44.890 -20.367   4.989  1.00  0.00     0.044 A 
HETATM   25  F   UNL     1      45.148 -22.624   5.615  1.00  0.00    -0.206 F 
HETATM   26  C   UNL     1      44.588 -19.427   4.000  1.00  0.00     0.032 A 
ENDBRANCH  17  20
ENDBRANCH  15  16
ENDBRANCH   1  15
TORSDOF 3
ENDMDL
