MODEL 1
REMARK VINA RESULT:      -9.2      0.000      0.000
REMARK  5 active torsions:
REMARK  status: ('A' for Active; 'I' for Inactive)
REMARK    1  A    between atoms: C_2  and  C_3 
REMARK    2  A    between atoms: C_5  and  N_6 
REMARK       I    between atoms: N_6  and  C_7 
REMARK    3  A    between atoms: C_7  and  C_8 
REMARK    4  A    between atoms: C_16  and  C_17 
REMARK    5  A    between atoms: C_20  and  O_21 
ROOT
HETATM    1  C   UNL     1      42.023 -15.416   2.260  1.00  0.00     0.047 A 
HETATM    2  C   UNL     1      42.309 -14.721   3.455  1.00  0.00     0.008 A 
HETATM    3  C   UNL     1      43.112 -15.409   4.381  1.00  0.00     0.068 A 
HETATM    4  C   UNL     1      43.462 -14.779   5.567  1.00  0.00     0.032 A 
HETATM    5  C   UNL     1      43.018 -13.493   5.882  1.00  0.00     0.002 A 
HETATM    6  C   UNL     1      42.188 -12.819   4.999  1.00  0.00     0.001 A 
HETATM    7  C   UNL     1      41.829 -13.427   3.798  1.00  0.00     0.015 A 
HETATM    8  N   UNL     1      43.547 -16.665   4.184  1.00  0.00    -0.248 NA
HETATM    9  C   UNL     1      43.199 -17.347   3.065  1.00  0.00     0.068 A 
HETATM   10  C   UNL     1      42.444 -16.737   2.078  1.00  0.00     0.050 A 
ENDROOT
BRANCH   1  11
HETATM   11  C   UNL     1      41.257 -14.833   1.127  1.00  0.00     0.257 C 
HETATM   12  N   UNL     1      41.849 -14.971  -0.115  1.00  0.00    -0.323 N 
HETATM   13  H   UNL     1      42.758 -15.418  -0.147  1.00  0.00     0.169 HD
HETATM   14  O   UNL     1      40.164 -14.337   1.371  1.00  0.00    -0.267 OA
BRANCH  12  15
HETATM   15  C   UNL     1      41.327 -14.550  -1.357  1.00  0.00     0.035 A 
HETATM   16  C   UNL     1      40.280 -15.198  -2.020  1.00  0.00     0.044 A 
HETATM   17  C   UNL     1      39.821 -14.729  -3.259  1.00  0.00     0.011 A 
HETATM   18  C   UNL     1      40.402 -13.587  -3.824  1.00  0.00     0.015 A 
HETATM   19  C   UNL     1      41.445 -12.936  -3.170  1.00  0.00     0.003 A 
HETATM   20  C   UNL     1      41.913 -13.422  -1.947  1.00  0.00     0.029 A 
BRANCH  17  21
HETATM   21  C   UNL     1      38.731 -15.418  -4.011  1.00  0.00     0.155 C 
HETATM   22  C   UNL     1      37.300 -15.020  -3.754  1.00  0.00     0.096 C 
HETATM   23  O   UNL     1      39.010 -16.303  -4.818  1.00  0.00    -0.293 OA
ENDBRANCH  17  21
ENDBRANCH  12  15
ENDBRANCH   1  11
BRANCH   9  24
HETATM   24  C   UNL     1      43.633 -18.765   3.007  1.00  0.00    -0.007 A 
HETATM   25  C   UNL     1      44.318 -19.350   4.089  1.00  0.00     0.016 A 
HETATM   26  C   UNL     1      44.681 -20.703   4.088  1.00  0.00     0.037 A 
HETATM   27  C   UNL     1      44.361 -21.519   3.008  1.00  0.00     0.068 A 
HETATM   28  C   UNL     1      43.722 -20.960   1.906  1.00  0.00     0.037 A 
HETATM   29  C   UNL     1      43.367 -19.602   1.906  1.00  0.00     0.016 A 
BRANCH  27  30
HETATM   30  O   UNL     1      44.736 -22.827   3.133  1.00  0.00    -0.356 OA
HETATM   31  C   UNL     1      44.992 -23.280   4.457  1.00  0.00     0.210 C 
ENDBRANCH  27  30
ENDBRANCH   9  24
TORSDOF 5
ENDMDL
MODEL 2
REMARK VINA RESULT:      -9.2      3.681      7.782
REMARK  5 active torsions:
REMARK  status: ('A' for Active; 'I' for Inactive)
REMARK    1  A    between atoms: C_2  and  C_3 
REMARK    2  A    between atoms: C_5  and  N_6 
REMARK       I    between atoms: N_6  and  C_7 
REMARK    3  A    between atoms: C_7  and  C_8 
REMARK    4  A    between atoms: C_16  and  C_17 
REMARK    5  A    between atoms: C_20  and  O_21 
ROOT
HETATM    1  C   UNL     1      42.562 -15.027   4.072  1.00  0.00     0.047 A 
HETATM    2  C   UNL     1      41.353 -14.793   3.381  1.00  0.00     0.008 A 
HETATM    3  C   UNL     1      40.797 -15.909   2.733  1.00  0.00     0.068 A 
HETATM    4  C   UNL     1      39.592 -15.764   2.058  1.00  0.00     0.032 A 
HETATM    5  C   UNL     1      38.930 -14.537   1.979  1.00  0.00     0.002 A 
HETATM    6  C   UNL     1      39.490 -13.417   2.576  1.00  0.00     0.001 A 
HETATM    7  C   UNL     1      40.694 -13.538   3.266  1.00  0.00     0.015 A 
HETATM    8  N   UNL     1      41.386 -17.116   2.716  1.00  0.00    -0.248 NA
HETATM    9  C   UNL     1      42.585 -17.306   3.318  1.00  0.00     0.068 A 
HETATM   10  C   UNL     1      43.190 -16.276   4.017  1.00  0.00     0.050 A 
ENDROOT
BRANCH   1  11
HETATM   11  C   UNL     1      43.266 -13.999   4.882  1.00  0.00     0.257 C 
HETATM   12  N   UNL     1      43.912 -14.477   6.007  1.00  0.00    -0.323 N 
HETATM   13  H   UNL     1      43.824 -15.468   6.204  1.00  0.00     0.169 HD
HETATM   14  O   UNL     1      43.262 -12.846   4.469  1.00  0.00    -0.267 OA
BRANCH  12  15
HETATM   15  C   UNL     1      44.683 -13.733   6.925  1.00  0.00     0.035 A 
HETATM   16  C   UNL     1      44.213 -13.314   8.174  1.00  0.00     0.044 A 
HETATM   17  C   UNL     1      45.034 -12.565   9.030  1.00  0.00     0.011 A 
HETATM   18  C   UNL     1      46.343 -12.258   8.639  1.00  0.00     0.015 A 
HETATM   19  C   UNL     1      46.818 -12.673   7.397  1.00  0.00     0.003 A 
HETATM   20  C   UNL     1      45.988 -13.398   6.539  1.00  0.00     0.029 A 
BRANCH  17  21
HETATM   21  C   UNL     1      44.553 -12.070  10.353  1.00  0.00     0.155 C 
HETATM   22  C   UNL     1      44.349 -10.590  10.552  1.00  0.00     0.096 C 
HETATM   23  O   UNL     1      44.339 -12.870  11.263  1.00  0.00    -0.293 OA
ENDBRANCH  17  21
ENDBRANCH  12  15
ENDBRANCH   1  11
BRANCH   9  24
HETATM   24  C   UNL     1      43.200 -18.645   3.135  1.00  0.00    -0.007 A 
HETATM   25  C   UNL     1      43.987 -19.218   4.152  1.00  0.00     0.016 A 
HETATM   26  C   UNL     1      44.525 -20.505   4.031  1.00  0.00     0.037 A 
HETATM   27  C   UNL     1      44.284 -21.268   2.893  1.00  0.00     0.068 A 
HETATM   28  C   UNL     1      43.546 -20.713   1.853  1.00  0.00     0.037 A 
HETATM   29  C   UNL     1      43.015 -19.419   1.972  1.00  0.00     0.016 A 
BRANCH  27  30
HETATM   30  O   UNL     1      44.831 -22.520   2.902  1.00  0.00    -0.356 OA
HETATM   31  C   UNL     1      44.901 -23.163   4.170  1.00  0.00     0.210 C 
ENDBRANCH  27  30
ENDBRANCH   9  24
TORSDOF 5
ENDMDL
MODEL 3
REMARK VINA RESULT:      -8.9      2.272      8.351
REMARK  5 active torsions:
REMARK  status: ('A' for Active; 'I' for Inactive)
REMARK    1  A    between atoms: C_2  and  C_3 
REMARK    2  A    between atoms: C_5  and  N_6 
REMARK       I    between atoms: N_6  and  C_7 
REMARK    3  A    between atoms: C_7  and  C_8 
REMARK    4  A    between atoms: C_16  and  C_17 
REMARK    5  A    between atoms: C_20  and  O_21 
ROOT
HETATM    1  C   UNL     1      41.578 -15.545   2.072  1.00  0.00     0.047 A 
HETATM    2  C   UNL     1      40.931 -14.706   3.005  1.00  0.00     0.008 A 
HETATM    3  C   UNL     1      40.545 -13.444   2.520  1.00  0.00     0.068 A 
HETATM    4  C   UNL     1      39.874 -12.574   3.370  1.00  0.00     0.032 A 
HETATM    5  C   UNL     1      39.598 -12.902   4.699  1.00  0.00     0.002 A 
HETATM    6  C   UNL     1      40.013 -14.125   5.203  1.00  0.00     0.001 A 
HETATM    7  C   UNL     1      40.679 -15.019   4.368  1.00  0.00     0.015 A 
HETATM    8  N   UNL     1      40.809 -13.025   1.272  1.00  0.00    -0.248 NA
HETATM    9  C   UNL     1      41.500 -13.814   0.412  1.00  0.00     0.068 A 
HETATM   10  C   UNL     1      41.886 -15.089   0.786  1.00  0.00     0.050 A 
ENDROOT
BRANCH   1  11
HETATM   11  C   UNL     1      41.994 -16.942   2.365  1.00  0.00     0.257 C 
HETATM   12  N   UNL     1      43.125 -17.066   3.151  1.00  0.00    -0.323 N 
HETATM   13  H   UNL     1      43.591 -16.210   3.429  1.00  0.00     0.169 HD
HETATM   14  O   UNL     1      41.288 -17.849   1.941  1.00  0.00    -0.267 OA
BRANCH  12  15
HETATM   15  C   UNL     1      43.714 -18.264   3.611  1.00  0.00     0.035 A 
HETATM   16  C   UNL     1      43.758 -19.444   2.862  1.00  0.00     0.044 A 
HETATM   17  C   UNL     1      44.350 -20.602   3.390  1.00  0.00     0.011 A 
HETATM   18  C   UNL     1      44.921 -20.565   4.667  1.00  0.00     0.015 A 
HETATM   19  C   UNL     1      44.880 -19.393   5.419  1.00  0.00     0.003 A 
HETATM   20  C   UNL     1      44.269 -18.251   4.897  1.00  0.00     0.029 A 
BRANCH  17  21
HETATM   21  C   UNL     1      44.382 -21.888   2.632  1.00  0.00     0.155 C 
HETATM   22  C   UNL     1      43.973 -21.895   1.182  1.00  0.00     0.096 C 
HETATM   23  O   UNL     1      44.732 -22.921   3.200  1.00  0.00    -0.293 OA
ENDBRANCH  17  21
ENDBRANCH  12  15
ENDBRANCH   1  11
BRANCH   9  24
HETATM   24  C   UNL     1      41.841 -13.204  -0.898  1.00  0.00    -0.007 A 
HETATM   25  C   UNL     1      41.478 -13.841  -2.100  1.00  0.00     0.016 A 
HETATM   26  C   UNL     1      41.729 -13.257  -3.348  1.00  0.00     0.037 A 
HETATM   27  C   UNL     1      42.342 -12.011  -3.435  1.00  0.00     0.068 A 
HETATM   28  C   UNL     1      42.752 -11.377  -2.266  1.00  0.00     0.037 A 
HETATM   29  C   UNL     1      42.507 -11.969  -1.017  1.00  0.00     0.016 A 
BRANCH  27  30
HETATM   30  O   UNL     1      42.505 -11.527  -4.703  1.00  0.00    -0.356 OA
HETATM   31  C   UNL     1      42.526 -10.110  -4.833  1.00  0.00     0.210 C 
ENDBRANCH  27  30
ENDBRANCH   9  24
TORSDOF 5
ENDMDL
MODEL 4
REMARK VINA RESULT:      -8.9      1.697      8.050
REMARK  5 active torsions:
REMARK  status: ('A' for Active; 'I' for Inactive)
REMARK    1  A    between atoms: C_2  and  C_3 
REMARK    2  A    between atoms: C_5  and  N_6 
REMARK       I    between atoms: N_6  and  C_7 
REMARK    3  A    between atoms: C_7  and  C_8 
REMARK    4  A    between atoms: C_16  and  C_17 
REMARK    5  A    between atoms: C_20  and  O_21 
ROOT
HETATM    1  C   UNL     1      41.274 -15.463   3.268  1.00  0.00     0.047 A 
HETATM    2  C   UNL     1      41.408 -14.237   3.956  1.00  0.00     0.008 A 
HETATM    3  C   UNL     1      40.863 -13.115   3.308  1.00  0.00     0.068 A 
HETATM    4  C   UNL     1      40.929 -11.878   3.936  1.00  0.00     0.032 A 
HETATM    5  C   UNL     1      41.545 -11.710   5.179  1.00  0.00     0.002 A 
HETATM    6  C   UNL     1      42.126 -12.800   5.808  1.00  0.00     0.001 A 
HETATM    7  C   UNL     1      42.067 -14.053   5.202  1.00  0.00     0.015 A 
HETATM    8  N   UNL     1      40.294 -13.174   2.093  1.00  0.00    -0.248 NA
HETATM    9  C   UNL     1      40.242 -14.345   1.412  1.00  0.00     0.068 A 
HETATM   10  C   UNL     1      40.716 -15.511   1.986  1.00  0.00     0.050 A 
ENDROOT
BRANCH   1  11
HETATM   11  C   UNL     1      41.714 -16.773   3.818  1.00  0.00     0.257 C 
HETATM   12  N   UNL     1      42.958 -17.201   3.391  1.00  0.00    -0.323 N 
HETATM   13  H   UNL     1      43.445 -16.615   2.723  1.00  0.00     0.169 HD
HETATM   14  O   UNL     1      40.980 -17.329   4.625  1.00  0.00    -0.267 OA
BRANCH  12  15
HETATM   15  C   UNL     1      43.631 -18.378   3.782  1.00  0.00     0.035 A 
HETATM   16  C   UNL     1      43.680 -19.540   3.004  1.00  0.00     0.044 A 
HETATM   17  C   UNL     1      44.359 -20.678   3.464  1.00  0.00     0.011 A 
HETATM   18  C   UNL     1      45.013 -20.640   4.701  1.00  0.00     0.015 A 
HETATM   19  C   UNL     1      44.969 -19.487   5.481  1.00  0.00     0.003 A 
HETATM   20  C   UNL     1      44.272 -18.365   5.028  1.00  0.00     0.029 A 
BRANCH  17  21
HETATM   21  C   UNL     1      44.400 -21.945   2.676  1.00  0.00     0.155 C 
HETATM   22  C   UNL     1      44.017 -21.914   1.218  1.00  0.00     0.096 C 
HETATM   23  O   UNL     1      44.734 -22.994   3.224  1.00  0.00    -0.293 OA
ENDBRANCH  17  21
ENDBRANCH  12  15
ENDBRANCH   1  11
BRANCH   9  24
HETATM   24  C   UNL     1      39.702 -14.271   0.032  1.00  0.00    -0.007 A 
HETATM   25  C   UNL     1      40.486 -14.670  -1.068  1.00  0.00     0.016 A 
HETATM   26  C   UNL     1      39.979 -14.672  -2.373  1.00  0.00     0.037 A 
HETATM   27  C   UNL     1      38.666 -14.286  -2.622  1.00  0.00     0.068 A 
HETATM   28  C   UNL     1      37.879 -13.846  -1.562  1.00  0.00     0.037 A 
HETATM   29  C   UNL     1      38.393 -13.836  -0.255  1.00  0.00     0.016 A 
BRANCH  27  30
HETATM   30  O   UNL     1      38.272 -14.361  -3.928  1.00  0.00    -0.356 OA
HETATM   31  C   UNL     1      36.868 -14.387  -4.157  1.00  0.00     0.210 C 
ENDBRANCH  27  30
ENDBRANCH   9  24
TORSDOF 5
ENDMDL
MODEL 5
REMARK VINA RESULT:      -8.9      1.555      1.695
REMARK  5 active torsions:
REMARK  status: ('A' for Active; 'I' for Inactive)
REMARK    1  A    between atoms: C_2  and  C_3 
REMARK    2  A    between atoms: C_5  and  N_6 
REMARK       I    between atoms: N_6  and  C_7 
REMARK    3  A    between atoms: C_7  and  C_8 
REMARK    4  A    between atoms: C_16  and  C_17 
REMARK    5  A    between atoms: C_20  and  O_21 
ROOT
HETATM    1  C   UNL     1      40.785 -15.206   2.510  1.00  0.00     0.047 A 
HETATM    2  C   UNL     1      41.205 -14.355   3.554  1.00  0.00     0.008 A 
HETATM    3  C   UNL     1      42.301 -14.812   4.306  1.00  0.00     0.068 A 
HETATM    4  C   UNL     1      42.793 -14.015   5.332  1.00  0.00     0.032 A 
HETATM    5  C   UNL     1      42.214 -12.787   5.658  1.00  0.00     0.002 A 
HETATM    6  C   UNL     1      41.104 -12.344   4.954  1.00  0.00     0.001 A 
HETATM    7  C   UNL     1      40.598 -13.122   3.915  1.00  0.00     0.015 A 
HETATM    8  N   UNL     1      42.892 -16.000   4.095  1.00  0.00    -0.248 NA
HETATM    9  C   UNL     1      42.427 -16.840   3.138  1.00  0.00     0.068 A 
HETATM   10  C   UNL     1      41.378 -16.459   2.320  1.00  0.00     0.050 A 
ENDROOT
BRANCH   1  11
HETATM   11  C   UNL     1      39.696 -14.869   1.554  1.00  0.00     0.257 C 
HETATM   12  N   UNL     1      40.102 -14.205   0.411  1.00  0.00    -0.323 N 
HETATM   13  H   UNL     1      41.086 -13.974   0.336  1.00  0.00     0.169 HD
HETATM   14  O   UNL     1      38.563 -15.245   1.825  1.00  0.00    -0.267 OA
BRANCH  12  15
HETATM   15  C   UNL     1      39.291 -13.803  -0.671  1.00  0.00     0.035 A 
HETATM   16  C   UNL     1      38.938 -14.644  -1.732  1.00  0.00     0.044 A 
HETATM   17  C   UNL     1      38.138 -14.171  -2.781  1.00  0.00     0.011 A 
HETATM   18  C   UNL     1      37.668 -12.853  -2.753  1.00  0.00     0.015 A 
HETATM   19  C   UNL     1      38.015 -12.009  -1.700  1.00  0.00     0.003 A 
HETATM   20  C   UNL     1      38.832 -12.479  -0.670  1.00  0.00     0.029 A 
BRANCH  17  21
HETATM   21  C   UNL     1      37.772 -15.031  -3.946  1.00  0.00     0.155 C 
HETATM   22  C   UNL     1      38.759 -16.060  -4.434  1.00  0.00     0.096 C 
HETATM   23  O   UNL     1      36.682 -14.883  -4.496  1.00  0.00    -0.293 OA
ENDBRANCH  17  21
ENDBRANCH  12  15
ENDBRANCH   1  11
BRANCH   9  24
HETATM   24  C   UNL     1      43.076 -18.174   3.072  1.00  0.00    -0.007 A 
HETATM   25  C   UNL     1      43.817 -18.665   4.164  1.00  0.00     0.016 A 
HETATM   26  C   UNL     1      44.385 -19.945   4.154  1.00  0.00     0.037 A 
HETATM   27  C   UNL     1      44.220 -20.782   3.055  1.00  0.00     0.068 A 
HETATM   28  C   UNL     1      43.529 -20.309   1.944  1.00  0.00     0.037 A 
HETATM   29  C   UNL     1      42.969 -19.022   1.954  1.00  0.00     0.016 A 
BRANCH  27  30
HETATM   30  O   UNL     1      44.789 -22.019   3.172  1.00  0.00    -0.356 OA
HETATM   31  C   UNL     1      44.790 -22.586   4.477  1.00  0.00     0.210 C 
ENDBRANCH  27  30
ENDBRANCH   9  24
TORSDOF 5
ENDMDL
MODEL 6
REMARK VINA RESULT:      -8.8      1.760      8.437
REMARK  5 active torsions:
REMARK  status: ('A' for Active; 'I' for Inactive)
REMARK    1  A    between atoms: C_2  and  C_3 
REMARK    2  A    between atoms: C_5  and  N_6 
REMARK       I    between atoms: N_6  and  C_7 
REMARK    3  A    between atoms: C_7  and  C_8 
REMARK    4  A    between atoms: C_16  and  C_17 
REMARK    5  A    between atoms: C_20  and  O_21 
ROOT
HETATM    1  C   UNL     1      42.614 -15.876   1.683  1.00  0.00     0.047 A 
HETATM    2  C   UNL     1      42.618 -14.838   2.639  1.00  0.00     0.008 A 
HETATM    3  C   UNL     1      41.704 -13.795   2.407  1.00  0.00     0.068 A 
HETATM    4  C   UNL     1      41.627 -12.752   3.321  1.00  0.00     0.032 A 
HETATM    5  C   UNL     1      42.449 -12.693   4.448  1.00  0.00     0.002 A 
HETATM    6  C   UNL     1      43.386 -13.691   4.666  1.00  0.00     0.001 A 
HETATM    7  C   UNL     1      43.477 -14.753   3.768  1.00  0.00     0.015 A 
HETATM    8  N   UNL     1      40.907 -13.745   1.327  1.00  0.00    -0.248 NA
HETATM    9  C   UNL     1      40.971 -14.711   0.378  1.00  0.00     0.068 A 
HETATM   10  C   UNL     1      41.811 -15.798   0.540  1.00  0.00     0.050 A 
ENDROOT
BRANCH   1  11
HETATM   11  C   UNL     1      43.448 -17.102   1.789  1.00  0.00     0.257 C 
HETATM   12  N   UNL     1      42.843 -18.173   2.421  1.00  0.00    -0.323 N 
HETATM   13  H   UNL     1      41.909 -18.026   2.787  1.00  0.00     0.169 HD
HETATM   14  O   UNL     1      44.559 -17.084   1.272  1.00  0.00    -0.267 OA
BRANCH  12  15
HETATM   15  C   UNL     1      43.387 -19.459   2.622  1.00  0.00     0.035 A 
HETATM   16  C   UNL     1      43.776 -19.951   3.872  1.00  0.00     0.044 A 
HETATM   17  C   UNL     1      44.321 -21.238   3.994  1.00  0.00     0.011 A 
HETATM   18  C   UNL     1      44.453 -22.043   2.857  1.00  0.00     0.015 A 
HETATM   19  C   UNL     1      44.067 -21.560   1.608  1.00  0.00     0.003 A 
HETATM   20  C   UNL     1      43.547 -20.270   1.491  1.00  0.00     0.029 A 
BRANCH  17  21
HETATM   21  C   UNL     1      44.781 -21.780   5.307  1.00  0.00     0.155 C 
HETATM   22  C   UNL     1      44.159 -21.254   6.575  1.00  0.00     0.096 C 
HETATM   23  O   UNL     1      45.662 -22.638   5.338  1.00  0.00    -0.293 OA
ENDBRANCH  17  21
ENDBRANCH  12  15
ENDBRANCH   1  11
BRANCH   9  24
HETATM   24  C   UNL     1      40.135 -14.492  -0.829  1.00  0.00    -0.007 A 
HETATM   25  C   UNL     1      38.826 -13.987  -0.712  1.00  0.00     0.016 A 
HETATM   26  C   UNL     1      38.039 -13.710  -1.838  1.00  0.00     0.037 A 
HETATM   27  C   UNL     1      38.540 -13.919  -3.119  1.00  0.00     0.068 A 
HETATM   28  C   UNL     1      39.814 -14.458  -3.265  1.00  0.00     0.037 A 
HETATM   29  C   UNL     1      40.597 -14.743  -2.136  1.00  0.00     0.016 A 
BRANCH  27  30
HETATM   30  O   UNL     1      37.695 -13.582  -4.139  1.00  0.00    -0.356 OA
HETATM   31  C   UNL     1      36.576 -14.439  -4.333  1.00  0.00     0.210 C 
ENDBRANCH  27  30
ENDBRANCH   9  24
TORSDOF 5
ENDMDL
MODEL 7
REMARK VINA RESULT:      -8.8      2.494      8.594
REMARK  5 active torsions:
REMARK  status: ('A' for Active; 'I' for Inactive)
REMARK    1  A    between atoms: C_2  and  C_3 
REMARK    2  A    between atoms: C_5  and  N_6 
REMARK       I    between atoms: N_6  and  C_7 
REMARK    3  A    between atoms: C_7  and  C_8 
REMARK    4  A    between atoms: C_16  and  C_17 
REMARK    5  A    between atoms: C_20  and  O_21 
ROOT
HETATM    1  C   UNL     1      42.033 -15.330   2.152  1.00  0.00     0.047 A 
HETATM    2  C   UNL     1      41.425 -15.102   0.898  1.00  0.00     0.008 A 
HETATM    3  C   UNL     1      40.537 -14.014   0.843  1.00  0.00     0.068 A 
HETATM    4  C   UNL     1      39.924 -13.707  -0.364  1.00  0.00     0.032 A 
HETATM    5  C   UNL     1      40.140 -14.463  -1.519  1.00  0.00     0.002 A 
HETATM    6  C   UNL     1      40.978 -15.566  -1.468  1.00  0.00     0.001 A 
HETATM    7  C   UNL     1      41.612 -15.889  -0.270  1.00  0.00     0.015 A 
HETATM    8  N   UNL     1      40.234 -13.259   1.912  1.00  0.00    -0.248 NA
HETATM    9  C   UNL     1      40.766 -13.539   3.127  1.00  0.00     0.068 A 
HETATM   10  C   UNL     1      41.682 -14.566   3.270  1.00  0.00     0.050 A 
ENDROOT
BRANCH   1  11
HETATM   11  C   UNL     1      43.057 -16.379   2.397  1.00  0.00     0.257 C 
HETATM   12  N   UNL     1      42.704 -17.340   3.326  1.00  0.00    -0.323 N 
HETATM   13  H   UNL     1      41.806 -17.232   3.784  1.00  0.00     0.169 HD
HETATM   14  O   UNL     1      44.086 -16.340   1.733  1.00  0.00    -0.267 OA
BRANCH  12  15
HETATM   15  C   UNL     1      43.464 -18.463   3.719  1.00  0.00     0.035 A 
HETATM   16  C   UNL     1      43.558 -19.638   2.966  1.00  0.00     0.044 A 
HETATM   17  C   UNL     1      44.323 -20.720   3.426  1.00  0.00     0.011 A 
HETATM   18  C   UNL     1      45.016 -20.611   4.637  1.00  0.00     0.015 A 
HETATM   19  C   UNL     1      44.927 -19.444   5.393  1.00  0.00     0.003 A 
HETATM   20  C   UNL     1      44.145 -18.379   4.940  1.00  0.00     0.029 A 
BRANCH  17  21
HETATM   21  C   UNL     1      44.416 -22.001   2.666  1.00  0.00     0.155 C 
HETATM   22  C   UNL     1      44.040 -22.017   1.207  1.00  0.00     0.096 C 
HETATM   23  O   UNL     1      44.787 -23.025   3.239  1.00  0.00    -0.293 OA
ENDBRANCH  17  21
ENDBRANCH  12  15
ENDBRANCH   1  11
BRANCH   9  24
HETATM   24  C   UNL     1      40.269 -12.719   4.260  1.00  0.00    -0.007 A 
HETATM   25  C   UNL     1      39.897 -13.326   5.475  1.00  0.00     0.016 A 
HETATM   26  C   UNL     1      39.486 -12.570   6.580  1.00  0.00     0.037 A 
HETATM   27  C   UNL     1      39.447 -11.182   6.512  1.00  0.00     0.068 A 
HETATM   28  C   UNL     1      39.768 -10.555   5.312  1.00  0.00     0.037 A 
HETATM   29  C   UNL     1      40.170 -11.315   4.202  1.00  0.00     0.016 A 
BRANCH  27  30
HETATM   30  O   UNL     1      39.064 -10.550   7.662  1.00  0.00    -0.356 OA
HETATM   31  C   UNL     1      39.277 -11.271   8.871  1.00  0.00     0.210 C 
ENDBRANCH  27  30
ENDBRANCH   9  24
TORSDOF 5
ENDMDL
MODEL 8
REMARK VINA RESULT:      -8.8      3.425      9.327
REMARK  5 active torsions:
REMARK  status: ('A' for Active; 'I' for Inactive)
REMARK    1  A    between atoms: C_2  and  C_3 
REMARK    2  A    between atoms: C_5  and  N_6 
REMARK       I    between atoms: N_6  and  C_7 
REMARK    3  A    between atoms: C_7  and  C_8 
REMARK    4  A    between atoms: C_16  and  C_17 
REMARK    5  A    between atoms: C_20  and  O_21 
ROOT
HETATM    1  C   UNL     1      43.428 -16.189   5.300  1.00  0.00     0.047 A 
HETATM    2  C   UNL     1      43.815 -17.509   4.986  1.00  0.00     0.008 A 
HETATM    3  C   UNL     1      43.361 -17.997   3.749  1.00  0.00     0.068 A 
HETATM    4  C   UNL     1      43.727 -19.278   3.355  1.00  0.00     0.032 A 
HETATM    5  C   UNL     1      44.507 -20.107   4.164  1.00  0.00     0.002 A 
HETATM    6  C   UNL     1      44.924 -19.655   5.407  1.00  0.00     0.001 A 
HETATM    7  C   UNL     1      44.578 -18.371   5.821  1.00  0.00     0.015 A 
HETATM    8  N   UNL     1      42.569 -17.289   2.927  1.00  0.00    -0.248 NA
HETATM    9  C   UNL     1      42.143 -16.051   3.278  1.00  0.00     0.068 A 
HETATM   10  C   UNL     1      42.570 -15.471   4.459  1.00  0.00     0.050 A 
ENDROOT
BRANCH   1  11
HETATM   11  C   UNL     1      43.868 -15.465   6.523  1.00  0.00     0.257 C 
HETATM   12  N   UNL     1      44.377 -14.198   6.305  1.00  0.00    -0.323 N 
HETATM   13  H   UNL     1      44.441 -13.884   5.343  1.00  0.00     0.169 HD
HETATM   14  O   UNL     1      43.700 -16.016   7.604  1.00  0.00    -0.267 OA
BRANCH  12  15
HETATM   15  C   UNL     1      44.827 -13.283   7.281  1.00  0.00     0.035 A 
HETATM   16  C   UNL     1      43.987 -12.669   8.216  1.00  0.00     0.044 A 
HETATM   17  C   UNL     1      44.505 -11.759   9.149  1.00  0.00     0.011 A 
HETATM   18  C   UNL     1      45.877 -11.485   9.160  1.00  0.00     0.015 A 
HETATM   19  C   UNL     1      46.720 -12.093   8.232  1.00  0.00     0.003 A 
HETATM   20  C   UNL     1      46.195 -12.980   7.290  1.00  0.00     0.029 A 
BRANCH  17  21
HETATM   21  C   UNL     1      43.632 -11.058  10.137  1.00  0.00     0.155 C 
HETATM   22  C   UNL     1      44.245 -10.523  11.406  1.00  0.00     0.096 C 
HETATM   23  O   UNL     1      42.430 -10.935   9.910  1.00  0.00    -0.293 OA
ENDBRANCH  17  21
ENDBRANCH  12  15
ENDBRANCH   1  11
BRANCH   9  24
HETATM   24  C   UNL     1      41.175 -15.409   2.352  1.00  0.00    -0.007 A 
HETATM   25  C   UNL     1      41.533 -15.139   1.017  1.00  0.00     0.016 A 
HETATM   26  C   UNL     1      40.619 -14.595   0.106  1.00  0.00     0.037 A 
HETATM   27  C   UNL     1      39.314 -14.313   0.496  1.00  0.00     0.068 A 
HETATM   28  C   UNL     1      38.943 -14.530   1.820  1.00  0.00     0.037 A 
HETATM   29  C   UNL     1      39.864 -15.067   2.734  1.00  0.00     0.016 A 
BRANCH  27  30
HETATM   30  O   UNL     1      38.504 -13.817  -0.486  1.00  0.00    -0.356 OA
HETATM   31  C   UNL     1      38.989 -13.941  -1.818  1.00  0.00     0.210 C 
ENDBRANCH  27  30
ENDBRANCH   9  24
TORSDOF 5
ENDMDL
MODEL 9
REMARK VINA RESULT:      -8.7      2.315      5.551
REMARK  5 active torsions:
REMARK  status: ('A' for Active; 'I' for Inactive)
REMARK    1  A    between atoms: C_2  and  C_3 
REMARK    2  A    between atoms: C_5  and  N_6 
REMARK       I    between atoms: N_6  and  C_7 
REMARK    3  A    between atoms: C_7  and  C_8 
REMARK    4  A    between atoms: C_16  and  C_17 
REMARK    5  A    between atoms: C_20  and  O_21 
ROOT
HETATM    1  C   UNL     1      42.285 -17.222   2.525  1.00  0.00     0.047 A 
HETATM    2  C   UNL     1      43.025 -18.410   2.704  1.00  0.00     0.008 A 
HETATM    3  C   UNL     1      43.766 -18.491   3.896  1.00  0.00     0.068 A 
HETATM    4  C   UNL     1      44.495 -19.643   4.158  1.00  0.00     0.032 A 
HETATM    5  C   UNL     1      44.538 -20.713   3.261  1.00  0.00     0.002 A 
HETATM    6  C   UNL     1      43.849 -20.628   2.060  1.00  0.00     0.001 A 
HETATM    7  C   UNL     1      43.103 -19.486   1.778  1.00  0.00     0.015 A 
HETATM    8  N   UNL     1      43.820 -17.494   4.795  1.00  0.00    -0.248 NA
HETATM    9  C   UNL     1      43.166 -16.328   4.571  1.00  0.00     0.068 A 
HETATM   10  C   UNL     1      42.378 -16.171   3.444  1.00  0.00     0.050 A 
ENDROOT
BRANCH   1  11
HETATM   11  C   UNL     1      41.380 -16.975   1.371  1.00  0.00     0.257 C 
HETATM   12  N   UNL     1      41.606 -15.794   0.688  1.00  0.00    -0.323 N 
HETATM   13  H   UNL     1      42.334 -15.186   1.045  1.00  0.00     0.169 HD
HETATM   14  O   UNL     1      40.561 -17.842   1.092  1.00  0.00    -0.267 OA
BRANCH  12  15
HETATM   15  C   UNL     1      40.926 -15.332  -0.459  1.00  0.00     0.035 A 
HETATM   16  C   UNL     1      39.904 -14.378  -0.425  1.00  0.00     0.044 A 
HETATM   17  C   UNL     1      39.264 -13.976  -1.606  1.00  0.00     0.011 A 
HETATM   18  C   UNL     1      39.670 -14.518  -2.831  1.00  0.00     0.015 A 
HETATM   19  C   UNL     1      40.687 -15.469  -2.873  1.00  0.00     0.003 A 
HETATM   20  C   UNL     1      41.304 -15.882  -1.691  1.00  0.00     0.029 A 
BRANCH  17  21
HETATM   21  C   UNL     1      38.146 -12.987  -1.602  1.00  0.00     0.155 C 
HETATM   22  C   UNL     1      37.588 -12.506  -2.917  1.00  0.00     0.096 C 
HETATM   23  O   UNL     1      37.702 -12.572  -0.532  1.00  0.00    -0.293 OA
ENDBRANCH  17  21
ENDBRANCH  12  15
ENDBRANCH   1  11
BRANCH   9  24
HETATM   24  C   UNL     1      43.393 -15.253   5.569  1.00  0.00    -0.007 A 
HETATM   25  C   UNL     1      44.400 -15.383   6.545  1.00  0.00     0.016 A 
HETATM   26  C   UNL     1      44.679 -14.357   7.457  1.00  0.00     0.037 A 
HETATM   27  C   UNL     1      43.968 -13.162   7.416  1.00  0.00     0.068 A 
HETATM   28  C   UNL     1      42.938 -13.021   6.490  1.00  0.00     0.037 A 
HETATM   29  C   UNL     1      42.655 -14.054   5.584  1.00  0.00     0.016 A 
BRANCH  27  30
HETATM   30  O   UNL     1      44.350 -12.222   8.331  1.00  0.00    -0.356 OA
HETATM   31  C   UNL     1      45.684 -12.328   8.816  1.00  0.00     0.210 C 
ENDBRANCH  27  30
ENDBRANCH   9  24
TORSDOF 5
ENDMDL
MODEL 10
REMARK VINA RESULT:      -8.7      1.902      2.816
REMARK  5 active torsions:
REMARK  status: ('A' for Active; 'I' for Inactive)
REMARK    1  A    between atoms: C_2  and  C_3 
REMARK    2  A    between atoms: C_5  and  N_6 
REMARK       I    between atoms: N_6  and  C_7 
REMARK    3  A    between atoms: C_7  and  C_8 
REMARK    4  A    between atoms: C_16  and  C_17 
REMARK    5  A    between atoms: C_20  and  O_21 
ROOT
HETATM    1  C   UNL     1      41.151 -15.167   2.132  1.00  0.00     0.047 A 
HETATM    2  C   UNL     1      40.784 -14.628   3.384  1.00  0.00     0.008 A 
HETATM    3  C   UNL     1      41.293 -15.300   4.508  1.00  0.00     0.068 A 
HETATM    4  C   UNL     1      41.000 -14.811   5.774  1.00  0.00     0.032 A 
HETATM    5  C   UNL     1      40.192 -13.688   5.966  1.00  0.00     0.002 A 
HETATM    6  C   UNL     1      39.647 -13.041   4.868  1.00  0.00     0.001 A 
HETATM    7  C   UNL     1      39.932 -13.507   3.587  1.00  0.00     0.015 A 
HETATM    8  N   UNL     1      42.039 -16.414   4.421  1.00  0.00    -0.248 NA
HETATM    9  C   UNL     1      42.318 -16.964   3.214  1.00  0.00     0.068 A 
HETATM   10  C   UNL     1      41.894 -16.349   2.049  1.00  0.00     0.050 A 
ENDROOT
BRANCH   1  11
HETATM   11  C   UNL     1      40.781 -14.558   0.827  1.00  0.00     0.257 C 
HETATM   12  N   UNL     1      41.844 -14.130   0.055  1.00  0.00    -0.323 N 
HETATM   13  H   UNL     1      42.773 -14.231   0.450  1.00  0.00     0.169 HD
HETATM   14  O   UNL     1      39.594 -14.534   0.525  1.00  0.00    -0.267 OA
BRANCH  12  15
HETATM   15  C   UNL     1      41.783 -13.556  -1.233  1.00  0.00     0.035 A 
HETATM   16  C   UNL     1      42.251 -12.273  -1.535  1.00  0.00     0.044 A 
HETATM   17  C   UNL     1      42.145 -11.763  -2.837  1.00  0.00     0.011 A 
HETATM   18  C   UNL     1      41.589 -12.557  -3.847  1.00  0.00     0.015 A 
HETATM   19  C   UNL     1      41.121 -13.836  -3.554  1.00  0.00     0.003 A 
HETATM   20  C   UNL     1      41.208 -14.329  -2.250  1.00  0.00     0.029 A 
BRANCH  17  21
HETATM   21  C   UNL     1      42.601 -10.385  -3.186  1.00  0.00     0.155 C 
HETATM   22  C   UNL     1      42.545  -9.938  -4.624  1.00  0.00     0.096 C 
HETATM   23  O   UNL     1      43.022  -9.640  -2.303  1.00  0.00    -0.293 OA
ENDBRANCH  17  21
ENDBRANCH  12  15
ENDBRANCH   1  11
BRANCH   9  24
HETATM   24  C   UNL     1      43.046 -18.257   3.241  1.00  0.00    -0.007 A 
HETATM   25  C   UNL     1      43.682 -18.697   4.418  1.00  0.00     0.016 A 
HETATM   26  C   UNL     1      44.319 -19.942   4.490  1.00  0.00     0.037 A 
HETATM   27  C   UNL     1      44.332 -20.794   3.391  1.00  0.00     0.068 A 
HETATM   28  C   UNL     1      43.749 -20.370   2.201  1.00  0.00     0.037 A 
HETATM   29  C   UNL     1      43.119 -19.117   2.129  1.00  0.00     0.016 A 
BRANCH  27  30
HETATM   30  O   UNL     1      44.953 -21.995   3.589  1.00  0.00    -0.356 OA
HETATM   31  C   UNL     1      45.108 -22.402   4.944  1.00  0.00     0.210 C 
ENDBRANCH  27  30
ENDBRANCH   9  24
TORSDOF 5
ENDMDL
