MODEL 1
REMARK VINA RESULT:      -7.5      0.000      0.000
REMARK  5 active torsions:
REMARK  status: ('A' for Active; 'I' for Inactive)
REMARK    1  A    between atoms: C_9  and  C_10 
REMARK    2  A    between atoms: C_10  and  N_11 
REMARK    3  A    between atoms: N_11  and  C_14 
REMARK    4  A    between atoms: C_14  and  C_15 
REMARK    5  A    between atoms: C_16  and  C_17 
ROOT
HETATM    1  C   UNL     1      43.607 -16.557   3.150  1.00  0.00    -0.036 A 
HETATM    2  C   UNL     1      43.141 -17.524   4.049  1.00  0.00     0.013 A 
HETATM    3  C   UNL     1      43.198 -18.882   3.719  1.00  0.00     0.023 A 
HETATM    4  C   UNL     1      43.719 -19.285   2.485  1.00  0.00     0.044 A 
HETATM    5  C   UNL     1      43.785 -20.677   2.149  1.00  0.00     0.099 C 
HETATM    6  N   UNL     1      43.845 -21.804   1.878  1.00  0.00    -0.191 NA
HETATM    7  C   UNL     1      44.176 -18.321   1.582  1.00  0.00     0.023 A 
HETATM    8  C   UNL     1      44.114 -16.962   1.910  1.00  0.00     0.013 A 
ENDROOT
BRANCH   1   9
HETATM    9  C   UNL     1      43.551 -15.128   3.472  1.00  0.00     0.009 C 
HETATM   10  C   UNL     1      42.684 -14.641   4.375  1.00  0.00     0.001 C 
BRANCH  10  11
HETATM   11  C   UNL     1      42.575 -13.201   4.741  1.00  0.00     0.259 C 
BRANCH  11  12
HETATM   12  N   UNL     1      42.182 -12.393   3.554  1.00  0.00    -0.071 N 
HETATM   13  H   UNL     1      42.866 -12.577   2.806  1.00  0.00     0.277 HD
HETATM   14  H   UNL     1      42.298 -11.401   3.793  1.00  0.00     0.277 HD
BRANCH  12  15
HETATM   15  C   UNL     1      40.789 -12.656   3.057  1.00  0.00     0.242 C 
BRANCH  15  16
HETATM   16  C   UNL     1      40.779 -13.135   1.589  1.00  0.00     0.055 C 
HETATM   17  C   UNL     1      40.779 -14.644   1.401  1.00  0.00    -0.025 A 
HETATM   18  C   UNL     1      40.139 -15.522   2.291  1.00  0.00     0.010 A 
HETATM   19  C   UNL     1      41.321 -15.177   0.220  1.00  0.00     0.041 A 
HETATM   20  C   UNL     1      40.105 -16.896   2.035  1.00  0.00     0.001 A 
HETATM   21  C   UNL     1      40.679 -17.408   0.876  1.00  0.00     0.002 A 
HETATM   22  C   UNL     1      41.274 -16.547  -0.042  1.00  0.00     0.030 A 
HETATM   23  N   UNL     1      41.867 -14.331  -0.748  1.00  0.00    -0.327 N 
HETATM   24  C   UNL     1      42.071 -12.993  -0.584  1.00  0.00     0.222 C 
HETATM   25  H   UNL     1      42.096 -14.697  -1.667  1.00  0.00     0.169 HD
HETATM   26  O   UNL     1      42.472 -12.280  -1.497  1.00  0.00    -0.273 OA
HETATM   27  C   UNL     1      41.931 -12.477   0.824  1.00  0.00     0.114 C 
ENDBRANCH  15  16
ENDBRANCH  12  15
ENDBRANCH  11  12
ENDBRANCH  10  11
ENDBRANCH   1   9
TORSDOF 5
ENDMDL
MODEL 2
REMARK VINA RESULT:      -7.1      1.366      1.680
REMARK  5 active torsions:
REMARK  status: ('A' for Active; 'I' for Inactive)
REMARK    1  A    between atoms: C_9  and  C_10 
REMARK    2  A    between atoms: C_10  and  N_11 
REMARK    3  A    between atoms: N_11  and  C_14 
REMARK    4  A    between atoms: C_14  and  C_15 
REMARK    5  A    between atoms: C_16  and  C_17 
ROOT
HETATM    1  C   UNL     1      44.035 -18.002   4.799  1.00  0.00    -0.036 A 
HETATM    2  C   UNL     1      44.335 -19.258   5.340  1.00  0.00     0.013 A 
HETATM    3  C   UNL     1      44.449 -20.377   4.510  1.00  0.00     0.023 A 
HETATM    4  C   UNL     1      44.261 -20.251   3.130  1.00  0.00     0.044 A 
HETATM    5  C   UNL     1      44.386 -21.397   2.276  1.00  0.00     0.099 C 
HETATM    6  N   UNL     1      44.492 -22.321   1.583  1.00  0.00    -0.191 NA
HETATM    7  C   UNL     1      43.953 -19.000   2.587  1.00  0.00     0.023 A 
HETATM    8  C   UNL     1      43.834 -17.881   3.419  1.00  0.00     0.013 A 
ENDROOT
BRANCH   1   9
HETATM    9  C   UNL     1      43.905 -16.817   5.652  1.00  0.00     0.009 C 
HETATM   10  C   UNL     1      43.405 -15.661   5.185  1.00  0.00     0.001 C 
BRANCH  10  11
HETATM   11  C   UNL     1      43.253 -14.423   6.000  1.00  0.00     0.259 C 
BRANCH  11  12
HETATM   12  N   UNL     1      42.395 -13.437   5.288  1.00  0.00    -0.071 N 
HETATM   13  H   UNL     1      42.957 -13.014   4.534  1.00  0.00     0.277 HD
HETATM   14  H   UNL     1      42.189 -12.668   5.938  1.00  0.00     0.277 HD
BRANCH  12  15
HETATM   15  C   UNL     1      41.125 -14.008   4.727  1.00  0.00     0.242 C 
BRANCH  15  16
HETATM   16  C   UNL     1      41.021 -13.803   3.200  1.00  0.00     0.055 C 
HETATM   17  C   UNL     1      41.082 -15.075   2.371  1.00  0.00    -0.025 A 
HETATM   18  C   UNL     1      40.561 -16.301   2.817  1.00  0.00     0.010 A 
HETATM   19  C   UNL     1      41.555 -14.998   1.050  1.00  0.00     0.041 A 
HETATM   20  C   UNL     1      40.577 -17.426   1.987  1.00  0.00     0.001 A 
HETATM   21  C   UNL     1      41.082 -17.337   0.694  1.00  0.00     0.002 A 
HETATM   22  C   UNL     1      41.558 -16.118   0.217  1.00  0.00     0.030 A 
HETATM   23  N   UNL     1      41.978 -13.775   0.525  1.00  0.00    -0.327 N 
HETATM   24  C   UNL     1      42.126 -12.629   1.248  1.00  0.00     0.222 C 
HETATM   25  H   UNL     1      42.151 -13.687  -0.472  1.00  0.00     0.169 HD
HETATM   26  O   UNL     1      42.416 -11.561   0.720  1.00  0.00    -0.273 OA
HETATM   27  C   UNL     1      42.074 -12.788   2.744  1.00  0.00     0.114 C 
ENDBRANCH  15  16
ENDBRANCH  12  15
ENDBRANCH  11  12
ENDBRANCH  10  11
ENDBRANCH   1   9
TORSDOF 5
ENDMDL
MODEL 3
REMARK VINA RESULT:      -7.0      2.904      4.921
REMARK  5 active torsions:
REMARK  status: ('A' for Active; 'I' for Inactive)
REMARK    1  A    between atoms: C_9  and  C_10 
REMARK    2  A    between atoms: C_10  and  N_11 
REMARK    3  A    between atoms: N_11  and  C_14 
REMARK    4  A    between atoms: C_14  and  C_15 
REMARK    5  A    between atoms: C_16  and  C_17 
ROOT
HETATM    1  C   UNL     1      43.585 -18.804   2.135  1.00  0.00    -0.036 A 
HETATM    2  C   UNL     1      43.901 -18.519   3.470  1.00  0.00     0.013 A 
HETATM    3  C   UNL     1      44.379 -19.526   4.314  1.00  0.00     0.023 A 
HETATM    4  C   UNL     1      44.542 -20.829   3.832  1.00  0.00     0.044 A 
HETATM    5  C   UNL     1      45.039 -21.861   4.695  1.00  0.00     0.099 C 
HETATM    6  N   UNL     1      45.447 -22.696   5.390  1.00  0.00    -0.191 NA
HETATM    7  C   UNL     1      44.218 -21.119   2.503  1.00  0.00     0.023 A 
HETATM    8  C   UNL     1      43.736 -20.112   1.660  1.00  0.00     0.013 A 
ENDROOT
BRANCH   1   9
HETATM    9  C   UNL     1      43.078 -17.765   1.235  1.00  0.00     0.009 C 
HETATM   10  C   UNL     1      41.770 -17.463   1.169  1.00  0.00     0.001 C 
BRANCH  10  11
HETATM   11  C   UNL     1      41.194 -16.423   0.271  1.00  0.00     0.259 C 
BRANCH  11  12
HETATM   12  N   UNL     1      40.330 -15.492   1.047  1.00  0.00    -0.071 N 
HETATM   13  H   UNL     1      39.559 -16.042   1.454  1.00  0.00     0.277 HD
HETATM   14  H   UNL     1      39.883 -14.847   0.383  1.00  0.00     0.277 HD
BRANCH  12  15
HETATM   15  C   UNL     1      41.046 -14.729   2.123  1.00  0.00     0.242 C 
BRANCH  15  16
HETATM   16  C   UNL     1      40.379 -14.911   3.504  1.00  0.00     0.055 C 
HETATM   17  C   UNL     1      39.966 -13.623   4.197  1.00  0.00    -0.025 A 
HETATM   18  C   UNL     1      39.524 -12.488   3.497  1.00  0.00     0.010 A 
HETATM   19  C   UNL     1      39.891 -13.606   5.600  1.00  0.00     0.041 A 
HETATM   20  C   UNL     1      39.086 -11.353   4.184  1.00  0.00     0.001 A 
HETATM   21  C   UNL     1      39.052 -11.344   5.574  1.00  0.00     0.002 A 
HETATM   22  C   UNL     1      39.440 -12.476   6.285  1.00  0.00     0.030 A 
HETATM   23  N   UNL     1      40.212 -14.748   6.336  1.00  0.00    -0.327 N 
HETATM   24  C   UNL     1      40.760 -15.881   5.811  1.00  0.00     0.222 C 
HETATM   25  H   UNL     1      39.991 -14.790   7.326  1.00  0.00     0.169 HD
HETATM   26  O   UNL     1      40.941 -16.888   6.486  1.00  0.00    -0.273 OA
HETATM   27  C   UNL     1      41.279 -15.765   4.402  1.00  0.00     0.114 C 
ENDBRANCH  15  16
ENDBRANCH  12  15
ENDBRANCH  11  12
ENDBRANCH  10  11
ENDBRANCH   1   9
TORSDOF 5
ENDMDL
MODEL 4
REMARK VINA RESULT:      -6.9      2.451      3.302
REMARK  5 active torsions:
REMARK  status: ('A' for Active; 'I' for Inactive)
REMARK    1  A    between atoms: C_9  and  C_10 
REMARK    2  A    between atoms: C_10  and  N_11 
REMARK    3  A    between atoms: N_11  and  C_14 
REMARK    4  A    between atoms: C_14  and  C_15 
REMARK    5  A    between atoms: C_16  and  C_17 
ROOT
HETATM    1  C   UNL     1      43.635 -17.123   3.314  1.00  0.00    -0.036 A 
HETATM    2  C   UNL     1      43.524 -17.401   1.945  1.00  0.00     0.013 A 
HETATM    3  C   UNL     1      43.632 -18.715   1.480  1.00  0.00     0.023 A 
HETATM    4  C   UNL     1      43.854 -19.764   2.378  1.00  0.00     0.044 A 
HETATM    5  C   UNL     1      43.957 -21.113   1.902  1.00  0.00     0.099 C 
HETATM    6  N   UNL     1      44.035 -22.205   1.520  1.00  0.00    -0.191 NA
HETATM    7  C   UNL     1      43.975 -19.488   3.743  1.00  0.00     0.023 A 
HETATM    8  C   UNL     1      43.872 -18.173   4.209  1.00  0.00     0.013 A 
ENDROOT
BRANCH   1   9
HETATM    9  C   UNL     1      43.531 -15.753   3.823  1.00  0.00     0.009 C 
HETATM   10  C   UNL     1      43.239 -15.496   5.109  1.00  0.00     0.001 C 
BRANCH  10  11
HETATM   11  C   UNL     1      43.115 -14.127   5.683  1.00  0.00     0.259 C 
BRANCH  11  12
HETATM   12  N   UNL     1      41.787 -13.959   6.335  1.00  0.00    -0.071 N 
HETATM   13  H   UNL     1      41.513 -12.970   6.242  1.00  0.00     0.277 HD
HETATM   14  H   UNL     1      41.908 -14.113   7.344  1.00  0.00     0.277 HD
BRANCH  12  15
HETATM   15  C   UNL     1      40.708 -14.849   5.791  1.00  0.00     0.242 C 
BRANCH  15  16
HETATM   16  C   UNL     1      39.683 -14.065   4.943  1.00  0.00     0.055 C 
HETATM   17  C   UNL     1      39.808 -14.253   3.440  1.00  0.00    -0.025 A 
HETATM   18  C   UNL     1      40.226 -15.459   2.855  1.00  0.00     0.010 A 
HETATM   19  C   UNL     1      39.358 -13.227   2.593  1.00  0.00     0.041 A 
HETATM   20  C   UNL     1      40.255 -15.605   1.465  1.00  0.00     0.001 A 
HETATM   21  C   UNL     1      39.838 -14.563   0.642  1.00  0.00     0.002 A 
HETATM   22  C   UNL     1      39.374 -13.377   1.205  1.00  0.00     0.030 A 
HETATM   23  N   UNL     1      38.828 -12.052   3.130  1.00  0.00    -0.327 N 
HETATM   24  C   UNL     1      38.844 -11.728   4.454  1.00  0.00     0.222 C 
HETATM   25  H   UNL     1      38.347 -11.393   2.526  1.00  0.00     0.169 HD
HETATM   26  O   UNL     1      38.286 -10.724   4.883  1.00  0.00    -0.273 OA
HETATM   27  C   UNL     1      39.723 -12.583   5.327  1.00  0.00     0.114 C 
ENDBRANCH  15  16
ENDBRANCH  12  15
ENDBRANCH  11  12
ENDBRANCH  10  11
ENDBRANCH   1   9
TORSDOF 5
ENDMDL
MODEL 5
REMARK VINA RESULT:      -6.9      5.241      8.466
REMARK  5 active torsions:
REMARK  status: ('A' for Active; 'I' for Inactive)
REMARK    1  A    between atoms: C_9  and  C_10 
REMARK    2  A    between atoms: C_10  and  N_11 
REMARK    3  A    between atoms: N_11  and  C_14 
REMARK    4  A    between atoms: C_14  and  C_15 
REMARK    5  A    between atoms: C_16  and  C_17 
ROOT
HETATM    1  C   UNL     1      44.648 -11.843  10.047  1.00  0.00    -0.036 A 
HETATM    2  C   UNL     1      44.477 -10.458  10.170  1.00  0.00     0.013 A 
HETATM    3  C   UNL     1      43.893  -9.916  11.319  1.00  0.00     0.023 A 
HETATM    4  C   UNL     1      43.470 -10.756  12.355  1.00  0.00     0.044 A 
HETATM    5  C   UNL     1      42.877 -10.201  13.537  1.00  0.00     0.099 C 
HETATM    6  N   UNL     1      42.402  -9.753  14.496  1.00  0.00    -0.191 NA
HETATM    7  C   UNL     1      43.630 -12.139  12.231  1.00  0.00     0.023 A 
HETATM    8  C   UNL     1      44.211 -12.680  11.080  1.00  0.00     0.013 A 
ENDROOT
BRANCH   1   9
HETATM    9  C   UNL     1      45.254 -12.432   8.849  1.00  0.00     0.009 C 
HETATM   10  C   UNL     1      44.592 -13.316   8.085  1.00  0.00     0.001 C 
BRANCH  10  11
HETATM   11  C   UNL     1      45.155 -13.952   6.861  1.00  0.00     0.259 C 
BRANCH  11  12
HETATM   12  N   UNL     1      44.085 -14.664   6.110  1.00  0.00    -0.071 N 
HETATM   13  H   UNL     1      44.200 -14.443   5.110  1.00  0.00     0.277 HD
HETATM   14  H   UNL     1      43.182 -14.253   6.378  1.00  0.00     0.277 HD
BRANCH  12  15
HETATM   15  C   UNL     1      44.067 -16.152   6.312  1.00  0.00     0.242 C 
BRANCH  15  16
HETATM   16  C   UNL     1      43.124 -16.861   5.316  1.00  0.00     0.055 C 
HETATM   17  C   UNL     1      43.709 -18.085   4.631  1.00  0.00    -0.025 A 
HETATM   18  C   UNL     1      44.623 -18.946   5.260  1.00  0.00     0.010 A 
HETATM   19  C   UNL     1      43.215 -18.452   3.368  1.00  0.00     0.041 A 
HETATM   20  C   UNL     1      45.076 -20.100   4.614  1.00  0.00     0.001 A 
HETATM   21  C   UNL     1      44.601 -20.427   3.348  1.00  0.00     0.002 A 
HETATM   22  C   UNL     1      43.657 -19.611   2.729  1.00  0.00     0.030 A 
HETATM   23  N   UNL     1      42.221 -17.688   2.752  1.00  0.00    -0.327 N 
HETATM   24  C   UNL     1      41.772 -16.484   3.208  1.00  0.00     0.222 C 
HETATM   25  H   UNL     1      41.746 -18.047   1.930  1.00  0.00     0.169 HD
HETATM   26  O   UNL     1      40.837 -15.897   2.678  1.00  0.00    -0.273 OA
HETATM   27  C   UNL     1      42.597 -15.847   4.295  1.00  0.00     0.114 C 
ENDBRANCH  15  16
ENDBRANCH  12  15
ENDBRANCH  11  12
ENDBRANCH  10  11
ENDBRANCH   1   9
TORSDOF 5
ENDMDL
MODEL 6
REMARK VINA RESULT:      -6.9      3.197      6.253
REMARK  5 active torsions:
REMARK  status: ('A' for Active; 'I' for Inactive)
REMARK    1  A    between atoms: C_9  and  C_10 
REMARK    2  A    between atoms: C_10  and  N_11 
REMARK    3  A    between atoms: N_11  and  C_14 
REMARK    4  A    between atoms: C_14  and  C_15 
REMARK    5  A    between atoms: C_16  and  C_17 
ROOT
HETATM    1  C   UNL     1      40.554 -15.762   1.732  1.00  0.00    -0.036 A 
HETATM    2  C   UNL     1      40.169 -14.523   1.204  1.00  0.00     0.013 A 
HETATM    3  C   UNL     1      40.366 -14.240  -0.151  1.00  0.00     0.023 A 
HETATM    4  C   UNL     1      40.953 -15.193  -0.991  1.00  0.00     0.044 A 
HETATM    5  C   UNL     1      41.148 -14.907  -2.383  1.00  0.00     0.099 C 
HETATM    6  N   UNL     1      41.301 -14.679  -3.510  1.00  0.00    -0.191 NA
HETATM    7  C   UNL     1      41.346 -16.427  -0.464  1.00  0.00     0.023 A 
HETATM    8  C   UNL     1      41.154 -16.707   0.893  1.00  0.00     0.013 A 
ENDROOT
BRANCH   1   9
HETATM    9  C   UNL     1      40.362 -16.077   3.151  1.00  0.00     0.009 C 
HETATM   10  C   UNL     1      40.870 -15.300   4.122  1.00  0.00     0.001 C 
BRANCH  10  11
HETATM   11  C   UNL     1      40.714 -15.571   5.579  1.00  0.00     0.259 C 
BRANCH  11  12
HETATM   12  N   UNL     1      42.022 -15.427   6.274  1.00  0.00    -0.071 N 
HETATM   13  H   UNL     1      42.049 -16.114   7.042  1.00  0.00     0.277 HD
HETATM   14  H   UNL     1      42.039 -14.507   6.731  1.00  0.00     0.277 HD
BRANCH  12  15
HETATM   15  C   UNL     1      43.221 -15.596   5.387  1.00  0.00     0.242 C 
BRANCH  15  16
HETATM   16  C   UNL     1      43.897 -16.971   5.582  1.00  0.00     0.055 C 
HETATM   17  C   UNL     1      43.867 -17.885   4.368  1.00  0.00    -0.025 A 
HETATM   18  C   UNL     1      43.928 -17.403   3.050  1.00  0.00     0.010 A 
HETATM   19  C   UNL     1      43.919 -19.274   4.568  1.00  0.00     0.041 A 
HETATM   20  C   UNL     1      43.971 -18.288   1.969  1.00  0.00     0.001 A 
HETATM   21  C   UNL     1      43.986 -19.662   2.188  1.00  0.00     0.002 A 
HETATM   22  C   UNL     1      43.976 -20.158   3.489  1.00  0.00     0.030 A 
HETATM   23  N   UNL     1      43.975 -19.797   5.862  1.00  0.00    -0.327 N 
HETATM   24  C   UNL     1      43.825 -19.065   7.002  1.00  0.00     0.222 C 
HETATM   25  H   UNL     1      44.188 -20.780   6.000  1.00  0.00     0.169 HD
HETATM   26  O   UNL     1      43.971 -19.559   8.114  1.00  0.00    -0.273 OA
HETATM   27  C   UNL     1      43.311 -17.662   6.817  1.00  0.00     0.114 C 
ENDBRANCH  15  16
ENDBRANCH  12  15
ENDBRANCH  11  12
ENDBRANCH  10  11
ENDBRANCH   1   9
TORSDOF 5
ENDMDL
MODEL 7
REMARK VINA RESULT:      -6.8      3.090      7.106
REMARK  5 active torsions:
REMARK  status: ('A' for Active; 'I' for Inactive)
REMARK    1  A    between atoms: C_9  and  C_10 
REMARK    2  A    between atoms: C_10  and  N_11 
REMARK    3  A    between atoms: N_11  and  C_14 
REMARK    4  A    between atoms: C_14  and  C_15 
REMARK    5  A    between atoms: C_16  and  C_17 
ROOT
HETATM    1  C   UNL     1      41.480 -13.949   3.792  1.00  0.00    -0.036 A 
HETATM    2  C   UNL     1      40.349 -14.530   4.379  1.00  0.00     0.013 A 
HETATM    3  C   UNL     1      39.740 -13.931   5.486  1.00  0.00     0.023 A 
HETATM    4  C   UNL     1      40.259 -12.745   6.018  1.00  0.00     0.044 A 
HETATM    5  C   UNL     1      39.630 -12.126   7.149  1.00  0.00     0.099 C 
HETATM    6  N   UNL     1      39.120 -11.620   8.059  1.00  0.00    -0.191 NA
HETATM    7  C   UNL     1      41.393 -12.168   5.440  1.00  0.00     0.023 A 
HETATM    8  C   UNL     1      42.005 -12.771   4.335  1.00  0.00     0.013 A 
ENDROOT
BRANCH   1   9
HETATM    9  C   UNL     1      42.138 -14.563   2.635  1.00  0.00     0.009 C 
HETATM   10  C   UNL     1      41.472 -15.363   1.786  1.00  0.00     0.001 C 
BRANCH  10  11
HETATM   11  C   UNL     1      42.086 -16.020   0.597  1.00  0.00     0.259 C 
BRANCH  11  12
HETATM   12  N   UNL     1      43.226 -16.881   1.014  1.00  0.00    -0.071 N 
HETATM   13  H   UNL     1      43.880 -16.299   1.558  1.00  0.00     0.277 HD
HETATM   14  H   UNL     1      43.743 -17.154   0.168  1.00  0.00     0.277 HD
BRANCH  12  15
HETATM   15  C   UNL     1      42.833 -18.095   1.806  1.00  0.00     0.242 C 
BRANCH  15  16
HETATM   16  C   UNL     1      43.866 -18.431   2.903  1.00  0.00     0.055 C 
HETATM   17  C   UNL     1      44.108 -19.914   3.132  1.00  0.00    -0.025 A 
HETATM   18  C   UNL     1      44.045 -20.864   2.099  1.00  0.00     0.010 A 
HETATM   19  C   UNL     1      44.545 -20.338   4.397  1.00  0.00     0.041 A 
HETATM   20  C   UNL     1      44.347 -22.206   2.347  1.00  0.00     0.001 A 
HETATM   21  C   UNL     1      44.745 -22.612   3.616  1.00  0.00     0.002 A 
HETATM   22  C   UNL     1      44.860 -21.676   4.640  1.00  0.00     0.030 A 
HETATM   23  N   UNL     1      44.732 -19.412   5.425  1.00  0.00    -0.327 N 
HETATM   24  C   UNL     1      44.370 -18.099   5.362  1.00  0.00     0.222 C 
HETATM   25  H   UNL     1      45.211 -19.691   6.276  1.00  0.00     0.169 HD
HETATM   26  O   UNL     1      44.636 -17.308   6.260  1.00  0.00    -0.273 OA
HETATM   27  C   UNL     1      43.484 -17.719   4.205  1.00  0.00     0.114 C 
ENDBRANCH  15  16
ENDBRANCH  12  15
ENDBRANCH  11  12
ENDBRANCH  10  11
ENDBRANCH   1   9
TORSDOF 5
ENDMDL
MODEL 8
REMARK VINA RESULT:      -6.8      2.696      4.522
REMARK  5 active torsions:
REMARK  status: ('A' for Active; 'I' for Inactive)
REMARK    1  A    between atoms: C_9  and  C_10 
REMARK    2  A    between atoms: C_10  and  N_11 
REMARK    3  A    between atoms: N_11  and  C_14 
REMARK    4  A    between atoms: C_14  and  C_15 
REMARK    5  A    between atoms: C_16  and  C_17 
ROOT
HETATM    1  C   UNL     1      41.750 -17.038   2.155  1.00  0.00    -0.036 A 
HETATM    2  C   UNL     1      42.803 -17.683   1.492  1.00  0.00     0.013 A 
HETATM    3  C   UNL     1      43.668 -18.528   2.194  1.00  0.00     0.023 A 
HETATM    4  C   UNL     1      43.490 -18.734   3.566  1.00  0.00     0.044 A 
HETATM    5  C   UNL     1      44.372 -19.607   4.285  1.00  0.00     0.099 C 
HETATM    6  N   UNL     1      45.081 -20.318   4.867  1.00  0.00    -0.191 NA
HETATM    7  C   UNL     1      42.446 -18.085   4.232  1.00  0.00     0.023 A 
HETATM    8  C   UNL     1      41.584 -17.236   3.530  1.00  0.00     0.013 A 
ENDROOT
BRANCH   1   9
HETATM    9  C   UNL     1      40.835 -16.143   1.440  1.00  0.00     0.009 C 
HETATM   10  C   UNL     1      39.812 -15.535   2.061  1.00  0.00     0.001 C 
BRANCH  10  11
HETATM   11  C   UNL     1      38.847 -14.621   1.388  1.00  0.00     0.259 C 
BRANCH  11  12
HETATM   12  N   UNL     1      38.701 -13.360   2.165  1.00  0.00    -0.071 N 
HETATM   13  H   UNL     1      38.419 -13.611   3.124  1.00  0.00     0.277 HD
HETATM   14  H   UNL     1      37.907 -12.837   1.776  1.00  0.00     0.277 HD
BRANCH  12  15
HETATM   15  C   UNL     1      39.933 -12.502   2.195  1.00  0.00     0.242 C 
BRANCH  15  16
HETATM   16  C   UNL     1      40.440 -12.266   3.635  1.00  0.00     0.055 C 
HETATM   17  C   UNL     1      41.642 -13.102   4.042  1.00  0.00    -0.025 A 
HETATM   18  C   UNL     1      42.649 -13.480   3.139  1.00  0.00     0.010 A 
HETATM   19  C   UNL     1      41.828 -13.397   5.403  1.00  0.00     0.041 A 
HETATM   20  C   UNL     1      43.772 -14.187   3.578  1.00  0.00     0.001 A 
HETATM   21  C   UNL     1      43.920 -14.500   4.925  1.00  0.00     0.002 A 
HETATM   22  C   UNL     1      42.956 -14.092   5.843  1.00  0.00     0.030 A 
HETATM   23  N   UNL     1      40.911 -12.944   6.353  1.00  0.00    -0.327 N 
HETATM   24  C   UNL     1      39.720 -12.348   6.060  1.00  0.00     0.222 C 
HETATM   25  H   UNL     1      41.136 -13.005   7.342  1.00  0.00     0.169 HD
HETATM   26  O   UNL     1      38.992 -11.890   6.933  1.00  0.00    -0.273 OA
HETATM   27  C   UNL     1      39.281 -12.433   4.623  1.00  0.00     0.114 C 
ENDBRANCH  15  16
ENDBRANCH  12  15
ENDBRANCH  11  12
ENDBRANCH  10  11
ENDBRANCH   1   9
TORSDOF 5
ENDMDL
MODEL 9
REMARK VINA RESULT:      -6.7      3.220      7.627
REMARK  5 active torsions:
REMARK  status: ('A' for Active; 'I' for Inactive)
REMARK    1  A    between atoms: C_9  and  C_10 
REMARK    2  A    between atoms: C_10  and  N_11 
REMARK    3  A    between atoms: N_11  and  C_14 
REMARK    4  A    between atoms: C_14  and  C_15 
REMARK    5  A    between atoms: C_16  and  C_17 
ROOT
HETATM    1  C   UNL     1      41.882 -13.420  -1.207  1.00  0.00    -0.036 A 
HETATM    2  C   UNL     1      41.444 -13.738  -2.499  1.00  0.00     0.013 A 
HETATM    3  C   UNL     1      41.625 -12.834  -3.550  1.00  0.00     0.023 A 
HETATM    4  C   UNL     1      42.243 -11.601  -3.318  1.00  0.00     0.044 A 
HETATM    5  C   UNL     1      42.436 -10.676  -4.397  1.00  0.00     0.099 C 
HETATM    6  N   UNL     1      42.599  -9.929  -5.270  1.00  0.00    -0.191 NA
HETATM    7  C   UNL     1      42.673 -11.276  -2.028  1.00  0.00     0.023 A 
HETATM    8  C   UNL     1      42.487 -12.179  -0.976  1.00  0.00     0.013 A 
ENDROOT
BRANCH   1   9
HETATM    9  C   UNL     1      41.697 -14.350  -0.090  1.00  0.00     0.009 C 
HETATM   10  C   UNL     1      41.462 -15.657  -0.290  1.00  0.00     0.001 C 
BRANCH  10  11
HETATM   11  C   UNL     1      41.260 -16.650   0.803  1.00  0.00     0.259 C 
BRANCH  11  12
HETATM   12  N   UNL     1      42.269 -16.447   1.879  1.00  0.00    -0.071 N 
HETATM   13  H   UNL     1      42.236 -15.456   2.160  1.00  0.00     0.277 HD
HETATM   14  H   UNL     1      43.201 -16.583   1.468  1.00  0.00     0.277 HD
BRANCH  12  15
HETATM   15  C   UNL     1      42.087 -17.332   3.078  1.00  0.00     0.242 C 
BRANCH  15  16
HETATM   16  C   UNL     1      43.427 -17.914   3.578  1.00  0.00     0.055 C 
HETATM   17  C   UNL     1      43.678 -19.367   3.211  1.00  0.00    -0.025 A 
HETATM   18  C   UNL     1      43.220 -19.941   2.013  1.00  0.00     0.010 A 
HETATM   19  C   UNL     1      44.517 -20.135   4.035  1.00  0.00     0.041 A 
HETATM   20  C   UNL     1      43.540 -21.262   1.688  1.00  0.00     0.001 A 
HETATM   21  C   UNL     1      44.344 -22.017   2.535  1.00  0.00     0.002 A 
HETATM   22  C   UNL     1      44.848 -21.450   3.703  1.00  0.00     0.030 A 
HETATM   23  N   UNL     1      45.088 -19.572   5.178  1.00  0.00    -0.327 N 
HETATM   24  C   UNL     1      44.776 -18.342   5.676  1.00  0.00     0.222 C 
HETATM   25  H   UNL     1      45.825 -20.068   5.671  1.00  0.00     0.169 HD
HETATM   26  O   UNL     1      45.371 -17.860   6.633  1.00  0.00    -0.273 OA
HETATM   27  C   UNL     1      43.555 -17.688   5.088  1.00  0.00     0.114 C 
ENDBRANCH  15  16
ENDBRANCH  12  15
ENDBRANCH  11  12
ENDBRANCH  10  11
ENDBRANCH   1   9
TORSDOF 5
ENDMDL
MODEL 10
REMARK VINA RESULT:      -6.7      3.091      7.154
REMARK  5 active torsions:
REMARK  status: ('A' for Active; 'I' for Inactive)
REMARK    1  A    between atoms: C_9  and  C_10 
REMARK    2  A    between atoms: C_10  and  N_11 
REMARK    3  A    between atoms: N_11  and  C_14 
REMARK    4  A    between atoms: C_14  and  C_15 
REMARK    5  A    between atoms: C_16  and  C_17 
ROOT
HETATM    1  C   UNL     1      40.305 -14.890   3.766  1.00  0.00    -0.036 A 
HETATM    2  C   UNL     1      40.489 -14.906   5.154  1.00  0.00     0.013 A 
HETATM    3  C   UNL     1      40.210 -13.769   5.918  1.00  0.00     0.023 A 
HETATM    4  C   UNL     1      39.747 -12.603   5.300  1.00  0.00     0.044 A 
HETATM    5  C   UNL     1      39.452 -11.438   6.084  1.00  0.00     0.099 C 
HETATM    6  N   UNL     1      39.208 -10.498   6.717  1.00  0.00    -0.191 NA
HETATM    7  C   UNL     1      39.571 -12.580   3.913  1.00  0.00     0.023 A 
HETATM    8  C   UNL     1      39.856 -13.717   3.149  1.00  0.00     0.013 A 
ENDROOT
BRANCH   1   9
HETATM    9  C   UNL     1      40.598 -16.068   2.945  1.00  0.00     0.009 C 
HETATM   10  C   UNL     1      41.248 -15.971   1.774  1.00  0.00     0.001 C 
BRANCH  10  11
HETATM   11  C   UNL     1      41.569 -17.130   0.894  1.00  0.00     0.259 C 
BRANCH  11  12
HETATM   12  N   UNL     1      43.020 -17.140   0.560  1.00  0.00    -0.071 N 
HETATM   13  H   UNL     1      43.211 -16.326  -0.042  1.00  0.00     0.277 HD
HETATM   14  H   UNL     1      43.204 -17.962  -0.027  1.00  0.00     0.277 HD
BRANCH  12  15
HETATM   15  C   UNL     1      43.933 -17.127   1.752  1.00  0.00     0.242 C 
BRANCH  15  16
HETATM   16  C   UNL     1      43.700 -18.344   2.674  1.00  0.00     0.055 C 
HETATM   17  C   UNL     1      43.937 -18.090   4.153  1.00  0.00    -0.025 A 
HETATM   18  C   UNL     1      43.673 -16.854   4.766  1.00  0.00     0.010 A 
HETATM   19  C   UNL     1      44.306 -19.170   4.972  1.00  0.00     0.041 A 
HETATM   20  C   UNL     1      43.839 -16.692   6.144  1.00  0.00     0.001 A 
HETATM   21  C   UNL     1      44.238 -17.765   6.933  1.00  0.00     0.002 A 
HETATM   22  C   UNL     1      44.458 -19.011   6.351  1.00  0.00     0.030 A 
HETATM   23  N   UNL     1      44.469 -20.444   4.426  1.00  0.00    -0.327 N 
HETATM   24  C   UNL     1      44.454 -20.724   3.091  1.00  0.00     0.222 C 
HETATM   25  H   UNL     1      44.562 -21.249   5.039  1.00  0.00     0.169 HD
HETATM   26  O   UNL     1      44.514 -21.873   2.669  1.00  0.00    -0.273 OA
HETATM   27  C   UNL     1      44.523 -19.534   2.172  1.00  0.00     0.114 C 
ENDBRANCH  15  16
ENDBRANCH  12  15
ENDBRANCH  11  12
ENDBRANCH  10  11
ENDBRANCH   1   9
TORSDOF 5
ENDMDL
