MODEL 1
REMARK VINA RESULT:      -8.0      0.000      0.000
REMARK  6 active torsions:
REMARK  status: ('A' for Active; 'I' for Inactive)
REMARK    1  A    between atoms: O_2  and  C_3 
REMARK    2  A    between atoms: C_3  and  C_4 
REMARK    3  A    between atoms: C_4  and  N_5 
REMARK       I    between atoms: N_5  and  C_6 
REMARK    4  A    between atoms: C_6  and  C_7 
REMARK    5  A    between atoms: C_12  and  C_13 
REMARK    6  A    between atoms: C_22  and  C_23 
ROOT
HETATM    1  C   UNL     1      40.302 -13.564   5.010  1.00  0.00     0.148 A 
HETATM    2  N   UNL     1      39.920 -14.038   3.801  1.00  0.00    -0.165 NA
HETATM    3  N   UNL     1      41.026 -14.641   3.333  1.00  0.00    -0.240 N 
HETATM    4  C   UNL     1      42.115 -14.515   4.150  1.00  0.00     0.123 A 
HETATM    5  N   UNL     1      43.326 -14.997   3.804  1.00  0.00    -0.366 N 
HETATM    6  C   UNL     1      43.549 -15.753   2.578  1.00  0.00     0.118 C 
HETATM    7  C   UNL     1      42.493 -15.393   1.514  1.00  0.00     0.066 C 
HETATM    8  C   UNL     1      41.050 -15.297   2.042  1.00  0.00     0.221 C 
HETATM    9  C   UNL     1      41.675 -13.844   5.259  1.00  0.00     0.088 A 
HETATM   10  H   UNL     1      44.111 -14.962   4.454  1.00  0.00     0.161 HD
ENDROOT
BRANCH   1  11
HETATM   11  C   UNL     1      39.378 -12.859   5.910  1.00  0.00     0.272 C 
HETATM   12  N   UNL     1      39.685 -13.009   7.242  1.00  0.00    -0.354 N 
HETATM   13  H   UNL     1      40.579 -13.455   7.440  1.00  0.00     0.162 HD
HETATM   14  O   UNL     1      38.431 -12.193   5.500  1.00  0.00    -0.266 OA
BRANCH  12  15
HETATM   15  C   UNL     1      39.057 -12.221   8.282  1.00  0.00     0.149 C 
BRANCH  15  16
HETATM   16  C   UNL     1      39.702 -10.843   8.409  1.00  0.00     0.186 C 
BRANCH  16  17
HETATM   17  O   UNL     1      38.757  -9.842   8.017  1.00  0.00    -0.394 OA
HETATM   18  C   UNL     1      39.247  -9.057   6.937  1.00  0.00     0.201 C 
ENDBRANCH  16  17
ENDBRANCH  15  16
ENDBRANCH  12  15
ENDBRANCH   1  11
BRANCH   8  19
HETATM   19  C   UNL     1      40.338 -16.629   2.116  1.00  0.00     0.409 C 
HETATM   20  F   UNL     1      40.550 -17.256   3.295  1.00  0.00    -0.169 F 
HETATM   21  F   UNL     1      38.996 -16.441   2.023  1.00  0.00    -0.169 F 
HETATM   22  F   UNL     1      40.682 -17.484   1.136  1.00  0.00    -0.169 F 
ENDBRANCH   8  19
BRANCH   6  23
HETATM   23  C   UNL     1      43.731 -17.240   2.834  1.00  0.00    -0.034 A 
HETATM   24  C   UNL     1      43.860 -17.784   4.125  1.00  0.00     0.034 A 
HETATM   25  C   UNL     1      44.048 -19.159   4.321  1.00  0.00     0.056 A 
HETATM   26 CL   UNL     1      44.185 -19.728   5.947  1.00  0.00    -0.083 Cl
HETATM   27  C   UNL     1      44.119 -20.014   3.220  1.00  0.00     0.055 A 
HETATM   28 CL   UNL     1      44.360 -21.717   3.378  1.00  0.00    -0.083 Cl
HETATM   29  C   UNL     1      44.001 -19.491   1.931  1.00  0.00     0.026 A 
HETATM   30  C   UNL     1      43.809 -18.119   1.740  1.00  0.00     0.011 A 
ENDBRANCH   6  23
TORSDOF 6
ENDMDL
MODEL 2
REMARK VINA RESULT:      -7.9      3.049      3.756
REMARK  6 active torsions:
REMARK  status: ('A' for Active; 'I' for Inactive)
REMARK    1  A    between atoms: O_2  and  C_3 
REMARK    2  A    between atoms: C_3  and  C_4 
REMARK    3  A    between atoms: C_4  and  N_5 
REMARK       I    between atoms: N_5  and  C_6 
REMARK    4  A    between atoms: C_6  and  C_7 
REMARK    5  A    between atoms: C_12  and  C_13 
REMARK    6  A    between atoms: C_22  and  C_23 
ROOT
HETATM    1  C   UNL     1      42.628 -13.350   6.038  1.00  0.00     0.148 A 
HETATM    2  N   UNL     1      41.539 -14.143   5.907  1.00  0.00    -0.165 NA
HETATM    3  N   UNL     1      41.906 -15.029   4.965  1.00  0.00    -0.240 N 
HETATM    4  C   UNL     1      43.146 -14.799   4.438  1.00  0.00     0.123 A 
HETATM    5  N   UNL     1      43.644 -15.548   3.433  1.00  0.00    -0.366 N 
HETATM    6  C   UNL     1      42.938 -16.701   2.888  1.00  0.00     0.118 C 
HETATM    7  C   UNL     1      41.419 -16.569   3.116  1.00  0.00     0.066 C 
HETATM    8  C   UNL     1      41.016 -16.081   4.520  1.00  0.00     0.221 C 
HETATM    9  C   UNL     1      43.654 -13.732   5.129  1.00  0.00     0.088 A 
HETATM   10  H   UNL     1      44.598 -15.413   3.100  1.00  0.00     0.161 HD
ENDROOT
BRANCH   1  11
HETATM   11  C   UNL     1      42.690 -12.248   7.011  1.00  0.00     0.272 C 
HETATM   12  N   UNL     1      43.575 -12.472   8.040  1.00  0.00    -0.354 N 
HETATM   13  H   UNL     1      44.179 -13.285   7.933  1.00  0.00     0.162 HD
HETATM   14  O   UNL     1      42.019 -11.227   6.900  1.00  0.00    -0.266 OA
BRANCH  12  15
HETATM   15  C   UNL     1      43.966 -11.435   8.972  1.00  0.00     0.149 C 
BRANCH  15  16
HETATM   16  C   UNL     1      45.363 -11.685   9.536  1.00  0.00     0.186 C 
BRANCH  16  17
HETATM   17  O   UNL     1      46.317 -10.927   8.785  1.00  0.00    -0.394 OA
HETATM   18  C   UNL     1      47.124 -11.768   7.969  1.00  0.00     0.201 C 
ENDBRANCH  16  17
ENDBRANCH  15  16
ENDBRANCH  12  15
ENDBRANCH   1  11
BRANCH   8  19
HETATM   19  C   UNL     1      40.948 -17.185   5.552  1.00  0.00     0.409 C 
HETATM   20  F   UNL     1      40.849 -18.409   4.985  1.00  0.00    -0.169 F 
HETATM   21  F   UNL     1      42.090 -17.199   6.288  1.00  0.00    -0.169 F 
HETATM   22  F   UNL     1      39.925 -17.057   6.418  1.00  0.00    -0.169 F 
ENDBRANCH   8  19
BRANCH   6  23
HETATM   23  C   UNL     1      43.548 -18.021   3.330  1.00  0.00    -0.034 A 
HETATM   24  C   UNL     1      43.473 -19.195   2.557  1.00  0.00     0.034 A 
HETATM   25  C   UNL     1      44.029 -20.400   3.007  1.00  0.00     0.056 A 
HETATM   26 CL   UNL     1      43.893 -21.782   1.980  1.00  0.00    -0.083 Cl
HETATM   27  C   UNL     1      44.663 -20.451   4.250  1.00  0.00     0.055 A 
HETATM   28 CL   UNL     1      45.362 -21.900   4.880  1.00  0.00    -0.083 Cl
HETATM   29  C   UNL     1      44.739 -19.298   5.034  1.00  0.00     0.026 A 
HETATM   30  C   UNL     1      44.188 -18.096   4.578  1.00  0.00     0.011 A 
ENDBRANCH   6  23
TORSDOF 6
ENDMDL
MODEL 3
REMARK VINA RESULT:      -7.6      3.704      6.135
REMARK  6 active torsions:
REMARK  status: ('A' for Active; 'I' for Inactive)
REMARK    1  A    between atoms: O_2  and  C_3 
REMARK    2  A    between atoms: C_3  and  C_4 
REMARK    3  A    between atoms: C_4  and  N_5 
REMARK       I    between atoms: N_5  and  C_6 
REMARK    4  A    between atoms: C_6  and  C_7 
REMARK    5  A    between atoms: C_12  and  C_13 
REMARK    6  A    between atoms: C_22  and  C_23 
ROOT
HETATM    1  C   UNL     1      41.213 -13.942   0.581  1.00  0.00     0.148 A 
HETATM    2  N   UNL     1      41.741 -13.512   1.751  1.00  0.00    -0.165 NA
HETATM    3  N   UNL     1      41.555 -14.551   2.583  1.00  0.00    -0.240 N 
HETATM    4  C   UNL     1      40.871 -15.594   2.024  1.00  0.00     0.123 A 
HETATM    5  N   UNL     1      40.533 -16.689   2.737  1.00  0.00    -0.366 N 
HETATM    6  C   UNL     1      40.936 -16.878   4.124  1.00  0.00     0.118 C 
HETATM    7  C   UNL     1      41.192 -15.520   4.809  1.00  0.00     0.066 C 
HETATM    8  C   UNL     1      41.989 -14.509   3.964  1.00  0.00     0.221 C 
HETATM    9  C   UNL     1      40.656 -15.244   0.718  1.00  0.00     0.088 A 
HETATM   10  H   UNL     1      40.089 -17.490   2.289  1.00  0.00     0.161 HD
ENDROOT
BRANCH   1  11
HETATM   11  C   UNL     1      41.238 -13.128  -0.644  1.00  0.00     0.272 C 
HETATM   12  N   UNL     1      42.127 -13.584  -1.589  1.00  0.00    -0.354 N 
HETATM   13  H   UNL     1      42.544 -14.494  -1.399  1.00  0.00     0.162 HD
HETATM   14  O   UNL     1      40.523 -12.143  -0.800  1.00  0.00    -0.266 OA
BRANCH  12  15
HETATM   15  C   UNL     1      42.148 -13.082  -2.947  1.00  0.00     0.149 C 
BRANCH  15  16
HETATM   16  C   UNL     1      40.965 -13.605  -3.758  1.00  0.00     0.186 C 
BRANCH  16  17
HETATM   17  O   UNL     1      40.979 -15.036  -3.741  1.00  0.00    -0.394 OA
HETATM   18  C   UNL     1      39.663 -15.568  -3.640  1.00  0.00     0.201 C 
ENDBRANCH  16  17
ENDBRANCH  15  16
ENDBRANCH  12  15
ENDBRANCH   1  11
BRANCH   8  19
HETATM   19  C   UNL     1      43.488 -14.692   4.049  1.00  0.00     0.409 C 
HETATM   20  F   UNL     1      43.869 -15.245   5.224  1.00  0.00    -0.169 F 
HETATM   21  F   UNL     1      43.906 -15.544   3.077  1.00  0.00    -0.169 F 
HETATM   22  F   UNL     1      44.185 -13.551   3.895  1.00  0.00    -0.169 F 
ENDBRANCH   8  19
BRANCH   6  23
HETATM   23  C   UNL     1      42.052 -17.899   4.274  1.00  0.00    -0.034 A 
HETATM   24  C   UNL     1      42.598 -18.602   3.183  1.00  0.00     0.034 A 
HETATM   25  C   UNL     1      43.612 -19.552   3.363  1.00  0.00     0.056 A 
HETATM   26 CL   UNL     1      44.222 -20.352   1.959  1.00  0.00    -0.083 Cl
HETATM   27  C   UNL     1      44.090 -19.824   4.647  1.00  0.00     0.055 A 
HETATM   28 CL   UNL     1      45.328 -20.988   4.951  1.00  0.00    -0.083 Cl
HETATM   29  C   UNL     1      43.554 -19.143   5.741  1.00  0.00     0.026 A 
HETATM   30  C   UNL     1      42.546 -18.190   5.557  1.00  0.00     0.011 A 
ENDBRANCH   6  23
TORSDOF 6
ENDMDL
MODEL 4
REMARK VINA RESULT:      -7.5      4.327      5.652
REMARK  6 active torsions:
REMARK  status: ('A' for Active; 'I' for Inactive)
REMARK    1  A    between atoms: O_2  and  C_3 
REMARK    2  A    between atoms: C_3  and  C_4 
REMARK    3  A    between atoms: C_4  and  N_5 
REMARK       I    between atoms: N_5  and  C_6 
REMARK    4  A    between atoms: C_6  and  C_7 
REMARK    5  A    between atoms: C_12  and  C_13 
REMARK    6  A    between atoms: C_22  and  C_23 
ROOT
HETATM    1  C   UNL     1      43.062 -15.049   5.901  1.00  0.00     0.148 A 
HETATM    2  N   UNL     1      43.217 -16.171   5.162  1.00  0.00    -0.165 NA
HETATM    3  N   UNL     1      42.347 -16.006   4.150  1.00  0.00    -0.240 N 
HETATM    4  C   UNL     1      41.594 -14.869   4.245  1.00  0.00     0.123 A 
HETATM    5  N   UNL     1      40.622 -14.580   3.355  1.00  0.00    -0.366 N 
HETATM    6  C   UNL     1      40.355 -15.411   2.188  1.00  0.00     0.118 C 
HETATM    7  C   UNL     1      40.816 -16.861   2.432  1.00  0.00     0.066 C 
HETATM    8  C   UNL     1      42.195 -16.997   3.105  1.00  0.00     0.221 C 
HETATM    9  C   UNL     1      42.049 -14.210   5.356  1.00  0.00     0.088 A 
HETATM   10  H   UNL     1      40.120 -13.694   3.395  1.00  0.00     0.161 HD
ENDROOT
BRANCH   1  11
HETATM   11  C   UNL     1      43.862 -14.779   7.105  1.00  0.00     0.272 C 
HETATM   12  N   UNL     1      44.177 -13.451   7.271  1.00  0.00    -0.354 N 
HETATM   13  H   UNL     1      43.706 -12.805   6.640  1.00  0.00     0.162 HD
HETATM   14  O   UNL     1      44.203 -15.662   7.887  1.00  0.00    -0.266 OA
BRANCH  12  15
HETATM   15  C   UNL     1      44.751 -12.931   8.494  1.00  0.00     0.149 C 
BRANCH  15  16
HETATM   16  C   UNL     1      46.146 -12.356   8.261  1.00  0.00     0.186 C 
BRANCH  16  17
HETATM   17  O   UNL     1      46.205 -11.030   8.796  1.00  0.00    -0.394 OA
HETATM   18  C   UNL     1      45.375 -10.894   9.942  1.00  0.00     0.201 C 
ENDBRANCH  16  17
ENDBRANCH  15  16
ENDBRANCH  12  15
ENDBRANCH   1  11
BRANCH   8  19
HETATM   19  C   UNL     1      43.355 -16.924   2.138  1.00  0.00     0.409 C 
HETATM   20  F   UNL     1      43.901 -15.688   2.088  1.00  0.00    -0.169 F 
HETATM   21  F   UNL     1      44.346 -17.760   2.543  1.00  0.00    -0.169 F 
HETATM   22  F   UNL     1      43.036 -17.276   0.879  1.00  0.00    -0.169 F 
ENDBRANCH   8  19
BRANCH   6  23
HETATM   23  C   UNL     1      40.852 -14.781   0.896  1.00  0.00    -0.034 A 
HETATM   24  C   UNL     1      40.754 -15.420  -0.354  1.00  0.00     0.034 A 
HETATM   25  C   UNL     1      41.243 -14.817  -1.520  1.00  0.00     0.056 A 
HETATM   26 CL   UNL     1      41.065 -15.680  -3.006  1.00  0.00    -0.083 Cl
HETATM   27  C   UNL     1      41.851 -13.562  -1.451  1.00  0.00     0.055 A 
HETATM   28 CL   UNL     1      42.488 -12.759  -2.841  1.00  0.00    -0.083 Cl
HETATM   29  C   UNL     1      41.964 -12.917  -0.218  1.00  0.00     0.026 A 
HETATM   30  C   UNL     1      41.469 -13.520   0.943  1.00  0.00     0.011 A 
ENDBRANCH   6  23
TORSDOF 6
ENDMDL
MODEL 5
REMARK VINA RESULT:      -7.4      4.334      6.077
REMARK  6 active torsions:
REMARK  status: ('A' for Active; 'I' for Inactive)
REMARK    1  A    between atoms: O_2  and  C_3 
REMARK    2  A    between atoms: C_3  and  C_4 
REMARK    3  A    between atoms: C_4  and  N_5 
REMARK       I    between atoms: N_5  and  C_6 
REMARK    4  A    between atoms: C_6  and  C_7 
REMARK    5  A    between atoms: C_12  and  C_13 
REMARK    6  A    between atoms: C_22  and  C_23 
ROOT
HETATM    1  C   UNL     1      41.717 -13.924  -0.540  1.00  0.00     0.148 A 
HETATM    2  N   UNL     1      41.908 -13.474   0.722  1.00  0.00    -0.165 NA
HETATM    3  N   UNL     1      41.611 -14.539   1.486  1.00  0.00    -0.240 N 
HETATM    4  C   UNL     1      41.171 -15.624   0.780  1.00  0.00     0.123 A 
HETATM    5  N   UNL     1      40.761 -16.754   1.391  1.00  0.00    -0.366 N 
HETATM    6  C   UNL     1      40.830 -16.935   2.835  1.00  0.00     0.118 C 
HETATM    7  C   UNL     1      40.799 -15.574   3.559  1.00  0.00     0.066 C 
HETATM    8  C   UNL     1      41.692 -14.488   2.931  1.00  0.00     0.221 C 
HETATM    9  C   UNL     1      41.252 -15.268  -0.540  1.00  0.00     0.088 A 
HETATM   10  H   UNL     1      40.507 -17.581   0.851  1.00  0.00     0.161 HD
ENDROOT
BRANCH   1  11
HETATM   11  C   UNL     1      41.972 -13.089  -1.724  1.00  0.00     0.272 C 
HETATM   12  N   UNL     1      42.326 -11.795  -1.419  1.00  0.00    -0.354 N 
HETATM   13  H   UNL     1      42.513 -11.610  -0.435  1.00  0.00     0.162 HD
HETATM   14  O   UNL     1      41.884 -13.519  -2.870  1.00  0.00    -0.266 OA
BRANCH  12  15
HETATM   15  C   UNL     1      42.845 -10.874  -2.409  1.00  0.00     0.149 C 
BRANCH  15  16
HETATM   16  C   UNL     1      41.824  -9.794  -2.758  1.00  0.00     0.186 C 
BRANCH  16  17
HETATM   17  O   UNL     1      41.918  -9.492  -4.155  1.00  0.00    -0.394 OA
HETATM   18  C   UNL     1      42.359 -10.619  -4.902  1.00  0.00     0.201 C 
ENDBRANCH  16  17
ENDBRANCH  15  16
ENDBRANCH  12  15
ENDBRANCH   1  11
BRANCH   8  19
HETATM   19  C   UNL     1      43.135 -14.551   3.380  1.00  0.00     0.409 C 
HETATM   20  F   UNL     1      43.703 -13.325   3.446  1.00  0.00    -0.169 F 
HETATM   21  F   UNL     1      43.205 -15.069   4.634  1.00  0.00    -0.169 F 
HETATM   22  F   UNL     1      43.915 -15.316   2.595  1.00  0.00    -0.169 F 
ENDBRANCH   8  19
BRANCH   6  23
HETATM   23  C   UNL     1      41.956 -17.867   3.255  1.00  0.00    -0.034 A 
HETATM   24  C   UNL     1      42.262 -18.138   4.602  1.00  0.00     0.034 A 
HETATM   25  C   UNL     1      43.321 -18.986   4.951  1.00  0.00     0.056 A 
HETATM   26 CL   UNL     1      43.609 -19.263   6.631  1.00  0.00    -0.083 Cl
HETATM   27  C   UNL     1      44.102 -19.570   3.951  1.00  0.00     0.055 A 
HETATM   28 CL   UNL     1      45.431 -20.616   4.301  1.00  0.00    -0.083 Cl
HETATM   29  C   UNL     1      43.818 -19.305   2.610  1.00  0.00     0.026 A 
HETATM   30  C   UNL     1      42.756 -18.463   2.266  1.00  0.00     0.011 A 
ENDBRANCH   6  23
TORSDOF 6
ENDMDL
MODEL 6
REMARK VINA RESULT:      -7.2      3.769      5.437
REMARK  6 active torsions:
REMARK  status: ('A' for Active; 'I' for Inactive)
REMARK    1  A    between atoms: O_2  and  C_3 
REMARK    2  A    between atoms: C_3  and  C_4 
REMARK    3  A    between atoms: C_4  and  N_5 
REMARK       I    between atoms: N_5  and  C_6 
REMARK    4  A    between atoms: C_6  and  C_7 
REMARK    5  A    between atoms: C_12  and  C_13 
REMARK    6  A    between atoms: C_22  and  C_23 
ROOT
HETATM    1  C   UNL     1      40.598 -14.027   0.655  1.00  0.00     0.148 A 
HETATM    2  N   UNL     1      41.278 -13.536   1.717  1.00  0.00    -0.165 NA
HETATM    3  N   UNL     1      41.239 -14.540   2.609  1.00  0.00    -0.240 N 
HETATM    4  C   UNL     1      40.509 -15.620   2.199  1.00  0.00     0.123 A 
HETATM    5  N   UNL     1      40.304 -16.688   2.997  1.00  0.00    -0.366 N 
HETATM    6  C   UNL     1      40.908 -16.808   4.318  1.00  0.00     0.118 C 
HETATM    7  C   UNL     1      41.225 -15.417   4.903  1.00  0.00     0.066 C 
HETATM    8  C   UNL     1      41.867 -14.430   3.910  1.00  0.00     0.221 C 
HETATM    9  C   UNL     1      40.099 -15.332   0.925  1.00  0.00     0.088 A 
HETATM   10  H   UNL     1      39.821 -17.517   2.652  1.00  0.00     0.161 HD
ENDROOT
BRANCH   1  11
HETATM   11  C   UNL     1      40.426 -13.268  -0.593  1.00  0.00     0.272 C 
HETATM   12  N   UNL     1      41.359 -12.272  -0.764  1.00  0.00    -0.354 N 
HETATM   13  H   UNL     1      42.131 -12.273  -0.100  1.00  0.00     0.162 HD
HETATM   14  O   UNL     1      39.537 -13.514  -1.402  1.00  0.00    -0.266 OA
BRANCH  12  15
HETATM   15  C   UNL     1      41.522 -11.562  -2.016  1.00  0.00     0.149 C 
BRANCH  15  16
HETATM   16  C   UNL     1      42.920 -10.963  -2.144  1.00  0.00     0.186 C 
BRANCH  16  17
HETATM   17  O   UNL     1      43.472 -10.771  -0.837  1.00  0.00    -0.394 OA
HETATM   18  C   UNL     1      43.596  -9.390  -0.522  1.00  0.00     0.201 C 
ENDBRANCH  16  17
ENDBRANCH  15  16
ENDBRANCH  12  15
ENDBRANCH   1  11
BRANCH   8  19
HETATM   19  C   UNL     1      43.367 -14.580   3.785  1.00  0.00     0.409 C 
HETATM   20  F   UNL     1      43.976 -13.405   3.507  1.00  0.00    -0.169 F 
HETATM   21  F   UNL     1      43.887 -15.006   4.965  1.00  0.00    -0.169 F 
HETATM   22  F   UNL     1      43.748 -15.466   2.846  1.00  0.00    -0.169 F 
ENDBRANCH   8  19
BRANCH   6  23
HETATM   23  C   UNL     1      42.059 -17.801   4.347  1.00  0.00    -0.034 A 
HETATM   24  C   UNL     1      42.476 -18.521   3.212  1.00  0.00     0.034 A 
HETATM   25  C   UNL     1      43.528 -19.444   3.281  1.00  0.00     0.056 A 
HETATM   26 CL   UNL     1      43.971 -20.269   1.829  1.00  0.00    -0.083 Cl
HETATM   27  C   UNL     1      44.176 -19.670   4.497  1.00  0.00     0.055 A 
HETATM   28 CL   UNL     1      45.472 -20.799   4.667  1.00  0.00    -0.083 Cl
HETATM   29  C   UNL     1      43.769 -18.971   5.635  1.00  0.00     0.026 A 
HETATM   30  C   UNL     1      42.722 -18.046   5.560  1.00  0.00     0.011 A 
ENDBRANCH   6  23
TORSDOF 6
ENDMDL
MODEL 7
REMARK VINA RESULT:      -7.1      1.458      2.227
REMARK  6 active torsions:
REMARK  status: ('A' for Active; 'I' for Inactive)
REMARK    1  A    between atoms: O_2  and  C_3 
REMARK    2  A    between atoms: C_3  and  C_4 
REMARK    3  A    between atoms: C_4  and  N_5 
REMARK       I    between atoms: N_5  and  C_6 
REMARK    4  A    between atoms: C_6  and  C_7 
REMARK    5  A    between atoms: C_12  and  C_13 
REMARK    6  A    between atoms: C_22  and  C_23 
ROOT
HETATM    1  C   UNL     1      40.853 -13.635   4.488  1.00  0.00     0.148 A 
HETATM    2  N   UNL     1      40.348 -14.324   3.438  1.00  0.00    -0.165 NA
HETATM    3  N   UNL     1      41.394 -15.046   3.001  1.00  0.00    -0.240 N 
HETATM    4  C   UNL     1      42.558 -14.800   3.674  1.00  0.00     0.123 A 
HETATM    5  N   UNL     1      43.722 -15.384   3.321  1.00  0.00    -0.366 N 
HETATM    6  C   UNL     1      43.813 -16.375   2.256  1.00  0.00     0.118 C 
HETATM    7  C   UNL     1      42.666 -16.195   1.243  1.00  0.00     0.066 C 
HETATM    8  C   UNL     1      41.282 -15.944   1.871  1.00  0.00     0.221 C 
HETATM    9  C   UNL     1      42.238 -13.909   4.662  1.00  0.00     0.088 A 
HETATM   10  H   UNL     1      44.566 -15.250   3.877  1.00  0.00     0.161 HD
ENDROOT
BRANCH   1  11
HETATM   11  C   UNL     1      40.032 -12.733   5.310  1.00  0.00     0.272 C 
HETATM   12  N   UNL     1      40.500 -11.440   5.343  1.00  0.00    -0.354 N 
HETATM   13  H   UNL     1      41.253 -11.228   4.693  1.00  0.00     0.162 HD
HETATM   14  O   UNL     1      39.021 -13.107   5.898  1.00  0.00    -0.266 OA
BRANCH  12  15
HETATM   15  C   UNL     1      39.728 -10.345   5.892  1.00  0.00     0.149 C 
BRANCH  15  16
HETATM   16  C   UNL     1      39.111  -9.486   4.792  1.00  0.00     0.186 C 
BRANCH  16  17
HETATM   17  O   UNL     1      37.853 -10.049   4.404  1.00  0.00    -0.394 OA
HETATM   18  C   UNL     1      37.868 -10.470   3.046  1.00  0.00     0.201 C 
ENDBRANCH  16  17
ENDBRANCH  15  16
ENDBRANCH  12  15
ENDBRANCH   1  11
BRANCH   8  19
HETATM   19  C   UNL     1      40.558 -17.210   2.274  1.00  0.00     0.409 C 
HETATM   20  F   UNL     1      39.214 -17.076   2.196  1.00  0.00    -0.169 F 
HETATM   21  F   UNL     1      40.887 -18.219   1.426  1.00  0.00    -0.169 F 
HETATM   22  F   UNL     1      40.851 -17.631   3.518  1.00  0.00    -0.169 F 
ENDBRANCH   8  19
BRANCH   6  23
HETATM   23  C   UNL     1      43.993 -17.788   2.786  1.00  0.00    -0.034 A 
HETATM   24  C   UNL     1      43.960 -18.926   1.959  1.00  0.00     0.034 A 
HETATM   25  C   UNL     1      44.109 -20.215   2.486  1.00  0.00     0.056 A 
HETATM   26 CL   UNL     1      44.062 -21.545   1.385  1.00  0.00    -0.083 Cl
HETATM   27  C   UNL     1      44.284 -20.387   3.861  1.00  0.00     0.055 A 
HETATM   28 CL   UNL     1      44.463 -21.943   4.589  1.00  0.00    -0.083 Cl
HETATM   29  C   UNL     1      44.311 -19.270   4.698  1.00  0.00     0.026 A 
HETATM   30  C   UNL     1      44.168 -17.985   4.166  1.00  0.00     0.011 A 
ENDBRANCH   6  23
TORSDOF 6
ENDMDL
MODEL 8
REMARK VINA RESULT:      -6.9      4.442      6.453
REMARK  6 active torsions:
REMARK  status: ('A' for Active; 'I' for Inactive)
REMARK    1  A    between atoms: O_2  and  C_3 
REMARK    2  A    between atoms: C_3  and  C_4 
REMARK    3  A    between atoms: C_4  and  N_5 
REMARK       I    between atoms: N_5  and  C_6 
REMARK    4  A    between atoms: C_6  and  C_7 
REMARK    5  A    between atoms: C_12  and  C_13 
REMARK    6  A    between atoms: C_22  and  C_23 
ROOT
HETATM    1  C   UNL     1      42.254 -15.535   5.309  1.00  0.00     0.148 A 
HETATM    2  N   UNL     1      41.853 -16.517   4.469  1.00  0.00    -0.165 NA
HETATM    3  N   UNL     1      41.156 -15.860   3.525  1.00  0.00    -0.240 N 
HETATM    4  C   UNL     1      41.032 -14.519   3.759  1.00  0.00     0.123 A 
HETATM    5  N   UNL     1      40.305 -13.719   2.952  1.00  0.00    -0.366 N 
HETATM    6  C   UNL     1      39.667 -14.203   1.734  1.00  0.00     0.118 C 
HETATM    7  C   UNL     1      39.388 -15.717   1.828  1.00  0.00     0.066 C 
HETATM    8  C   UNL     1      40.544 -16.552   2.410  1.00  0.00     0.221 C 
HETATM    9  C   UNL     1      41.754 -14.268   4.894  1.00  0.00     0.088 A 
HETATM   10  H   UNL     1      40.283 -12.710   3.094  1.00  0.00     0.161 HD
ENDROOT
BRANCH   1  11
HETATM   11  C   UNL     1      43.097 -15.796   6.486  1.00  0.00     0.272 C 
HETATM   12  N   UNL     1      42.646 -16.836   7.266  1.00  0.00    -0.354 N 
HETATM   13  H   UNL     1      41.887 -17.386   6.870  1.00  0.00     0.162 HD
HETATM   14  O   UNL     1      44.110 -15.149   6.733  1.00  0.00    -0.266 OA
BRANCH  12  15
HETATM   15  C   UNL     1      43.439 -17.413   8.331  1.00  0.00     0.149 C 
BRANCH  15  16
HETATM   16  C   UNL     1      44.049 -18.749   7.916  1.00  0.00     0.186 C 
BRANCH  16  17
HETATM   17  O   UNL     1      43.486 -19.156   6.665  1.00  0.00    -0.394 OA
HETATM   18  C   UNL     1      44.146 -20.304   6.146  1.00  0.00     0.201 C 
ENDBRANCH  16  17
ENDBRANCH  15  16
ENDBRANCH  12  15
ENDBRANCH   1  11
BRANCH   8  19
HETATM   19  C   UNL     1      41.592 -16.936   1.390  1.00  0.00     0.409 C 
HETATM   20  F   UNL     1      42.597 -16.033   1.325  1.00  0.00    -0.169 F 
HETATM   21  F   UNL     1      42.166 -18.116   1.740  1.00  0.00    -0.169 F 
HETATM   22  F   UNL     1      41.107 -17.090   0.144  1.00  0.00    -0.169 F 
ENDBRANCH   8  19
BRANCH   6  23
HETATM   23  C   UNL     1      40.391 -13.754   0.476  1.00  0.00    -0.034 A 
HETATM   24  C   UNL     1      40.066 -14.234  -0.807  1.00  0.00     0.034 A 
HETATM   25  C   UNL     1      40.770 -13.813  -1.942  1.00  0.00     0.056 A 
HETATM   26 CL   UNL     1      40.286 -14.453  -3.472  1.00  0.00    -0.083 Cl
HETATM   27  C   UNL     1      41.826 -12.908  -1.809  1.00  0.00     0.055 A 
HETATM   28 CL   UNL     1      42.749 -12.350  -3.158  1.00  0.00    -0.083 Cl
HETATM   29  C   UNL     1      42.168 -12.428  -0.544  1.00  0.00     0.026 A 
HETATM   30  C   UNL     1      41.458 -12.847   0.586  1.00  0.00     0.011 A 
ENDBRANCH   6  23
TORSDOF 6
ENDMDL
MODEL 9
REMARK VINA RESULT:      -6.8      4.205      6.268
REMARK  6 active torsions:
REMARK  status: ('A' for Active; 'I' for Inactive)
REMARK    1  A    between atoms: O_2  and  C_3 
REMARK    2  A    between atoms: C_3  and  C_4 
REMARK    3  A    between atoms: C_4  and  N_5 
REMARK       I    between atoms: N_5  and  C_6 
REMARK    4  A    between atoms: C_6  and  C_7 
REMARK    5  A    between atoms: C_12  and  C_13 
REMARK    6  A    between atoms: C_22  and  C_23 
ROOT
HETATM    1  C   UNL     1      41.996 -13.207  -0.474  1.00  0.00     0.148 A 
HETATM    2  N   UNL     1      41.802 -12.776   0.794  1.00  0.00    -0.165 NA
HETATM    3  N   UNL     1      41.352 -13.870   1.433  1.00  0.00    -0.240 N 
HETATM    4  C   UNL     1      41.183 -14.957   0.622  1.00  0.00     0.123 A 
HETATM    5  N   UNL     1      40.672 -16.118   1.083  1.00  0.00    -0.366 N 
HETATM    6  C   UNL     1      40.338 -16.327   2.486  1.00  0.00     0.118 C 
HETATM    7  C   UNL     1      40.039 -14.985   3.183  1.00  0.00     0.066 C 
HETATM    8  C   UNL     1      41.020 -13.847   2.842  1.00  0.00     0.221 C 
HETATM    9  C   UNL     1      41.615 -14.570  -0.618  1.00  0.00     0.088 A 
HETATM   10  H   UNL     1      40.620 -16.943   0.486  1.00  0.00     0.161 HD
ENDROOT
BRANCH   1  11
HETATM   11  C   UNL     1      42.535 -12.336  -1.530  1.00  0.00     0.272 C 
HETATM   12  N   UNL     1      42.034 -12.614  -2.781  1.00  0.00    -0.354 N 
HETATM   13  H   UNL     1      41.257 -13.271  -2.808  1.00  0.00     0.162 HD
HETATM   14  O   UNL     1      43.346 -11.443  -1.304  1.00  0.00    -0.266 OA
BRANCH  12  15
HETATM   15  C   UNL     1      42.244 -11.741  -3.917  1.00  0.00     0.149 C 
BRANCH  15  16
HETATM   16  C   UNL     1      40.934 -11.128  -4.404  1.00  0.00     0.186 C 
BRANCH  16  17
HETATM   17  O   UNL     1      40.343 -10.373  -3.341  1.00  0.00    -0.394 OA
HETATM   18  C   UNL     1      38.958 -10.664  -3.203  1.00  0.00     0.201 C 
ENDBRANCH  16  17
ENDBRANCH  15  16
ENDBRANCH  12  15
ENDBRANCH   1  11
BRANCH   8  19
HETATM   19  C   UNL     1      42.279 -13.857   3.681  1.00  0.00     0.409 C 
HETATM   20  F   UNL     1      43.276 -14.558   3.096  1.00  0.00    -0.169 F 
HETATM   21  F   UNL     1      42.744 -12.589   3.829  1.00  0.00    -0.169 F 
HETATM   22  F   UNL     1      42.104 -14.357   4.918  1.00  0.00    -0.169 F 
ENDBRANCH   8  19
BRANCH   6  23
HETATM   23  C   UNL     1      41.343 -17.217   3.199  1.00  0.00    -0.034 A 
HETATM   24  C   UNL     1      42.337 -17.946   2.519  1.00  0.00     0.034 A 
HETATM   25  C   UNL     1      43.233 -18.774   3.208  1.00  0.00     0.056 A 
HETATM   26 CL   UNL     1      44.422 -19.618   2.283  1.00  0.00    -0.083 Cl
HETATM   27  C   UNL     1      43.141 -18.893   4.597  1.00  0.00     0.055 A 
HETATM   28 CL   UNL     1      44.200 -19.901   5.516  1.00  0.00    -0.083 Cl
HETATM   29  C   UNL     1      42.156 -18.184   5.287  1.00  0.00     0.026 A 
HETATM   30  C   UNL     1      41.267 -17.355   4.595  1.00  0.00     0.011 A 
ENDBRANCH   6  23
TORSDOF 6
ENDMDL
MODEL 10
REMARK VINA RESULT:      -6.8      4.670      8.071
REMARK  6 active torsions:
REMARK  status: ('A' for Active; 'I' for Inactive)
REMARK    1  A    between atoms: O_2  and  C_3 
REMARK    2  A    between atoms: C_3  and  C_4 
REMARK    3  A    between atoms: C_4  and  N_5 
REMARK       I    between atoms: N_5  and  C_6 
REMARK    4  A    between atoms: C_6  and  C_7 
REMARK    5  A    between atoms: C_12  and  C_13 
REMARK    6  A    between atoms: C_22  and  C_23 
ROOT
HETATM    1  C   UNL     1      42.720 -17.077   5.780  1.00  0.00     0.148 A 
HETATM    2  N   UNL     1      42.924 -16.275   4.709  1.00  0.00    -0.165 NA
HETATM    3  N   UNL     1      41.841 -15.479   4.700  1.00  0.00    -0.240 N 
HETATM    4  C   UNL     1      40.923 -15.779   5.666  1.00  0.00     0.123 A 
HETATM    5  N   UNL     1      39.745 -15.127   5.757  1.00  0.00    -0.366 N 
HETATM    6  C   UNL     1      39.396 -14.010   4.889  1.00  0.00     0.118 C 
HETATM    7  C   UNL     1      40.170 -14.090   3.558  1.00  0.00     0.066 C 
HETATM    8  C   UNL     1      41.661 -14.450   3.697  1.00  0.00     0.221 C 
HETATM    9  C   UNL     1      41.472 -16.794   6.402  1.00  0.00     0.088 A 
HETATM   10  H   UNL     1      39.102 -15.309   6.527  1.00  0.00     0.161 HD
ENDROOT
BRANCH   1  11
HETATM   11  C   UNL     1      43.694 -18.094   6.203  1.00  0.00     0.272 C 
HETATM   12  N   UNL     1      43.408 -19.357   5.739  1.00  0.00    -0.354 N 
HETATM   13  H   UNL     1      42.660 -19.414   5.051  1.00  0.00     0.162 HD
HETATM   14  O   UNL     1      44.671 -17.829   6.897  1.00  0.00    -0.266 OA
BRANCH  12  15
HETATM   15  C   UNL     1      44.347 -20.455   5.836  1.00  0.00     0.149 C 
BRANCH  15  16
HETATM   16  C   UNL     1      45.073 -20.692   4.514  1.00  0.00     0.186 C 
BRANCH  16  17
HETATM   17  O   UNL     1      44.295 -20.142   3.445  1.00  0.00    -0.394 OA
HETATM   18  C   UNL     1      44.187 -21.053   2.358  1.00  0.00     0.201 C 
ENDBRANCH  16  17
ENDBRANCH  15  16
ENDBRANCH  12  15
ENDBRANCH   1  11
BRANCH   8  19
HETATM   19  C   UNL     1      42.549 -13.263   3.995  1.00  0.00     0.409 C 
HETATM   20  F   UNL     1      42.692 -13.054   5.324  1.00  0.00    -0.169 F 
HETATM   21  F   UNL     1      43.798 -13.487   3.510  1.00  0.00    -0.169 F 
HETATM   22  F   UNL     1      42.118 -12.110   3.449  1.00  0.00    -0.169 F 
ENDBRANCH   8  19
BRANCH   6  23
HETATM   23  C   UNL     1      39.472 -12.670   5.603  1.00  0.00    -0.034 A 
HETATM   24  C   UNL     1      39.564 -12.553   7.002  1.00  0.00     0.034 A 
HETATM   25  C   UNL     1      39.611 -11.299   7.627  1.00  0.00     0.056 A 
HETATM   26 CL   UNL     1      39.734 -11.263   9.349  1.00  0.00    -0.083 Cl
HETATM   27  C   UNL     1      39.555 -10.136   6.856  1.00  0.00     0.055 A 
HETATM   28 CL   UNL     1      39.596  -8.556   7.551  1.00  0.00    -0.083 Cl
HETATM   29  C   UNL     1      39.455 -10.234   5.467  1.00  0.00     0.026 A 
HETATM   30  C   UNL     1      39.415 -11.487   4.847  1.00  0.00     0.011 A 
ENDBRANCH   6  23
TORSDOF 6
ENDMDL
