MODEL 1
REMARK VINA RESULT:      -8.8      0.000      0.000
REMARK  7 active torsions:
REMARK  status: ('A' for Active; 'I' for Inactive)
REMARK    1  A    between atoms: O_2  and  C_3 
REMARK    2  A    between atoms: C_5  and  N_6 
REMARK    3  A    between atoms: C_7  and  O_8 
REMARK    4  A    between atoms: C_7  and  C_9 
REMARK       I    between atoms: C_9  and  N_10 
REMARK    5  A    between atoms: N_10  and  C_11 
REMARK    6  A    between atoms: C_11  and  C_12 
REMARK    7  A    between atoms: C_12  and  C_13 
ROOT
HETATM    1  N   UNL     1      41.369 -14.145   4.377  1.00  0.00    -0.254 N 
HETATM    2  C   UNL     1      41.092 -15.528   4.796  1.00  0.00     0.256 C 
HETATM    3  C   UNL     1      42.078 -16.044   5.827  1.00  0.00     0.034 A 
HETATM    4  C   UNL     1      43.347 -15.479   5.864  1.00  0.00     0.048 A 
HETATM    5  N   UNL     1      43.615 -14.400   5.033  1.00  0.00    -0.308 N 
HETATM    6  C   UNL     1      42.678 -13.684   4.345  1.00  0.00     0.330 C 
HETATM    7  O   UNL     1      43.069 -12.679   3.751  1.00  0.00    -0.246 OA
HETATM    8  C   UNL     1      41.805 -17.136   6.668  1.00  0.00     0.015 A 
HETATM    9  C   UNL     1      42.789 -17.633   7.525  1.00  0.00     0.001 A 
HETATM   10  C   UNL     1      44.058 -17.057   7.539  1.00  0.00     0.002 A 
HETATM   11  C   UNL     1      44.342 -15.979   6.703  1.00  0.00     0.030 A 
HETATM   12  H   UNL     1      44.532 -13.969   5.048  1.00  0.00     0.170 HD
ENDROOT
BRANCH   2  13
HETATM   13  O   UNL     1      39.816 -15.563   5.443  1.00  0.00    -0.359 OA
HETATM   14  H   UNL     1      39.223 -16.024   4.821  1.00  0.00     0.213 HD
ENDBRANCH   2  13
BRANCH   2  15
HETATM   15  C   UNL     1      41.109 -16.505   3.548  1.00  0.00     0.279 C 
HETATM   16  N   UNL     1      42.135 -16.353   2.635  1.00  0.00    -0.356 N 
HETATM   17  H   UNL     1      42.944 -15.808   2.918  1.00  0.00     0.162 HD
HETATM   18  O   UNL     1      40.235 -17.369   3.416  1.00  0.00    -0.268 OA
BRANCH  16  19
HETATM   19  C   UNL     1      42.297 -17.303   1.552  1.00  0.00     0.127 C 
BRANCH  19  20
HETATM   20  C   UNL     1      43.724 -17.848   1.442  1.00  0.00     0.058 C 
BRANCH  20  21
HETATM   21  C   UNL     1      44.032 -18.956   2.426  1.00  0.00    -0.057 A 
HETATM   22  C   UNL     1      44.119 -20.291   2.003  1.00  0.00     0.009 A 
HETATM   23  C   UNL     1      44.414 -21.307   2.914  1.00  0.00     0.024 A 
HETATM   24  C   UNL     1      44.635 -20.995   4.252  1.00  0.00     0.034 A 
HETATM   25 CL   UNL     1      45.004 -22.246   5.373  1.00  0.00    -0.084 Cl
HETATM   26  C   UNL     1      44.567 -19.674   4.686  1.00  0.00     0.024 A 
HETATM   27  C   UNL     1      44.266 -18.656   3.776  1.00  0.00     0.009 A 
ENDBRANCH  20  21
ENDBRANCH  19  20
ENDBRANCH  16  19
ENDBRANCH   2  15
BRANCH   1  28
HETATM   28  C   UNL     1      40.319 -13.309   3.853  1.00  0.00     0.045 A 
HETATM   29  C   UNL     1      39.738 -12.264   4.592  1.00  0.00     0.066 A 
HETATM   30  C   UNL     1      38.738 -11.455   4.040  1.00  0.00     0.070 A 
HETATM   31  C   UNL     1      38.335 -11.661   2.721  1.00  0.00     0.037 A 
HETATM   32  C   UNL     1      38.893 -12.690   1.971  1.00  0.00     0.005 A 
HETATM   33  C   UNL     1      39.869 -13.513   2.538  1.00  0.00     0.030 A 
BRANCH  30  34
HETATM   34  O   UNL     1      38.091 -10.432   4.681  1.00  0.00    -0.356 OA
HETATM   35  C   UNL     1      38.910  -9.448   5.303  1.00  0.00     0.210 C 
ENDBRANCH  30  34
ENDBRANCH   1  28
TORSDOF 7
ENDMDL
MODEL 2
REMARK VINA RESULT:      -8.8      1.977      5.231
REMARK  7 active torsions:
REMARK  status: ('A' for Active; 'I' for Inactive)
REMARK    1  A    between atoms: O_2  and  C_3 
REMARK    2  A    between atoms: C_5  and  N_6 
REMARK    3  A    between atoms: C_7  and  O_8 
REMARK    4  A    between atoms: C_7  and  C_9 
REMARK       I    between atoms: C_9  and  N_10 
REMARK    5  A    between atoms: N_10  and  C_11 
REMARK    6  A    between atoms: C_11  and  C_12 
REMARK    7  A    between atoms: C_12  and  C_13 
ROOT
HETATM    1  N   UNL     1      41.715 -14.322   3.559  1.00  0.00    -0.254 N 
HETATM    2  C   UNL     1      41.336 -14.306   4.980  1.00  0.00     0.256 C 
HETATM    3  C   UNL     1      40.742 -12.982   5.422  1.00  0.00     0.034 A 
HETATM    4  C   UNL     1      41.089 -11.837   4.717  1.00  0.00     0.048 A 
HETATM    5  N   UNL     1      41.875 -11.973   3.580  1.00  0.00    -0.308 N 
HETATM    6  C   UNL     1      42.149 -13.152   2.949  1.00  0.00     0.330 C 
HETATM    7  O   UNL     1      42.760 -13.085   1.882  1.00  0.00    -0.246 OA
HETATM    8  C   UNL     1      39.945 -12.846   6.572  1.00  0.00     0.015 A 
HETATM    9  C   UNL     1      39.511 -11.586   6.987  1.00  0.00     0.001 A 
HETATM   10  C   UNL     1      39.880 -10.450   6.271  1.00  0.00     0.002 A 
HETATM   11  C   UNL     1      40.677 -10.573   5.133  1.00  0.00     0.030 A 
HETATM   12  H   UNL     1      42.136 -11.152   3.048  1.00  0.00     0.170 HD
ENDROOT
BRANCH   2  13
HETATM   13  O   UNL     1      40.302 -15.274   5.189  1.00  0.00    -0.359 OA
HETATM   14  H   UNL     1      40.312 -15.839   4.394  1.00  0.00     0.213 HD
ENDBRANCH   2  13
BRANCH   2  15
HETATM   15  C   UNL     1      42.589 -14.627   5.896  1.00  0.00     0.279 C 
HETATM   16  N   UNL     1      42.540 -15.777   6.661  1.00  0.00    -0.356 N 
HETATM   17  H   UNL     1      41.837 -16.472   6.426  1.00  0.00     0.162 HD
HETATM   18  O   UNL     1      43.568 -13.873   5.908  1.00  0.00    -0.268 OA
BRANCH  16  19
HETATM   19  C   UNL     1      43.706 -16.210   7.406  1.00  0.00     0.127 C 
BRANCH  19  20
HETATM   20  C   UNL     1      43.510 -17.567   8.090  1.00  0.00     0.058 C 
BRANCH  20  21
HETATM   21  C   UNL     1      43.850 -18.748   7.207  1.00  0.00    -0.057 A 
HETATM   22  C   UNL     1      44.547 -18.570   6.003  1.00  0.00     0.009 A 
HETATM   23  C   UNL     1      44.868 -19.665   5.198  1.00  0.00     0.024 A 
HETATM   24  C   UNL     1      44.503 -20.948   5.596  1.00  0.00     0.034 A 
HETATM   25 CL   UNL     1      44.901 -22.298   4.609  1.00  0.00    -0.084 Cl
HETATM   26  C   UNL     1      43.822 -21.144   6.795  1.00  0.00     0.024 A 
HETATM   27  C   UNL     1      43.496 -20.048   7.599  1.00  0.00     0.009 A 
ENDBRANCH  20  21
ENDBRANCH  19  20
ENDBRANCH  16  19
ENDBRANCH   2  15
BRANCH   1  28
HETATM   28  C   UNL     1      41.788 -15.561   2.827  1.00  0.00     0.045 A 
HETATM   29  C   UNL     1      42.888 -16.431   2.912  1.00  0.00     0.066 A 
HETATM   30  C   UNL     1      42.913 -17.640   2.207  1.00  0.00     0.070 A 
HETATM   31  C   UNL     1      41.811 -18.010   1.436  1.00  0.00     0.037 A 
HETATM   32  C   UNL     1      40.712 -17.164   1.335  1.00  0.00     0.005 A 
HETATM   33  C   UNL     1      40.708 -15.946   2.017  1.00  0.00     0.030 A 
BRANCH  30  34
HETATM   34  O   UNL     1      43.943 -18.543   2.201  1.00  0.00    -0.356 OA
HETATM   35  C   UNL     1      43.611 -19.890   1.887  1.00  0.00     0.210 C 
ENDBRANCH  30  34
ENDBRANCH   1  28
TORSDOF 7
ENDMDL
MODEL 3
REMARK VINA RESULT:      -8.8      0.883      1.652
REMARK  7 active torsions:
REMARK  status: ('A' for Active; 'I' for Inactive)
REMARK    1  A    between atoms: O_2  and  C_3 
REMARK    2  A    between atoms: C_5  and  N_6 
REMARK    3  A    between atoms: C_7  and  O_8 
REMARK    4  A    between atoms: C_7  and  C_9 
REMARK       I    between atoms: C_9  and  N_10 
REMARK    5  A    between atoms: N_10  and  C_11 
REMARK    6  A    between atoms: C_11  and  C_12 
REMARK    7  A    between atoms: C_12  and  C_13 
ROOT
HETATM    1  N   UNL     1      41.436 -14.123   4.385  1.00  0.00    -0.254 N 
HETATM    2  C   UNL     1      41.118 -15.494   4.813  1.00  0.00     0.256 C 
HETATM    3  C   UNL     1      42.093 -16.036   5.841  1.00  0.00     0.034 A 
HETATM    4  C   UNL     1      43.379 -15.511   5.870  1.00  0.00     0.048 A 
HETATM    5  N   UNL     1      43.677 -14.445   5.032  1.00  0.00    -0.308 N 
HETATM    6  C   UNL     1      42.759 -13.703   4.344  1.00  0.00     0.330 C 
HETATM    7  O   UNL     1      43.178 -12.715   3.743  1.00  0.00    -0.246 OA
HETATM    8  C   UNL     1      41.790 -17.114   6.690  1.00  0.00     0.015 A 
HETATM    9  C   UNL     1      42.762 -17.638   7.545  1.00  0.00     0.001 A 
HETATM   10  C   UNL     1      44.048 -17.102   7.549  1.00  0.00     0.002 A 
HETATM   11  C   UNL     1      44.362 -16.037   6.706  1.00  0.00     0.030 A 
HETATM   12  H   UNL     1      44.606 -14.043   5.039  1.00  0.00     0.170 HD
ENDROOT
BRANCH   2  13
HETATM   13  O   UNL     1      39.845 -15.486   5.467  1.00  0.00    -0.359 OA
HETATM   14  H   UNL     1      39.993 -15.919   6.328  1.00  0.00     0.213 HD
ENDBRANCH   2  13
BRANCH   2  15
HETATM   15  C   UNL     1      41.098 -16.478   3.570  1.00  0.00     0.279 C 
HETATM   16  N   UNL     1      42.070 -16.302   2.604  1.00  0.00    -0.356 N 
HETATM   17  H   UNL     1      42.877 -15.733   2.842  1.00  0.00     0.162 HD
HETATM   18  O   UNL     1      40.244 -17.368   3.488  1.00  0.00    -0.268 OA
BRANCH  16  19
HETATM   19  C   UNL     1      42.203 -17.254   1.518  1.00  0.00     0.127 C 
BRANCH  19  20
HETATM   20  C   UNL     1      43.624 -17.808   1.377  1.00  0.00     0.058 C 
BRANCH  20  21
HETATM   21  C   UNL     1      43.953 -18.901   2.370  1.00  0.00    -0.057 A 
HETATM   22  C   UNL     1      44.056 -20.238   1.959  1.00  0.00     0.009 A 
HETATM   23  C   UNL     1      44.372 -21.242   2.878  1.00  0.00     0.024 A 
HETATM   24  C   UNL     1      44.597 -20.914   4.212  1.00  0.00     0.034 A 
HETATM   25 CL   UNL     1      44.991 -22.148   5.343  1.00  0.00    -0.084 Cl
HETATM   26  C   UNL     1      44.512 -19.589   4.634  1.00  0.00     0.024 A 
HETATM   27  C   UNL     1      44.191 -18.585   3.716  1.00  0.00     0.009 A 
ENDBRANCH  20  21
ENDBRANCH  19  20
ENDBRANCH  16  19
ENDBRANCH   2  15
BRANCH   1  28
HETATM   28  C   UNL     1      40.410 -13.257   3.861  1.00  0.00     0.045 A 
HETATM   29  C   UNL     1      39.776 -13.487   2.628  1.00  0.00     0.066 A 
HETATM   30  C   UNL     1      38.765 -12.638   2.164  1.00  0.00     0.070 A 
HETATM   31  C   UNL     1      38.349 -11.566   2.953  1.00  0.00     0.037 A 
HETATM   32  C   UNL     1      38.964 -11.318   4.175  1.00  0.00     0.005 A 
HETATM   33  C   UNL     1      39.993 -12.151   4.618  1.00  0.00     0.030 A 
BRANCH  30  34
HETATM   34  O   UNL     1      38.104 -12.758   0.970  1.00  0.00    -0.356 OA
HETATM   35  C   UNL     1      37.631 -14.056   0.629  1.00  0.00     0.210 C 
ENDBRANCH  30  34
ENDBRANCH   1  28
TORSDOF 7
ENDMDL
MODEL 4
REMARK VINA RESULT:      -8.7      1.760      5.033
REMARK  7 active torsions:
REMARK  status: ('A' for Active; 'I' for Inactive)
REMARK    1  A    between atoms: O_2  and  C_3 
REMARK    2  A    between atoms: C_5  and  N_6 
REMARK    3  A    between atoms: C_7  and  O_8 
REMARK    4  A    between atoms: C_7  and  C_9 
REMARK       I    between atoms: C_9  and  N_10 
REMARK    5  A    between atoms: N_10  and  C_11 
REMARK    6  A    between atoms: C_11  and  C_12 
REMARK    7  A    between atoms: C_12  and  C_13 
ROOT
HETATM    1  N   UNL     1      41.655 -13.862   4.442  1.00  0.00    -0.254 N 
HETATM    2  C   UNL     1      41.940 -13.810   3.000  1.00  0.00     0.256 C 
HETATM    3  C   UNL     1      41.213 -12.684   2.290  1.00  0.00     0.034 A 
HETATM    4  C   UNL     1      40.031 -12.210   2.848  1.00  0.00     0.048 A 
HETATM    5  N   UNL     1      39.632 -12.714   4.078  1.00  0.00    -0.308 N 
HETATM    6  C   UNL     1      40.410 -13.464   4.912  1.00  0.00     0.330 C 
HETATM    7  O   UNL     1      39.947 -13.727   6.022  1.00  0.00    -0.246 OA
HETATM    8  C   UNL     1      41.619 -12.174   1.046  1.00  0.00     0.015 A 
HETATM    9  C   UNL     1      40.851 -11.209   0.391  1.00  0.00     0.001 A 
HETATM   10  C   UNL     1      39.664 -10.755   0.964  1.00  0.00     0.002 A 
HETATM   11  C   UNL     1      39.248 -11.260   2.195  1.00  0.00     0.030 A 
HETATM   12  H   UNL     1      38.777 -12.379   4.505  1.00  0.00     0.170 HD
ENDROOT
BRANCH   2  13
HETATM   13  O   UNL     1      43.333 -13.533   2.819  1.00  0.00    -0.359 OA
HETATM   14  H   UNL     1      43.488 -13.601   1.858  1.00  0.00     0.213 HD
ENDBRANCH   2  13
BRANCH   2  15
HETATM   15  C   UNL     1      41.552 -15.179   2.303  1.00  0.00     0.279 C 
HETATM   16  N   UNL     1      42.585 -16.020   1.934  1.00  0.00    -0.356 N 
HETATM   17  H   UNL     1      43.502 -15.847   2.333  1.00  0.00     0.162 HD
HETATM   18  O   UNL     1      40.367 -15.473   2.111  1.00  0.00    -0.268 OA
BRANCH  16  19
HETATM   19  C   UNL     1      42.301 -17.349   1.428  1.00  0.00     0.127 C 
BRANCH  19  20
HETATM   20  C   UNL     1      43.565 -18.156   1.119  1.00  0.00     0.058 C 
BRANCH  20  21
HETATM   21  C   UNL     1      43.922 -19.164   2.190  1.00  0.00    -0.057 A 
HETATM   22  C   UNL     1      44.006 -20.533   1.890  1.00  0.00     0.009 A 
HETATM   23  C   UNL     1      44.346 -21.458   2.879  1.00  0.00     0.024 A 
HETATM   24  C   UNL     1      44.616 -21.020   4.173  1.00  0.00     0.034 A 
HETATM   25 CL   UNL     1      45.040 -22.158   5.390  1.00  0.00    -0.084 Cl
HETATM   26  C   UNL     1      44.550 -19.665   4.484  1.00  0.00     0.024 A 
HETATM   27  C   UNL     1      44.204 -18.739   3.496  1.00  0.00     0.009 A 
ENDBRANCH  20  21
ENDBRANCH  19  20
ENDBRANCH  16  19
ENDBRANCH   2  15
BRANCH   1  28
HETATM   28  C   UNL     1      42.590 -14.462   5.358  1.00  0.00     0.045 A 
HETATM   29  C   UNL     1      43.435 -13.705   6.189  1.00  0.00     0.066 A 
HETATM   30  C   UNL     1      44.313 -14.323   7.086  1.00  0.00     0.070 A 
HETATM   31  C   UNL     1      44.327 -15.714   7.190  1.00  0.00     0.037 A 
HETATM   32  C   UNL     1      43.502 -16.483   6.377  1.00  0.00     0.005 A 
HETATM   33  C   UNL     1      42.651 -15.861   5.462  1.00  0.00     0.030 A 
BRANCH  30  34
HETATM   34  O   UNL     1      45.192 -13.680   7.917  1.00  0.00    -0.356 OA
HETATM   35  C   UNL     1      44.684 -12.571   8.651  1.00  0.00     0.210 C 
ENDBRANCH  30  34
ENDBRANCH   1  28
TORSDOF 7
ENDMDL
MODEL 5
REMARK VINA RESULT:      -8.6      1.770      2.282
REMARK  7 active torsions:
REMARK  status: ('A' for Active; 'I' for Inactive)
REMARK    1  A    between atoms: O_2  and  C_3 
REMARK    2  A    between atoms: C_5  and  N_6 
REMARK    3  A    between atoms: C_7  and  O_8 
REMARK    4  A    between atoms: C_7  and  C_9 
REMARK       I    between atoms: C_9  and  N_10 
REMARK    5  A    between atoms: N_10  and  C_11 
REMARK    6  A    between atoms: C_11  and  C_12 
REMARK    7  A    between atoms: C_12  and  C_13 
ROOT
HETATM    1  N   UNL     1      40.828 -13.710   2.323  1.00  0.00    -0.254 N 
HETATM    2  C   UNL     1      40.831 -14.918   3.163  1.00  0.00     0.256 C 
HETATM    3  C   UNL     1      41.815 -14.839   4.315  1.00  0.00     0.034 A 
HETATM    4  C   UNL     1      42.918 -14.005   4.181  1.00  0.00     0.048 A 
HETATM    5  N   UNL     1      43.010 -13.206   3.049  1.00  0.00    -0.308 N 
HETATM    6  C   UNL     1      42.000 -12.984   2.158  1.00  0.00     0.330 C 
HETATM    7  O   UNL     1      42.207 -12.151   1.276  1.00  0.00    -0.246 OA
HETATM    8  C   UNL     1      41.720 -15.647   5.460  1.00  0.00     0.015 A 
HETATM    9  C   UNL     1      42.712 -15.604   6.441  1.00  0.00     0.001 A 
HETATM   10  C   UNL     1      43.815 -14.768   6.282  1.00  0.00     0.002 A 
HETATM   11  C   UNL     1      43.923 -13.967   5.146  1.00  0.00     0.030 A 
HETATM   12  H   UNL     1      43.803 -12.587   2.934  1.00  0.00     0.170 HD
ENDROOT
BRANCH   2  13
HETATM   13  O   UNL     1      39.543 -15.054   3.774  1.00  0.00    -0.359 OA
HETATM   14  H   UNL     1      39.275 -14.148   4.016  1.00  0.00     0.213 HD
ENDBRANCH   2  13
BRANCH   2  15
HETATM   15  C   UNL     1      41.171 -16.201   2.296  1.00  0.00     0.279 C 
HETATM   16  N   UNL     1      42.394 -16.227   1.651  1.00  0.00    -0.356 N 
HETATM   17  H   UNL     1      43.100 -15.560   1.948  1.00  0.00     0.162 HD
HETATM   18  O   UNL     1      40.368 -17.137   2.217  1.00  0.00    -0.268 OA
BRANCH  16  19
HETATM   19  C   UNL     1      42.833 -17.426   0.965  1.00  0.00     0.127 C 
BRANCH  19  20
HETATM   20  C   UNL     1      44.224 -17.892   1.405  1.00  0.00     0.058 C 
BRANCH  20  21
HETATM   21  C   UNL     1      44.213 -18.753   2.649  1.00  0.00    -0.057 A 
HETATM   22  C   UNL     1      44.529 -20.119   2.582  1.00  0.00     0.009 A 
HETATM   23  C   UNL     1      44.528 -20.906   3.735  1.00  0.00     0.024 A 
HETATM   24  C   UNL     1      44.223 -20.332   4.965  1.00  0.00     0.034 A 
HETATM   25 CL   UNL     1      44.227 -21.299   6.387  1.00  0.00    -0.084 Cl
HETATM   26  C   UNL     1      43.921 -18.975   5.052  1.00  0.00     0.024 A 
HETATM   27  C   UNL     1      43.916 -18.187   3.898  1.00  0.00     0.009 A 
ENDBRANCH  20  21
ENDBRANCH  19  20
ENDBRANCH  16  19
ENDBRANCH   2  15
BRANCH   1  28
HETATM   28  C   UNL     1      39.668 -13.354   1.547  1.00  0.00     0.045 A 
HETATM   29  C   UNL     1      38.766 -12.351   1.944  1.00  0.00     0.066 A 
HETATM   30  C   UNL     1      37.663 -12.013   1.150  1.00  0.00     0.070 A 
HETATM   31  C   UNL     1      37.473 -12.653  -0.074  1.00  0.00     0.037 A 
HETATM   32  C   UNL     1      38.351 -13.650  -0.486  1.00  0.00     0.005 A 
HETATM   33  C   UNL     1      39.431 -14.003   0.325  1.00  0.00     0.030 A 
BRANCH  30  34
HETATM   34  O   UNL     1      36.715 -11.073   1.456  1.00  0.00    -0.356 OA
HETATM   35  C   UNL     1      35.538 -11.068   0.656  1.00  0.00     0.210 C 
ENDBRANCH  30  34
ENDBRANCH   1  28
TORSDOF 7
ENDMDL
MODEL 6
REMARK VINA RESULT:      -8.4      4.155      7.824
REMARK  7 active torsions:
REMARK  status: ('A' for Active; 'I' for Inactive)
REMARK    1  A    between atoms: O_2  and  C_3 
REMARK    2  A    between atoms: C_5  and  N_6 
REMARK    3  A    between atoms: C_7  and  O_8 
REMARK    4  A    between atoms: C_7  and  C_9 
REMARK       I    between atoms: C_9  and  N_10 
REMARK    5  A    between atoms: N_10  and  C_11 
REMARK    6  A    between atoms: C_11  and  C_12 
REMARK    7  A    between atoms: C_12  and  C_13 
ROOT
HETATM    1  N   UNL     1      42.175 -17.141   3.715  1.00  0.00    -0.254 N 
HETATM    2  C   UNL     1      42.332 -15.909   2.927  1.00  0.00     0.256 C 
HETATM    3  C   UNL     1      41.977 -14.656   3.706  1.00  0.00     0.034 A 
HETATM    4  C   UNL     1      41.086 -14.772   4.766  1.00  0.00     0.048 A 
HETATM    5  N   UNL     1      40.649 -16.038   5.128  1.00  0.00    -0.308 N 
HETATM    6  C   UNL     1      41.191 -17.213   4.692  1.00  0.00     0.330 C 
HETATM    7  O   UNL     1      40.766 -18.248   5.205  1.00  0.00    -0.246 OA
HETATM    8  C   UNL     1      42.422 -13.375   3.340  1.00  0.00     0.015 A 
HETATM    9  C   UNL     1      41.979 -12.247   4.033  1.00  0.00     0.001 A 
HETATM   10  C   UNL     1      41.077 -12.385   5.087  1.00  0.00     0.002 A 
HETATM   11  C   UNL     1      40.624 -13.651   5.454  1.00  0.00     0.030 A 
HETATM   12  H   UNL     1      40.002 -16.146   5.901  1.00  0.00     0.170 HD
ENDROOT
BRANCH   2  13
HETATM   13  O   UNL     1      43.713 -15.760   2.580  1.00  0.00    -0.359 OA
HETATM   14  H   UNL     1      44.087 -16.660   2.617  1.00  0.00     0.213 HD
ENDBRANCH   2  13
BRANCH   2  15
HETATM   15  C   UNL     1      41.435 -15.961   1.622  1.00  0.00     0.279 C 
HETATM   16  N   UNL     1      42.077 -15.845   0.403  1.00  0.00    -0.356 N 
HETATM   17  H   UNL     1      43.084 -15.976   0.385  1.00  0.00     0.162 HD
HETATM   18  O   UNL     1      40.210 -16.109   1.706  1.00  0.00    -0.268 OA
BRANCH  16  19
HETATM   19  C   UNL     1      41.341 -16.033  -0.832  1.00  0.00     0.127 C 
BRANCH  19  20
HETATM   20  C   UNL     1      41.180 -14.739  -1.636  1.00  0.00     0.058 C 
BRANCH  20  21
HETATM   21  C   UNL     1      39.877 -14.655  -2.401  1.00  0.00    -0.057 A 
HETATM   22  C   UNL     1      39.605 -15.538  -3.457  1.00  0.00     0.009 A 
HETATM   23  C   UNL     1      38.396 -15.463  -4.152  1.00  0.00     0.024 A 
HETATM   24  C   UNL     1      37.446 -14.513  -3.789  1.00  0.00     0.034 A 
HETATM   25 CL   UNL     1      35.955 -14.423  -4.641  1.00  0.00    -0.084 Cl
HETATM   26  C   UNL     1      37.695 -13.637  -2.735  1.00  0.00     0.024 A 
HETATM   27  C   UNL     1      38.906 -13.708  -2.042  1.00  0.00     0.009 A 
ENDBRANCH  20  21
ENDBRANCH  19  20
ENDBRANCH  16  19
ENDBRANCH   2  15
BRANCH   1  28
HETATM   28  C   UNL     1      42.923 -18.327   3.386  1.00  0.00     0.045 A 
HETATM   29  C   UNL     1      43.823 -18.932   4.281  1.00  0.00     0.066 A 
HETATM   30  C   UNL     1      44.514 -20.099   3.937  1.00  0.00     0.070 A 
HETATM   31  C   UNL     1      44.279 -20.699   2.700  1.00  0.00     0.037 A 
HETATM   32  C   UNL     1      43.396 -20.118   1.797  1.00  0.00     0.005 A 
HETATM   33  C   UNL     1      42.733 -18.936   2.136  1.00  0.00     0.030 A 
BRANCH  30  34
HETATM   34  O   UNL     1      45.428 -20.750   4.722  1.00  0.00    -0.356 OA
HETATM   35  C   UNL     1      45.093 -22.072   5.132  1.00  0.00     0.210 C 
ENDBRANCH  30  34
ENDBRANCH   1  28
TORSDOF 7
ENDMDL
MODEL 7
REMARK VINA RESULT:      -8.4      2.041      4.082
REMARK  7 active torsions:
REMARK  status: ('A' for Active; 'I' for Inactive)
REMARK    1  A    between atoms: O_2  and  C_3 
REMARK    2  A    between atoms: C_5  and  N_6 
REMARK    3  A    between atoms: C_7  and  O_8 
REMARK    4  A    between atoms: C_7  and  C_9 
REMARK       I    between atoms: C_9  and  N_10 
REMARK    5  A    between atoms: N_10  and  C_11 
REMARK    6  A    between atoms: C_11  and  C_12 
REMARK    7  A    between atoms: C_12  and  C_13 
ROOT
HETATM    1  N   UNL     1      41.076 -13.172   4.220  1.00  0.00    -0.254 N 
HETATM    2  C   UNL     1      42.221 -13.808   3.552  1.00  0.00     0.256 C 
HETATM    3  C   UNL     1      41.816 -14.945   2.632  1.00  0.00     0.034 A 
HETATM    4  C   UNL     1      40.626 -15.611   2.895  1.00  0.00     0.048 A 
HETATM    5  N   UNL     1      39.814 -15.136   3.916  1.00  0.00    -0.308 N 
HETATM    6  C   UNL     1      39.957 -13.930   4.541  1.00  0.00     0.330 C 
HETATM    7  O   UNL     1      39.079 -13.608   5.341  1.00  0.00    -0.246 OA
HETATM    8  C   UNL     1      42.638 -15.423   1.598  1.00  0.00     0.015 A 
HETATM    9  C   UNL     1      42.258 -16.540   0.851  1.00  0.00     0.001 A 
HETATM   10  C   UNL     1      41.065 -17.198   1.138  1.00  0.00     0.002 A 
HETATM   11  C   UNL     1      40.245 -16.737   2.167  1.00  0.00     0.030 A 
HETATM   12  H   UNL     1      38.939 -15.603   4.122  1.00  0.00     0.170 HD
ENDROOT
BRANCH   2  13
HETATM   13  O   UNL     1      42.850 -12.841   2.703  1.00  0.00    -0.359 OA
HETATM   14  H   UNL     1      43.735 -13.203   2.511  1.00  0.00     0.213 HD
ENDBRANCH   2  13
BRANCH   2  15
HETATM   15  C   UNL     1      43.253 -14.364   4.618  1.00  0.00     0.279 C 
HETATM   16  N   UNL     1      42.978 -15.592   5.189  1.00  0.00    -0.356 N 
HETATM   17  H   UNL     1      42.283 -16.179   4.737  1.00  0.00     0.162 HD
HETATM   18  O   UNL     1      44.264 -13.717   4.911  1.00  0.00    -0.268 OA
BRANCH  16  19
HETATM   19  C   UNL     1      43.948 -16.229   6.058  1.00  0.00     0.127 C 
BRANCH  19  20
HETATM   20  C   UNL     1      43.591 -17.680   6.394  1.00  0.00     0.058 C 
BRANCH  20  21
HETATM   21  C   UNL     1      43.872 -18.653   5.271  1.00  0.00    -0.057 A 
HETATM   22  C   UNL     1      44.693 -19.772   5.477  1.00  0.00     0.009 A 
HETATM   23  C   UNL     1      44.941 -20.674   4.440  1.00  0.00     0.024 A 
HETATM   24  C   UNL     1      44.361 -20.469   3.192  1.00  0.00     0.034 A 
HETATM   25 CL   UNL     1      44.660 -21.581   1.915  1.00  0.00    -0.084 Cl
HETATM   26  C   UNL     1      43.532 -19.371   2.973  1.00  0.00     0.024 A 
HETATM   27  C   UNL     1      43.288 -18.466   4.009  1.00  0.00     0.009 A 
ENDBRANCH  20  21
ENDBRANCH  19  20
ENDBRANCH  16  19
ENDBRANCH   2  15
BRANCH   1  28
HETATM   28  C   UNL     1      41.155 -11.811   4.685  1.00  0.00     0.045 A 
HETATM   29  C   UNL     1      41.623 -11.469   5.966  1.00  0.00     0.066 A 
HETATM   30  C   UNL     1      41.711 -10.133   6.373  1.00  0.00     0.070 A 
HETATM   31  C   UNL     1      41.365  -9.117   5.483  1.00  0.00     0.037 A 
HETATM   32  C   UNL     1      40.895  -9.431   4.212  1.00  0.00     0.005 A 
HETATM   33  C   UNL     1      40.782 -10.767   3.823  1.00  0.00     0.030 A 
BRANCH  30  34
HETATM   34  O   UNL     1      42.128  -9.697   7.603  1.00  0.00    -0.356 OA
HETATM   35  C   UNL     1      42.012 -10.617   8.682  1.00  0.00     0.210 C 
ENDBRANCH  30  34
ENDBRANCH   1  28
TORSDOF 7
ENDMDL
MODEL 8
REMARK VINA RESULT:      -8.4      3.038      4.594
REMARK  7 active torsions:
REMARK  status: ('A' for Active; 'I' for Inactive)
REMARK    1  A    between atoms: O_2  and  C_3 
REMARK    2  A    between atoms: C_5  and  N_6 
REMARK    3  A    between atoms: C_7  and  O_8 
REMARK    4  A    between atoms: C_7  and  C_9 
REMARK       I    between atoms: C_9  and  N_10 
REMARK    5  A    between atoms: N_10  and  C_11 
REMARK    6  A    between atoms: C_11  and  C_12 
REMARK    7  A    between atoms: C_12  and  C_13 
ROOT
HETATM    1  N   UNL     1      40.935 -14.030   0.647  1.00  0.00    -0.254 N 
HETATM    2  C   UNL     1      40.569 -14.797   1.847  1.00  0.00     0.256 C 
HETATM    3  C   UNL     1      40.549 -13.955   3.108  1.00  0.00     0.034 A 
HETATM    4  C   UNL     1      41.341 -12.814   3.150  1.00  0.00     0.048 A 
HETATM    5  N   UNL     1      42.026 -12.443   2.001  1.00  0.00    -0.308 N 
HETATM    6  C   UNL     1      41.814 -12.961   0.755  1.00  0.00     0.330 C 
HETATM    7  O   UNL     1      42.420 -12.434  -0.178  1.00  0.00    -0.246 OA
HETATM    8  C   UNL     1      39.854 -14.331   4.270  1.00  0.00     0.015 A 
HETATM    9  C   UNL     1      39.957 -13.568   5.435  1.00  0.00     0.001 A 
HETATM   10  C   UNL     1      40.765 -12.434   5.457  1.00  0.00     0.002 A 
HETATM   11  C   UNL     1      41.465 -12.055   4.312  1.00  0.00     0.030 A 
HETATM   12  H   UNL     1      42.606 -11.612   2.007  1.00  0.00     0.170 HD
ENDROOT
BRANCH   2  13
HETATM   13  O   UNL     1      39.229 -15.277   1.692  1.00  0.00    -0.359 OA
HETATM   14  H   UNL     1      38.909 -15.447   2.598  1.00  0.00     0.213 HD
ENDBRANCH   2  13
BRANCH   2  15
HETATM   15  C   UNL     1      41.569 -16.007   2.064  1.00  0.00     0.279 C 
HETATM   16  N   UNL     1      42.867 -15.848   1.614  1.00  0.00    -0.356 N 
HETATM   17  H   UNL     1      43.180 -14.907   1.396  1.00  0.00     0.162 HD
HETATM   18  O   UNL     1      41.191 -17.043   2.623  1.00  0.00    -0.268 OA
BRANCH  16  19
HETATM   19  C   UNL     1      43.872 -16.851   1.910  1.00  0.00     0.127 C 
BRANCH  19  20
HETATM   20  C   UNL     1      43.510 -18.239   1.374  1.00  0.00     0.058 C 
BRANCH  20  21
HETATM   21  C   UNL     1      43.925 -19.372   2.287  1.00  0.00    -0.057 A 
HETATM   22  C   UNL     1      44.252 -19.131   3.630  1.00  0.00     0.009 A 
HETATM   23  C   UNL     1      44.623 -20.182   4.471  1.00  0.00     0.024 A 
HETATM   24  C   UNL     1      44.659 -21.483   3.979  1.00  0.00     0.034 A 
HETATM   25 CL   UNL     1      45.110 -22.779   5.015  1.00  0.00    -0.084 Cl
HETATM   26  C   UNL     1      44.324 -21.742   2.652  1.00  0.00     0.024 A 
HETATM   27  C   UNL     1      43.958 -20.690   1.808  1.00  0.00     0.009 A 
ENDBRANCH  20  21
ENDBRANCH  19  20
ENDBRANCH  16  19
ENDBRANCH   2  15
BRANCH   1  28
HETATM   28  C   UNL     1      40.516 -14.462  -0.662  1.00  0.00     0.045 A 
HETATM   29  C   UNL     1      39.414 -13.902  -1.332  1.00  0.00     0.066 A 
HETATM   30  C   UNL     1      39.053 -14.330  -2.615  1.00  0.00     0.070 A 
HETATM   31  C   UNL     1      39.819 -15.300  -3.260  1.00  0.00     0.037 A 
HETATM   32  C   UNL     1      40.912 -15.870  -2.615  1.00  0.00     0.005 A 
HETATM   33  C   UNL     1      41.248 -15.461  -1.323  1.00  0.00     0.030 A 
BRANCH  30  34
HETATM   34  O   UNL     1      37.986 -13.870  -3.341  1.00  0.00    -0.356 OA
HETATM   35  C   UNL     1      37.107 -14.851  -3.878  1.00  0.00     0.210 C 
ENDBRANCH  30  34
ENDBRANCH   1  28
TORSDOF 7
ENDMDL
MODEL 9
REMARK VINA RESULT:      -8.3      3.738      7.312
REMARK  7 active torsions:
REMARK  status: ('A' for Active; 'I' for Inactive)
REMARK    1  A    between atoms: O_2  and  C_3 
REMARK    2  A    between atoms: C_5  and  N_6 
REMARK    3  A    between atoms: C_7  and  O_8 
REMARK    4  A    between atoms: C_7  and  C_9 
REMARK       I    between atoms: C_9  and  N_10 
REMARK    5  A    between atoms: N_10  and  C_11 
REMARK    6  A    between atoms: C_11  and  C_12 
REMARK    7  A    between atoms: C_12  and  C_13 
ROOT
HETATM    1  N   UNL     1      41.980 -15.911   5.273  1.00  0.00    -0.254 N 
HETATM    2  C   UNL     1      42.073 -14.787   4.329  1.00  0.00     0.256 C 
HETATM    3  C   UNL     1      41.413 -13.521   4.845  1.00  0.00     0.034 A 
HETATM    4  C   UNL     1      40.393 -13.646   5.779  1.00  0.00     0.048 A 
HETATM    5  N   UNL     1      40.100 -14.909   6.274  1.00  0.00    -0.308 N 
HETATM    6  C   UNL     1      40.876 -16.020   6.108  1.00  0.00     0.330 C 
HETATM    7  O   UNL     1      40.535 -17.035   6.716  1.00  0.00    -0.246 OA
HETATM    8  C   UNL     1      41.712 -12.243   4.344  1.00  0.00     0.015 A 
HETATM    9  C   UNL     1      40.999 -11.126   4.783  1.00  0.00     0.001 A 
HETATM   10  C   UNL     1      39.973 -11.275   5.713  1.00  0.00     0.002 A 
HETATM   11  C   UNL     1      39.663 -12.540   6.211  1.00  0.00     0.030 A 
HETATM   12  H   UNL     1      39.362 -15.022   6.960  1.00  0.00     0.170 HD
ENDROOT
BRANCH   2  13
HETATM   13  O   UNL     1      43.453 -14.449   4.153  1.00  0.00    -0.359 OA
HETATM   14  H   UNL     1      43.623 -14.546   3.198  1.00  0.00     0.213 HD
ENDBRANCH   2  13
BRANCH   2  15
HETATM   15  C   UNL     1      41.414 -15.168   2.939  1.00  0.00     0.279 C 
HETATM   16  N   UNL     1      42.214 -15.098   1.815  1.00  0.00    -0.356 N 
HETATM   17  H   UNL     1      43.219 -15.048   1.952  1.00  0.00     0.162 HD
HETATM   18  O   UNL     1      40.230 -15.521   2.881  1.00  0.00    -0.268 OA
BRANCH  16  19
HETATM   19  C   UNL     1      41.723 -15.573   0.536  1.00  0.00     0.127 C 
BRANCH  19  20
HETATM   20  C   UNL     1      41.674 -14.477  -0.532  1.00  0.00     0.058 C 
BRANCH  20  21
HETATM   21  C   UNL     1      40.465 -14.563  -1.438  1.00  0.00    -0.057 A 
HETATM   22  C   UNL     1      39.259 -13.937  -1.089  1.00  0.00     0.009 A 
HETATM   23  C   UNL     1      38.149 -14.010  -1.934  1.00  0.00     0.024 A 
HETATM   24  C   UNL     1      38.241 -14.699  -3.139  1.00  0.00     0.034 A 
HETATM   25 CL   UNL     1      36.878 -14.785  -4.183  1.00  0.00    -0.084 Cl
HETATM   26  C   UNL     1      39.435 -15.314  -3.508  1.00  0.00     0.024 A 
HETATM   27  C   UNL     1      40.544 -15.246  -2.660  1.00  0.00     0.009 A 
ENDBRANCH  20  21
ENDBRANCH  19  20
ENDBRANCH  16  19
ENDBRANCH   2  15
BRANCH   1  28
HETATM   28  C   UNL     1      42.942 -16.983   5.242  1.00  0.00     0.045 A 
HETATM   29  C   UNL     1      42.955 -17.964   4.235  1.00  0.00     0.066 A 
HETATM   30  C   UNL     1      43.922 -18.976   4.223  1.00  0.00     0.070 A 
HETATM   31  C   UNL     1      44.915 -18.993   5.201  1.00  0.00     0.037 A 
HETATM   32  C   UNL     1      44.921 -18.034   6.208  1.00  0.00     0.005 A 
HETATM   33  C   UNL     1      43.935 -17.046   6.233  1.00  0.00     0.030 A 
BRANCH  30  34
HETATM   34  O   UNL     1      44.008 -19.990   3.306  1.00  0.00    -0.356 OA
HETATM   35  C   UNL     1      43.378 -19.770   2.048  1.00  0.00     0.210 C 
ENDBRANCH  30  34
ENDBRANCH   1  28
TORSDOF 7
ENDMDL
MODEL 10
REMARK VINA RESULT:      -8.2      3.183      7.346
REMARK  7 active torsions:
REMARK  status: ('A' for Active; 'I' for Inactive)
REMARK    1  A    between atoms: O_2  and  C_3 
REMARK    2  A    between atoms: C_5  and  N_6 
REMARK    3  A    between atoms: C_7  and  O_8 
REMARK    4  A    between atoms: C_7  and  C_9 
REMARK       I    between atoms: C_9  and  N_10 
REMARK    5  A    between atoms: N_10  and  C_11 
REMARK    6  A    between atoms: C_11  and  C_12 
REMARK    7  A    between atoms: C_12  and  C_13 
ROOT
HETATM    1  N   UNL     1      41.875 -16.071   5.145  1.00  0.00    -0.254 N 
HETATM    2  C   UNL     1      41.935 -15.077   4.063  1.00  0.00     0.256 C 
HETATM    3  C   UNL     1      41.146 -13.818   4.368  1.00  0.00     0.034 A 
HETATM    4  C   UNL     1      40.083 -13.908   5.258  1.00  0.00     0.048 A 
HETATM    5  N   UNL     1      39.862 -15.116   5.905  1.00  0.00    -0.308 N 
HETATM    6  C   UNL     1      40.734 -16.167   5.930  1.00  0.00     0.330 C 
HETATM    7  O   UNL     1      40.439 -17.119   6.653  1.00  0.00    -0.246 OA
HETATM    8  C   UNL     1      41.371 -12.595   3.714  1.00  0.00     0.015 A 
HETATM    9  C   UNL     1      40.546 -11.497   3.962  1.00  0.00     0.001 A 
HETATM   10  C   UNL     1      39.479 -11.612   4.850  1.00  0.00     0.002 A 
HETATM   11  C   UNL     1      39.241 -12.823   5.499  1.00  0.00     0.030 A 
HETATM   12  H   UNL     1      39.096 -15.202   6.562  1.00  0.00     0.170 HD
ENDROOT
BRANCH   2  13
HETATM   13  O   UNL     1      43.292 -14.645   3.912  1.00  0.00    -0.359 OA
HETATM   14  H   UNL     1      43.371 -14.360   2.983  1.00  0.00     0.213 HD
ENDBRANCH   2  13
BRANCH   2  15
HETATM   15  C   UNL     1      41.395 -15.694   2.707  1.00  0.00     0.279 C 
HETATM   16  N   UNL     1      41.938 -15.214   1.529  1.00  0.00    -0.356 N 
HETATM   17  H   UNL     1      42.804 -14.686   1.588  1.00  0.00     0.162 HD
HETATM   18  O   UNL     1      40.528 -16.574   2.718  1.00  0.00    -0.268 OA
BRANCH  16  19
HETATM   19  C   UNL     1      41.601 -15.834   0.263  1.00  0.00     0.127 C 
BRANCH  19  20
HETATM   20  C   UNL     1      40.933 -14.867  -0.719  1.00  0.00     0.058 C 
BRANCH  20  21
HETATM   21  C   UNL     1      40.020 -13.859  -0.055  1.00  0.00    -0.057 A 
HETATM   22  C   UNL     1      40.322 -12.489  -0.080  1.00  0.00     0.009 A 
HETATM   23  C   UNL     1      39.470 -11.563   0.525  1.00  0.00     0.024 A 
HETATM   24  C   UNL     1      38.304 -11.997   1.148  1.00  0.00     0.034 A 
HETATM   25 CL   UNL     1      37.252 -10.856   1.888  1.00  0.00    -0.084 Cl
HETATM   26  C   UNL     1      37.982 -13.352   1.170  1.00  0.00     0.024 A 
HETATM   27  C   UNL     1      38.837 -14.281   0.570  1.00  0.00     0.009 A 
ENDBRANCH  20  21
ENDBRANCH  19  20
ENDBRANCH  16  19
ENDBRANCH   2  15
BRANCH   1  28
HETATM   28  C   UNL     1      42.920 -17.050   5.308  1.00  0.00     0.045 A 
HETATM   29  C   UNL     1      43.044 -18.176   4.476  1.00  0.00     0.066 A 
HETATM   30  C   UNL     1      44.089 -19.092   4.647  1.00  0.00     0.070 A 
HETATM   31  C   UNL     1      45.047 -18.867   5.634  1.00  0.00     0.037 A 
HETATM   32  C   UNL     1      44.943 -17.761   6.471  1.00  0.00     0.005 A 
HETATM   33  C   UNL     1      43.882 -16.868   6.314  1.00  0.00     0.030 A 
BRANCH  30  34
HETATM   34  O   UNL     1      44.284 -20.230   3.910  1.00  0.00    -0.356 OA
HETATM   35  C   UNL     1      44.221 -20.094   2.495  1.00  0.00     0.210 C 
ENDBRANCH  30  34
ENDBRANCH   1  28
TORSDOF 7
ENDMDL
