MODEL 1
REMARK VINA RESULT:      -8.1      0.000      0.000
REMARK  9 active torsions:
REMARK  status: ('A' for Active; 'I' for Inactive)
REMARK    1  A    between atoms: O_2  and  C_3 
REMARK    2  A    between atoms: C_5  and  O_6 
REMARK    3  A    between atoms: C_9  and  C_10 
REMARK       I    between atoms: C_10  and  N_11 
REMARK    4  A    between atoms: N_11  and  C_12 
REMARK    5  A    between atoms: C_13  and  C_14 
REMARK       I    between atoms: C_14  and  N_15 
REMARK    6  A    between atoms: N_15  and  C_16 
REMARK    7  A    between atoms: C_16  and  C_17 
REMARK    8  A    between atoms: C_17  and  O_18 
REMARK    9  A    between atoms: O_18  and  C_19 
ROOT
HETATM    1  C   UNL     1      43.879 -19.720   3.157  1.00  0.00     0.050 A 
HETATM    2  C   UNL     1      44.364 -20.130   4.414  1.00  0.00     0.058 A 
HETATM    3  C   UNL     1      44.782 -21.459   4.609  1.00  0.00     0.019 A 
HETATM    4  C   UNL     1      44.770 -22.372   3.557  1.00  0.00     0.001 A 
HETATM    5  C   UNL     1      44.356 -21.959   2.297  1.00  0.00     0.002 A 
HETATM    6  C   UNL     1      43.921 -20.647   2.097  1.00  0.00     0.030 A 
ENDROOT
BRANCH   1   7
HETATM    7  N   UNL     1      43.316 -18.457   2.828  1.00  0.00    -0.322 N 
HETATM    8  C   UNL     1      42.190 -17.906   3.416  1.00  0.00     0.256 C 
HETATM    9  O   UNL     1      41.521 -18.425   4.300  1.00  0.00    -0.267 OA
HETATM   10  H   UNL     1      43.530 -18.117   1.899  1.00  0.00     0.169 HD
BRANCH   8  11
HETATM   11  C   UNL     1      41.707 -16.614   2.841  1.00  0.00     0.037 A 
HETATM   12  C   UNL     1      40.337 -16.514   2.549  1.00  0.00     0.054 A 
HETATM   13  C   UNL     1      39.817 -15.345   2.004  1.00  0.00     0.071 A 
HETATM   14  C   UNL     1      40.678 -14.280   1.735  1.00  0.00     0.073 A 
HETATM   15  C   UNL     1      42.041 -14.357   2.037  1.00  0.00     0.071 A 
HETATM   16  C   UNL     1      42.557 -15.523   2.604  1.00  0.00     0.054 A 
BRANCH  13  17
HETATM   17  O   UNL     1      38.506 -15.128   1.682  1.00  0.00    -0.356 OA
HETATM   18  C   UNL     1      38.192 -13.861   1.112  1.00  0.00     0.210 C 
ENDBRANCH  13  17
BRANCH  15  19
HETATM   19  O   UNL     1      42.749 -13.227   1.735  1.00  0.00    -0.356 OA
HETATM   20  C   UNL     1      42.042 -12.149   1.136  1.00  0.00     0.210 C 
ENDBRANCH  15  19
ENDBRANCH   8  11
ENDBRANCH   1   7
BRANCH   2  21
HETATM   21  C   UNL     1      44.623 -19.233   5.568  1.00  0.00     0.253 C 
HETATM   22  N   UNL     1      43.754 -19.387   6.629  1.00  0.00    -0.355 N 
HETATM   23  H   UNL     1      43.081 -20.137   6.593  1.00  0.00     0.162 HD
HETATM   24  O   UNL     1      45.484 -18.364   5.494  1.00  0.00    -0.268 OA
BRANCH  22  25
HETATM   25  C   UNL     1      43.939 -18.690   7.889  1.00  0.00     0.149 C 
BRANCH  25  26
HETATM   26  C   UNL     1      43.234 -17.333   8.001  1.00  0.00     0.195 C 
BRANCH  26  27
HETATM   27  O   UNL     1      42.149 -17.274   7.062  1.00  0.00    -0.350 OA
BRANCH  27  28
HETATM   28  C   UNL     1      41.949 -16.018   6.551  1.00  0.00     0.068 A 
HETATM   29  C   UNL     1      43.086 -15.232   6.373  1.00  0.00     0.037 A 
HETATM   30  C   UNL     1      42.973 -13.941   5.853  1.00  0.00     0.003 A 
HETATM   31  C   UNL     1      41.722 -13.441   5.493  1.00  0.00     0.000 A 
HETATM   32  C   UNL     1      40.586 -14.236   5.645  1.00  0.00     0.003 A 
HETATM   33  C   UNL     1      40.698 -15.526   6.168  1.00  0.00     0.037 A 
ENDBRANCH  27  28
ENDBRANCH  26  27
ENDBRANCH  25  26
ENDBRANCH  22  25
ENDBRANCH   2  21
TORSDOF 9
ENDMDL
MODEL 2
REMARK VINA RESULT:      -8.1      0.926      2.057
REMARK  9 active torsions:
REMARK  status: ('A' for Active; 'I' for Inactive)
REMARK    1  A    between atoms: O_2  and  C_3 
REMARK    2  A    between atoms: C_5  and  O_6 
REMARK    3  A    between atoms: C_9  and  C_10 
REMARK       I    between atoms: C_10  and  N_11 
REMARK    4  A    between atoms: N_11  and  C_12 
REMARK    5  A    between atoms: C_13  and  C_14 
REMARK       I    between atoms: C_14  and  N_15 
REMARK    6  A    between atoms: N_15  and  C_16 
REMARK    7  A    between atoms: C_16  and  C_17 
REMARK    8  A    between atoms: C_17  and  O_18 
REMARK    9  A    between atoms: O_18  and  C_19 
ROOT
HETATM    1  C   UNL     1      43.481 -19.778   2.934  1.00  0.00     0.050 A 
HETATM    2  C   UNL     1      44.117 -20.121   4.144  1.00  0.00     0.058 A 
HETATM    3  C   UNL     1      44.726 -21.381   4.287  1.00  0.00     0.019 A 
HETATM    4  C   UNL     1      44.754 -22.284   3.227  1.00  0.00     0.001 A 
HETATM    5  C   UNL     1      44.188 -21.928   2.008  1.00  0.00     0.002 A 
HETATM    6  C   UNL     1      43.564 -20.686   1.862  1.00  0.00     0.030 A 
ENDROOT
BRANCH   1   7
HETATM    7  N   UNL     1      42.726 -18.603   2.668  1.00  0.00    -0.322 N 
HETATM    8  C   UNL     1      43.217 -17.457   2.064  1.00  0.00     0.256 C 
HETATM    9  O   UNL     1      44.366 -17.292   1.675  1.00  0.00    -0.267 OA
HETATM   10  H   UNL     1      41.913 -18.469   3.255  1.00  0.00     0.169 HD
BRANCH   8  11
HETATM   11  C   UNL     1      42.277 -16.299   1.981  1.00  0.00     0.037 A 
HETATM   12  C   UNL     1      42.845 -15.015   1.915  1.00  0.00     0.054 A 
HETATM   13  C   UNL     1      42.032 -13.889   1.844  1.00  0.00     0.071 A 
HETATM   14  C   UNL     1      40.646 -14.050   1.857  1.00  0.00     0.073 A 
HETATM   15  C   UNL     1      40.065 -15.322   1.903  1.00  0.00     0.071 A 
HETATM   16  C   UNL     1      40.882 -16.452   1.953  1.00  0.00     0.054 A 
BRANCH  13  17
HETATM   17  O   UNL     1      42.466 -12.594   1.774  1.00  0.00    -0.356 OA
HETATM   18  C   UNL     1      42.026 -11.836   0.651  1.00  0.00     0.210 C 
ENDBRANCH  13  17
BRANCH  15  19
HETATM   19  O   UNL     1      38.698 -15.316   1.888  1.00  0.00    -0.356 OA
HETATM   20  C   UNL     1      38.053 -14.318   1.109  1.00  0.00     0.210 C 
ENDBRANCH  15  19
ENDBRANCH   8  11
ENDBRANCH   1   7
BRANCH   2  21
HETATM   21  C   UNL     1      44.342 -19.201   5.286  1.00  0.00     0.253 C 
HETATM   22  N   UNL     1      43.753 -19.591   6.471  1.00  0.00    -0.355 N 
HETATM   23  H   UNL     1      43.302 -20.492   6.509  1.00  0.00     0.162 HD
HETATM   24  O   UNL     1      44.920 -18.134   5.115  1.00  0.00    -0.268 OA
BRANCH  22  25
HETATM   25  C   UNL     1      43.979 -18.884   7.719  1.00  0.00     0.149 C 
BRANCH  25  26
HETATM   26  C   UNL     1      43.220 -17.561   7.874  1.00  0.00     0.195 C 
BRANCH  26  27
HETATM   27  O   UNL     1      42.084 -17.551   6.996  1.00  0.00    -0.350 OA
BRANCH  27  28
HETATM   28  C   UNL     1      41.828 -16.314   6.463  1.00  0.00     0.068 A 
HETATM   29  C   UNL     1      42.931 -15.487   6.256  1.00  0.00     0.037 A 
HETATM   30  C   UNL     1      42.761 -14.213   5.712  1.00  0.00     0.003 A 
HETATM   31  C   UNL     1      41.487 -13.770   5.357  1.00  0.00     0.000 A 
HETATM   32  C   UNL     1      40.385 -14.606   5.538  1.00  0.00     0.003 A 
HETATM   33  C   UNL     1      40.555 -15.879   6.085  1.00  0.00     0.037 A 
ENDBRANCH  27  28
ENDBRANCH  26  27
ENDBRANCH  25  26
ENDBRANCH  22  25
ENDBRANCH   2  21
TORSDOF 9
ENDMDL
MODEL 3
REMARK VINA RESULT:      -7.5      1.987      4.894
REMARK  9 active torsions:
REMARK  status: ('A' for Active; 'I' for Inactive)
REMARK    1  A    between atoms: O_2  and  C_3 
REMARK    2  A    between atoms: C_5  and  O_6 
REMARK    3  A    between atoms: C_9  and  C_10 
REMARK       I    between atoms: C_10  and  N_11 
REMARK    4  A    between atoms: N_11  and  C_12 
REMARK    5  A    between atoms: C_13  and  C_14 
REMARK       I    between atoms: C_14  and  N_15 
REMARK    6  A    between atoms: N_15  and  C_16 
REMARK    7  A    between atoms: C_16  and  C_17 
REMARK    8  A    between atoms: C_17  and  O_18 
REMARK    9  A    between atoms: O_18  and  C_19 
ROOT
HETATM    1  C   UNL     1      44.095 -19.051   3.854  1.00  0.00     0.050 A 
HETATM    2  C   UNL     1      43.836 -19.275   2.488  1.00  0.00     0.058 A 
HETATM    3  C   UNL     1      44.046 -20.551   1.932  1.00  0.00     0.019 A 
HETATM    4  C   UNL     1      44.462 -21.616   2.727  1.00  0.00     0.001 A 
HETATM    5  C   UNL     1      44.656 -21.419   4.089  1.00  0.00     0.002 A 
HETATM    6  C   UNL     1      44.469 -20.152   4.648  1.00  0.00     0.030 A 
ENDROOT
BRANCH   1   7
HETATM    7  N   UNL     1      44.046 -17.806   4.541  1.00  0.00    -0.322 N 
HETATM    8  C   UNL     1      42.891 -17.182   4.982  1.00  0.00     0.256 C 
HETATM    9  O   UNL     1      41.752 -17.609   4.845  1.00  0.00    -0.267 OA
HETATM   10  H   UNL     1      44.837 -17.195   4.386  1.00  0.00     0.169 HD
BRANCH   8  11
HETATM   11  C   UNL     1      43.061 -15.826   5.585  1.00  0.00     0.037 A 
HETATM   12  C   UNL     1      42.097 -14.856   5.264  1.00  0.00     0.054 A 
HETATM   13  C   UNL     1      42.195 -13.568   5.781  1.00  0.00     0.071 A 
HETATM   14  C   UNL     1      43.272 -13.249   6.607  1.00  0.00     0.073 A 
HETATM   15  C   UNL     1      44.231 -14.207   6.952  1.00  0.00     0.071 A 
HETATM   16  C   UNL     1      44.119 -15.505   6.449  1.00  0.00     0.054 A 
BRANCH  13  17
HETATM   17  O   UNL     1      41.320 -12.544   5.544  1.00  0.00    -0.356 OA
HETATM   18  C   UNL     1      39.998 -12.707   6.050  1.00  0.00     0.210 C 
ENDBRANCH  13  17
BRANCH  15  19
HETATM   19  O   UNL     1      45.212 -13.748   7.785  1.00  0.00    -0.356 OA
HETATM   20  C   UNL     1      44.911 -12.622   8.598  1.00  0.00     0.210 C 
ENDBRANCH  15  19
ENDBRANCH   8  11
ENDBRANCH   1   7
BRANCH   2  21
HETATM   21  C   UNL     1      43.206 -18.301   1.562  1.00  0.00     0.253 C 
HETATM   22  N   UNL     1      41.840 -18.167   1.702  1.00  0.00    -0.355 N 
HETATM   23  H   UNL     1      41.386 -18.652   2.461  1.00  0.00     0.162 HD
HETATM   24  O   UNL     1      43.872 -17.764   0.685  1.00  0.00    -0.268 OA
BRANCH  22  25
HETATM   25  C   UNL     1      41.082 -17.166   0.974  1.00  0.00     0.149 C 
BRANCH  25  26
HETATM   26  C   UNL     1      40.727 -15.903   1.767  1.00  0.00     0.195 C 
BRANCH  26  27
HETATM   27  O   UNL     1      39.304 -15.829   1.945  1.00  0.00    -0.350 OA
BRANCH  27  28
HETATM   28  C   UNL     1      38.807 -14.561   1.786  1.00  0.00     0.068 A 
HETATM   29  C   UNL     1      39.428 -13.555   2.524  1.00  0.00     0.037 A 
HETATM   30  C   UNL     1      38.988 -12.234   2.419  1.00  0.00     0.003 A 
HETATM   31  C   UNL     1      37.938 -11.915   1.559  1.00  0.00     0.000 A 
HETATM   32  C   UNL     1      37.333 -12.916   0.799  1.00  0.00     0.003 A 
HETATM   33  C   UNL     1      37.770 -14.238   0.907  1.00  0.00     0.037 A 
ENDBRANCH  27  28
ENDBRANCH  26  27
ENDBRANCH  25  26
ENDBRANCH  22  25
ENDBRANCH   2  21
TORSDOF 9
ENDMDL
MODEL 4
REMARK VINA RESULT:      -7.4      1.900      2.680
REMARK  9 active torsions:
REMARK  status: ('A' for Active; 'I' for Inactive)
REMARK    1  A    between atoms: O_2  and  C_3 
REMARK    2  A    between atoms: C_5  and  O_6 
REMARK    3  A    between atoms: C_9  and  C_10 
REMARK       I    between atoms: C_10  and  N_11 
REMARK    4  A    between atoms: N_11  and  C_12 
REMARK    5  A    between atoms: C_13  and  C_14 
REMARK       I    between atoms: C_14  and  N_15 
REMARK    6  A    between atoms: N_15  and  C_16 
REMARK    7  A    between atoms: C_16  and  C_17 
REMARK    8  A    between atoms: C_17  and  O_18 
REMARK    9  A    between atoms: O_18  and  C_19 
ROOT
HETATM    1  C   UNL     1      43.305 -19.547   2.654  1.00  0.00     0.050 A 
HETATM    2  C   UNL     1      43.738 -19.588   3.994  1.00  0.00     0.058 A 
HETATM    3  C   UNL     1      44.453 -20.702   4.470  1.00  0.00     0.019 A 
HETATM    4  C   UNL     1      44.786 -21.752   3.619  1.00  0.00     0.001 A 
HETATM    5  C   UNL     1      44.421 -21.690   2.279  1.00  0.00     0.002 A 
HETATM    6  C   UNL     1      43.694 -20.597   1.801  1.00  0.00     0.030 A 
ENDROOT
BRANCH   1   7
HETATM    7  N   UNL     1      42.481 -18.558   2.051  1.00  0.00    -0.322 N 
HETATM    8  C   UNL     1      42.917 -17.329   1.584  1.00  0.00     0.256 C 
HETATM    9  O   UNL     1      44.070 -16.919   1.625  1.00  0.00    -0.267 OA
HETATM   10  H   UNL     1      41.500 -18.606   2.293  1.00  0.00     0.169 HD
BRANCH   8  11
HETATM   11  C   UNL     1      41.862 -16.398   1.085  1.00  0.00     0.037 A 
HETATM   12  C   UNL     1      42.132 -15.700  -0.104  1.00  0.00     0.054 A 
HETATM   13  C   UNL     1      41.199 -14.809  -0.624  1.00  0.00     0.071 A 
HETATM   14  C   UNL     1      40.001 -14.604   0.060  1.00  0.00     0.073 A 
HETATM   15  C   UNL     1      39.709 -15.304   1.235  1.00  0.00     0.071 A 
HETATM   16  C   UNL     1      40.637 -16.214   1.744  1.00  0.00     0.054 A 
BRANCH  13  17
HETATM   17  O   UNL     1      41.346 -14.078  -1.770  1.00  0.00    -0.356 OA
HETATM   18  C   UNL     1      41.181 -14.780  -2.998  1.00  0.00     0.210 C 
ENDBRANCH  13  17
BRANCH  15  19
HETATM   19  O   UNL     1      38.488 -15.010   1.777  1.00  0.00    -0.356 OA
HETATM   20  C   UNL     1      37.596 -14.224   0.999  1.00  0.00     0.210 C 
ENDBRANCH  15  19
ENDBRANCH   8  11
ENDBRANCH   1   7
BRANCH   2  21
HETATM   21  C   UNL     1      43.634 -18.468   4.963  1.00  0.00     0.253 C 
HETATM   22  N   UNL     1      42.424 -18.378   5.620  1.00  0.00    -0.355 N 
HETATM   23  H   UNL     1      41.744 -19.109   5.474  1.00  0.00     0.162 HD
HETATM   24  O   UNL     1      44.540 -17.649   5.059  1.00  0.00    -0.268 OA
BRANCH  22  25
HETATM   25  C   UNL     1      42.194 -17.430   6.695  1.00  0.00     0.149 C 
BRANCH  25  26
HETATM   26  C   UNL     1      41.450 -16.151   6.298  1.00  0.00     0.195 C 
BRANCH  26  27
HETATM   27  O   UNL     1      42.376 -15.056   6.224  1.00  0.00    -0.350 OA
BRANCH  27  28
HETATM   28  C   UNL     1      42.251 -14.323   5.073  1.00  0.00     0.068 A 
HETATM   29  C   UNL     1      43.302 -14.415   4.161  1.00  0.00     0.037 A 
HETATM   30  C   UNL     1      43.254 -13.704   2.961  1.00  0.00     0.003 A 
HETATM   31  C   UNL     1      42.146 -12.913   2.662  1.00  0.00     0.000 A 
HETATM   32  C   UNL     1      41.082 -12.840   3.560  1.00  0.00     0.003 A 
HETATM   33  C   UNL     1      41.130 -13.549   4.763  1.00  0.00     0.037 A 
ENDBRANCH  27  28
ENDBRANCH  26  27
ENDBRANCH  25  26
ENDBRANCH  22  25
ENDBRANCH   2  21
TORSDOF 9
ENDMDL
MODEL 5
REMARK VINA RESULT:      -7.4      2.833      4.326
REMARK  9 active torsions:
REMARK  status: ('A' for Active; 'I' for Inactive)
REMARK    1  A    between atoms: O_2  and  C_3 
REMARK    2  A    between atoms: C_5  and  O_6 
REMARK    3  A    between atoms: C_9  and  C_10 
REMARK       I    between atoms: C_10  and  N_11 
REMARK    4  A    between atoms: N_11  and  C_12 
REMARK    5  A    between atoms: C_13  and  C_14 
REMARK       I    between atoms: C_14  and  N_15 
REMARK    6  A    between atoms: N_15  and  C_16 
REMARK    7  A    between atoms: C_16  and  C_17 
REMARK    8  A    between atoms: C_17  and  O_18 
REMARK    9  A    between atoms: O_18  and  C_19 
ROOT
HETATM    1  C   UNL     1      43.340 -17.406   2.096  1.00  0.00     0.050 A 
HETATM    2  C   UNL     1      43.170 -17.298   3.490  1.00  0.00     0.058 A 
HETATM    3  C   UNL     1      43.542 -18.363   4.331  1.00  0.00     0.019 A 
HETATM    4  C   UNL     1      44.127 -19.513   3.807  1.00  0.00     0.001 A 
HETATM    5  C   UNL     1      44.360 -19.602   2.440  1.00  0.00     0.002 A 
HETATM    6  C   UNL     1      43.976 -18.558   1.595  1.00  0.00     0.030 A 
ENDROOT
BRANCH   1   7
HETATM    7  N   UNL     1      42.913 -16.478   1.108  1.00  0.00    -0.322 N 
HETATM    8  C   UNL     1      41.663 -16.461   0.513  1.00  0.00     0.256 C 
HETATM    9  O   UNL     1      40.749 -17.239   0.752  1.00  0.00    -0.267 OA
HETATM   10  H   UNL     1      43.655 -16.048   0.570  1.00  0.00     0.169 HD
BRANCH   8  11
HETATM   11  C   UNL     1      41.464 -15.465  -0.582  1.00  0.00     0.037 A 
HETATM   12  C   UNL     1      40.957 -15.945  -1.802  1.00  0.00     0.054 A 
HETATM   13  C   UNL     1      40.754 -15.076  -2.870  1.00  0.00     0.071 A 
HETATM   14  C   UNL     1      41.077 -13.728  -2.719  1.00  0.00     0.073 A 
HETATM   15  C   UNL     1      41.564 -13.230  -1.505  1.00  0.00     0.071 A 
HETATM   16  C   UNL     1      41.747 -14.099  -0.428  1.00  0.00     0.054 A 
BRANCH  13  17
HETATM   17  O   UNL     1      40.266 -15.423  -4.098  1.00  0.00    -0.356 OA
HETATM   18  C   UNL     1      38.959 -15.990  -4.127  1.00  0.00     0.210 C 
ENDBRANCH  13  17
BRANCH  15  19
HETATM   19  O   UNL     1      41.813 -11.886  -1.508  1.00  0.00    -0.356 OA
HETATM   20  C   UNL     1      42.181 -11.283  -0.275  1.00  0.00     0.210 C 
ENDBRANCH  15  19
ENDBRANCH   8  11
ENDBRANCH   1   7
BRANCH   2  21
HETATM   21  C   UNL     1      42.749 -16.070   4.210  1.00  0.00     0.253 C 
HETATM   22  N   UNL     1      41.559 -16.180   4.900  1.00  0.00    -0.355 N 
HETATM   23  H   UNL     1      41.114 -17.084   4.947  1.00  0.00     0.162 HD
HETATM   24  O   UNL     1      43.385 -15.030   4.083  1.00  0.00    -0.268 OA
BRANCH  22  25
HETATM   25  C   UNL     1      41.065 -15.125   5.766  1.00  0.00     0.149 C 
BRANCH  25  26
HETATM   26  C   UNL     1      39.930 -14.273   5.185  1.00  0.00     0.195 C 
BRANCH  26  27
HETATM   27  O   UNL     1      40.447 -13.418   4.154  1.00  0.00    -0.350 OA
BRANCH  27  28
HETATM   28  C   UNL     1      39.709 -13.462   2.999  1.00  0.00     0.068 A 
HETATM   29  C   UNL     1      39.559 -12.257   2.314  1.00  0.00     0.037 A 
HETATM   30  C   UNL     1      38.826 -12.213   1.126  1.00  0.00     0.003 A 
HETATM   31  C   UNL     1      38.257 -13.378   0.613  1.00  0.00     0.000 A 
HETATM   32  C   UNL     1      38.429 -14.589   1.283  1.00  0.00     0.003 A 
HETATM   33  C   UNL     1      39.159 -14.633   2.473  1.00  0.00     0.037 A 
ENDBRANCH  27  28
ENDBRANCH  26  27
ENDBRANCH  25  26
ENDBRANCH  22  25
ENDBRANCH   2  21
TORSDOF 9
ENDMDL
MODEL 6
REMARK VINA RESULT:      -7.3      2.035      5.193
REMARK  9 active torsions:
REMARK  status: ('A' for Active; 'I' for Inactive)
REMARK    1  A    between atoms: O_2  and  C_3 
REMARK    2  A    between atoms: C_5  and  O_6 
REMARK    3  A    between atoms: C_9  and  C_10 
REMARK       I    between atoms: C_10  and  N_11 
REMARK    4  A    between atoms: N_11  and  C_12 
REMARK    5  A    between atoms: C_13  and  C_14 
REMARK       I    between atoms: C_14  and  N_15 
REMARK    6  A    between atoms: N_15  and  C_16 
REMARK    7  A    between atoms: C_16  and  C_17 
REMARK    8  A    between atoms: C_17  and  O_18 
REMARK    9  A    between atoms: O_18  and  C_19 
ROOT
HETATM    1  C   UNL     1      44.198 -18.903   4.263  1.00  0.00     0.050 A 
HETATM    2  C   UNL     1      43.972 -19.242   2.915  1.00  0.00     0.058 A 
HETATM    3  C   UNL     1      44.220 -20.553   2.467  1.00  0.00     0.019 A 
HETATM    4  C   UNL     1      44.641 -21.542   3.353  1.00  0.00     0.001 A 
HETATM    5  C   UNL     1      44.802 -21.232   4.698  1.00  0.00     0.002 A 
HETATM    6  C   UNL     1      44.578 -19.929   5.149  1.00  0.00     0.030 A 
ENDROOT
BRANCH   1   7
HETATM    7  N   UNL     1      44.109 -17.609   4.846  1.00  0.00    -0.322 N 
HETATM    8  C   UNL     1      42.930 -16.954   5.163  1.00  0.00     0.256 C 
HETATM    9  O   UNL     1      41.801 -17.393   4.987  1.00  0.00    -0.267 OA
HETATM   10  H   UNL     1      44.910 -17.010   4.695  1.00  0.00     0.169 HD
BRANCH   8  11
HETATM   11  C   UNL     1      43.066 -15.555   5.667  1.00  0.00     0.037 A 
HETATM   12  C   UNL     1      44.094 -15.302   6.590  1.00  0.00     0.054 A 
HETATM   13  C   UNL     1      44.275 -14.025   7.110  1.00  0.00     0.071 A 
HETATM   14  C   UNL     1      43.411 -13.003   6.716  1.00  0.00     0.073 A 
HETATM   15  C   UNL     1      42.394 -13.234   5.784  1.00  0.00     0.071 A 
HETATM   16  C   UNL     1      42.227 -14.511   5.248  1.00  0.00     0.054 A 
BRANCH  13  17
HETATM   17  O   UNL     1      45.238 -13.657   8.008  1.00  0.00    -0.356 OA
HETATM   18  C   UNL     1      44.966 -12.502   8.796  1.00  0.00     0.210 C 
ENDBRANCH  13  17
BRANCH  15  19
HETATM   19  O   UNL     1      41.645 -12.130   5.485  1.00  0.00    -0.356 OA
HETATM   20  C   UNL     1      41.266 -11.280   6.559  1.00  0.00     0.210 C 
ENDBRANCH  15  19
ENDBRANCH   8  11
ENDBRANCH   1   7
BRANCH   2  21
HETATM   21  C   UNL     1      43.342 -18.360   1.902  1.00  0.00     0.253 C 
HETATM   22  N   UNL     1      41.964 -18.313   1.948  1.00  0.00    -0.355 N 
HETATM   23  H   UNL     1      41.493 -18.791   2.702  1.00  0.00     0.162 HD
HETATM   24  O   UNL     1      44.027 -17.820   1.041  1.00  0.00    -0.268 OA
BRANCH  22  25
HETATM   25  C   UNL     1      41.190 -17.403   1.123  1.00  0.00     0.149 C 
BRANCH  25  26
HETATM   26  C   UNL     1      40.845 -16.058   1.772  1.00  0.00     0.195 C 
BRANCH  26  27
HETATM   27  O   UNL     1      39.418 -15.910   1.845  1.00  0.00    -0.350 OA
BRANCH  27  28
HETATM   28  C   UNL     1      39.014 -14.601   1.861  1.00  0.00     0.068 A 
HETATM   29  C   UNL     1      37.984 -14.259   0.986  1.00  0.00     0.037 A 
HETATM   30  C   UNL     1      37.508 -12.947   0.941  1.00  0.00     0.003 A 
HETATM   31  C   UNL     1      38.049 -11.979   1.785  1.00  0.00     0.000 A 
HETATM   32  C   UNL     1      39.061 -12.324   2.680  1.00  0.00     0.003 A 
HETATM   33  C   UNL     1      39.540 -13.635   2.724  1.00  0.00     0.037 A 
ENDBRANCH  27  28
ENDBRANCH  26  27
ENDBRANCH  25  26
ENDBRANCH  22  25
ENDBRANCH   2  21
TORSDOF 9
ENDMDL
MODEL 7
REMARK VINA RESULT:      -7.3      1.566      2.248
REMARK  9 active torsions:
REMARK  status: ('A' for Active; 'I' for Inactive)
REMARK    1  A    between atoms: O_2  and  C_3 
REMARK    2  A    between atoms: C_5  and  O_6 
REMARK    3  A    between atoms: C_9  and  C_10 
REMARK       I    between atoms: C_10  and  N_11 
REMARK    4  A    between atoms: N_11  and  C_12 
REMARK    5  A    between atoms: C_13  and  C_14 
REMARK       I    between atoms: C_14  and  N_15 
REMARK    6  A    between atoms: N_15  and  C_16 
REMARK    7  A    between atoms: C_16  and  C_17 
REMARK    8  A    between atoms: C_17  and  O_18 
REMARK    9  A    between atoms: O_18  and  C_19 
ROOT
HETATM    1  C   UNL     1      43.615 -18.377   3.691  1.00  0.00     0.050 A 
HETATM    2  C   UNL     1      43.718 -18.527   5.088  1.00  0.00     0.058 A 
HETATM    3  C   UNL     1      44.309 -19.682   5.631  1.00  0.00     0.019 A 
HETATM    4  C   UNL     1      44.844 -20.666   4.803  1.00  0.00     0.001 A 
HETATM    5  C   UNL     1      44.807 -20.495   3.424  1.00  0.00     0.002 A 
HETATM    6  C   UNL     1      44.205 -19.361   2.874  1.00  0.00     0.030 A 
ENDROOT
BRANCH   1   7
HETATM    7  N   UNL     1      42.949 -17.335   2.989  1.00  0.00    -0.322 N 
HETATM    8  C   UNL     1      41.595 -17.057   3.067  1.00  0.00     0.256 C 
HETATM    9  O   UNL     1      40.779 -17.667   3.747  1.00  0.00    -0.267 OA
HETATM   10  H   UNL     1      43.408 -17.020   2.145  1.00  0.00     0.169 HD
BRANCH   8  11
HETATM   11  C   UNL     1      41.086 -15.985   2.160  1.00  0.00     0.037 A 
HETATM   12  C   UNL     1      39.701 -15.750   2.158  1.00  0.00     0.054 A 
HETATM   13  C   UNL     1      39.154 -14.772   1.333  1.00  0.00     0.071 A 
HETATM   14  C   UNL     1      39.997 -14.042   0.495  1.00  0.00     0.073 A 
HETATM   15  C   UNL     1      41.380 -14.251   0.498  1.00  0.00     0.071 A 
HETATM   16  C   UNL     1      41.929 -15.217   1.342  1.00  0.00     0.054 A 
BRANCH  13  17
HETATM   17  O   UNL     1      37.828 -14.452   1.246  1.00  0.00    -0.356 OA
HETATM   18  C   UNL     1      37.516 -13.178   0.690  1.00  0.00     0.210 C 
ENDBRANCH  13  17
BRANCH  15  19
HETATM   19  O   UNL     1      42.072 -13.445  -0.362  1.00  0.00    -0.356 OA
HETATM   20  C   UNL     1      41.404 -13.010  -1.538  1.00  0.00     0.210 C 
ENDBRANCH  15  19
ENDBRANCH   8  11
ENDBRANCH   1   7
BRANCH   2  21
HETATM   21  C   UNL     1      43.377 -17.487   6.090  1.00  0.00     0.253 C 
HETATM   22  N   UNL     1      44.368 -16.555   6.321  1.00  0.00    -0.355 N 
HETATM   23  H   UNL     1      45.196 -16.583   5.744  1.00  0.00     0.162 HD
HETATM   24  O   UNL     1      42.328 -17.556   6.719  1.00  0.00    -0.268 OA
BRANCH  22  25
HETATM   25  C   UNL     1      44.158 -15.394   7.166  1.00  0.00     0.149 C 
BRANCH  25  26
HETATM   26  C   UNL     1      44.000 -14.060   6.427  1.00  0.00     0.195 C 
BRANCH  26  27
HETATM   27  O   UNL     1      43.505 -14.299   5.101  1.00  0.00    -0.350 OA
BRANCH  27  28
HETATM   28  C   UNL     1      42.239 -13.811   4.903  1.00  0.00     0.068 A 
HETATM   29  C   UNL     1      42.116 -12.752   4.005  1.00  0.00     0.037 A 
HETATM   30  C   UNL     1      40.862 -12.197   3.742  1.00  0.00     0.003 A 
HETATM   31  C   UNL     1      39.726 -12.714   4.364  1.00  0.00     0.000 A 
HETATM   32  C   UNL     1      39.843 -13.790   5.243  1.00  0.00     0.003 A 
HETATM   33  C   UNL     1      41.098 -14.343   5.509  1.00  0.00     0.037 A 
ENDBRANCH  27  28
ENDBRANCH  26  27
ENDBRANCH  25  26
ENDBRANCH  22  25
ENDBRANCH   2  21
TORSDOF 9
ENDMDL
MODEL 8
REMARK VINA RESULT:      -7.3      2.856      4.729
REMARK  9 active torsions:
REMARK  status: ('A' for Active; 'I' for Inactive)
REMARK    1  A    between atoms: O_2  and  C_3 
REMARK    2  A    between atoms: C_5  and  O_6 
REMARK    3  A    between atoms: C_9  and  C_10 
REMARK       I    between atoms: C_10  and  N_11 
REMARK    4  A    between atoms: N_11  and  C_12 
REMARK    5  A    between atoms: C_13  and  C_14 
REMARK       I    between atoms: C_14  and  N_15 
REMARK    6  A    between atoms: N_15  and  C_16 
REMARK    7  A    between atoms: C_16  and  C_17 
REMARK    8  A    between atoms: C_17  and  O_18 
REMARK    9  A    between atoms: O_18  and  C_19 
ROOT
HETATM    1  C   UNL     1      43.275 -17.281   2.029  1.00  0.00     0.050 A 
HETATM    2  C   UNL     1      43.155 -17.073   3.417  1.00  0.00     0.058 A 
HETATM    3  C   UNL     1      43.523 -18.089   4.317  1.00  0.00     0.019 A 
HETATM    4  C   UNL     1      44.055 -19.291   3.856  1.00  0.00     0.001 A 
HETATM    5  C   UNL     1      44.240 -19.480   2.491  1.00  0.00     0.002 A 
HETATM    6  C   UNL     1      43.859 -18.484   1.588  1.00  0.00     0.030 A 
ENDROOT
BRANCH   1   7
HETATM    7  N   UNL     1      42.843 -16.409   0.993  1.00  0.00    -0.322 N 
HETATM    8  C   UNL     1      41.588 -16.421   0.408  1.00  0.00     0.256 C 
HETATM    9  O   UNL     1      40.673 -17.182   0.698  1.00  0.00    -0.267 OA
HETATM   10  H   UNL     1      43.581 -16.012   0.426  1.00  0.00     0.169 HD
BRANCH   8  11
HETATM   11  C   UNL     1      41.383 -15.488  -0.740  1.00  0.00     0.037 A 
HETATM   12  C   UNL     1      41.820 -14.163  -0.576  1.00  0.00     0.054 A 
HETATM   13  C   UNL     1      41.655 -13.235  -1.600  1.00  0.00     0.071 A 
HETATM   14  C   UNL     1      41.034 -13.634  -2.783  1.00  0.00     0.073 A 
HETATM   15  C   UNL     1      40.610 -14.954  -2.970  1.00  0.00     0.071 A 
HETATM   16  C   UNL     1      40.796 -15.888  -1.950  1.00  0.00     0.054 A 
BRANCH  13  17
HETATM   17  O   UNL     1      42.041 -11.924  -1.559  1.00  0.00    -0.356 OA
HETATM   18  C   UNL     1      42.097 -11.318  -0.271  1.00  0.00     0.210 C 
ENDBRANCH  13  17
BRANCH  15  19
HETATM   19  O   UNL     1      40.039 -15.194  -4.189  1.00  0.00    -0.356 OA
HETATM   20  C   UNL     1      38.948 -16.103  -4.236  1.00  0.00     0.210 C 
ENDBRANCH  15  19
ENDBRANCH   8  11
ENDBRANCH   1   7
BRANCH   2  21
HETATM   21  C   UNL     1      42.795 -15.786   4.064  1.00  0.00     0.253 C 
HETATM   22  N   UNL     1      41.729 -15.853   4.938  1.00  0.00    -0.355 N 
HETATM   23  H   UNL     1      41.337 -16.759   5.147  1.00  0.00     0.162 HD
HETATM   24  O   UNL     1      43.358 -14.750   3.732  1.00  0.00    -0.268 OA
BRANCH  22  25
HETATM   25  C   UNL     1      41.327 -14.725   5.757  1.00  0.00     0.149 C 
BRANCH  25  26
HETATM   26  C   UNL     1      40.133 -13.921   5.230  1.00  0.00     0.195 C 
BRANCH  26  27
HETATM   27  O   UNL     1      40.543 -13.127   4.106  1.00  0.00    -0.350 OA
BRANCH  27  28
HETATM   28  C   UNL     1      39.766 -13.327   2.995  1.00  0.00     0.068 A 
HETATM   29  C   UNL     1      39.529 -12.211   2.195  1.00  0.00     0.037 A 
HETATM   30  C   UNL     1      38.751 -12.327   1.041  1.00  0.00     0.003 A 
HETATM   31  C   UNL     1      38.225 -13.565   0.676  1.00  0.00     0.000 A 
HETATM   32  C   UNL     1      38.484 -14.689   1.460  1.00  0.00     0.003 A 
HETATM   33  C   UNL     1      39.259 -14.573   2.616  1.00  0.00     0.037 A 
ENDBRANCH  27  28
ENDBRANCH  26  27
ENDBRANCH  25  26
ENDBRANCH  22  25
ENDBRANCH   2  21
TORSDOF 9
ENDMDL
MODEL 9
REMARK VINA RESULT:      -7.2      2.467      5.772
REMARK  9 active torsions:
REMARK  status: ('A' for Active; 'I' for Inactive)
REMARK    1  A    between atoms: O_2  and  C_3 
REMARK    2  A    between atoms: C_5  and  O_6 
REMARK    3  A    between atoms: C_9  and  C_10 
REMARK       I    between atoms: C_10  and  N_11 
REMARK    4  A    between atoms: N_11  and  C_12 
REMARK    5  A    between atoms: C_13  and  C_14 
REMARK       I    between atoms: C_14  and  N_15 
REMARK    6  A    between atoms: N_15  and  C_16 
REMARK    7  A    between atoms: C_16  and  C_17 
REMARK    8  A    between atoms: C_17  and  O_18 
REMARK    9  A    between atoms: O_18  and  C_19 
ROOT
HETATM    1  C   UNL     1      44.092 -19.000   3.990  1.00  0.00     0.050 A 
HETATM    2  C   UNL     1      43.837 -19.319   2.642  1.00  0.00     0.058 A 
HETATM    3  C   UNL     1      44.089 -20.619   2.165  1.00  0.00     0.019 A 
HETATM    4  C   UNL     1      44.544 -21.617   3.023  1.00  0.00     0.001 A 
HETATM    5  C   UNL     1      44.735 -21.329   4.369  1.00  0.00     0.002 A 
HETATM    6  C   UNL     1      44.506 -20.036   4.849  1.00  0.00     0.030 A 
ENDROOT
BRANCH   1   7
HETATM    7  N   UNL     1      44.002 -17.718   4.598  1.00  0.00    -0.322 N 
HETATM    8  C   UNL     1      42.826 -17.097   4.984  1.00  0.00     0.256 C 
HETATM    9  O   UNL     1      41.700 -17.561   4.859  1.00  0.00    -0.267 OA
HETATM   10  H   UNL     1      44.780 -17.097   4.415  1.00  0.00     0.169 HD
BRANCH   8  11
HETATM   11  C   UNL     1      42.953 -15.703   5.504  1.00  0.00     0.037 A 
HETATM   12  C   UNL     1      44.001 -15.446   6.404  1.00  0.00     0.054 A 
HETATM   13  C   UNL     1      44.176 -14.173   6.936  1.00  0.00     0.071 A 
HETATM   14  C   UNL     1      43.287 -13.160   6.578  1.00  0.00     0.073 A 
HETATM   15  C   UNL     1      42.249 -13.394   5.669  1.00  0.00     0.071 A 
HETATM   16  C   UNL     1      42.088 -14.666   5.120  1.00  0.00     0.054 A 
BRANCH  13  17
HETATM   17  O   UNL     1      45.156 -13.803   7.814  1.00  0.00    -0.356 OA
HETATM   18  C   UNL     1      44.888 -12.661   8.622  1.00  0.00     0.210 C 
ENDBRANCH  13  17
BRANCH  15  19
HETATM   19  O   UNL     1      41.477 -12.297   5.403  1.00  0.00    -0.356 OA
HETATM   20  C   UNL     1      41.384 -11.298   6.409  1.00  0.00     0.210 C 
ENDBRANCH  15  19
ENDBRANCH   8  11
ENDBRANCH   1   7
BRANCH   2  21
HETATM   21  C   UNL     1      43.171 -18.427   1.660  1.00  0.00     0.253 C 
HETATM   22  N   UNL     1      41.812 -18.273   1.843  1.00  0.00    -0.355 N 
HETATM   23  H   UNL     1      41.389 -18.687   2.660  1.00  0.00     0.162 HD
HETATM   24  O   UNL     1      43.801 -17.973   0.712  1.00  0.00    -0.268 OA
BRANCH  22  25
HETATM   25  C   UNL     1      41.026 -17.336   1.061  1.00  0.00     0.149 C 
BRANCH  25  26
HETATM   26  C   UNL     1      41.303 -15.854   1.336  1.00  0.00     0.195 C 
BRANCH  26  27
HETATM   27  O   UNL     1      41.834 -15.234   0.155  1.00  0.00    -0.350 OA
BRANCH  27  28
HETATM   28  C   UNL     1      40.872 -14.933  -0.773  1.00  0.00     0.068 A 
HETATM   29  C   UNL     1      41.039 -15.486  -2.042  1.00  0.00     0.037 A 
HETATM   30  C   UNL     1      40.102 -15.233  -3.046  1.00  0.00     0.003 A 
HETATM   31  C   UNL     1      38.987 -14.441  -2.777  1.00  0.00     0.000 A 
HETATM   32  C   UNL     1      38.804 -13.909  -1.501  1.00  0.00     0.003 A 
HETATM   33  C   UNL     1      39.742 -14.159  -0.497  1.00  0.00     0.037 A 
ENDBRANCH  27  28
ENDBRANCH  26  27
ENDBRANCH  25  26
ENDBRANCH  22  25
ENDBRANCH   2  21
TORSDOF 9
ENDMDL
MODEL 10
REMARK VINA RESULT:      -7.2      3.116      6.552
REMARK  9 active torsions:
REMARK  status: ('A' for Active; 'I' for Inactive)
REMARK    1  A    between atoms: O_2  and  C_3 
REMARK    2  A    between atoms: C_5  and  O_6 
REMARK    3  A    between atoms: C_9  and  C_10 
REMARK       I    between atoms: C_10  and  N_11 
REMARK    4  A    between atoms: N_11  and  C_12 
REMARK    5  A    between atoms: C_13  and  C_14 
REMARK       I    between atoms: C_14  and  N_15 
REMARK    6  A    between atoms: N_15  and  C_16 
REMARK    7  A    between atoms: C_16  and  C_17 
REMARK    8  A    between atoms: C_17  and  O_18 
REMARK    9  A    between atoms: O_18  and  C_19 
ROOT
HETATM    1  C   UNL     1      39.915 -13.489   2.887  1.00  0.00     0.050 A 
HETATM    2  C   UNL     1      40.195 -14.368   3.952  1.00  0.00     0.058 A 
HETATM    3  C   UNL     1      39.929 -13.976   5.277  1.00  0.00     0.019 A 
HETATM    4  C   UNL     1      39.344 -12.743   5.552  1.00  0.00     0.001 A 
HETATM    5  C   UNL     1      39.003 -11.897   4.503  1.00  0.00     0.002 A 
HETATM    6  C   UNL     1      39.280 -12.269   3.185  1.00  0.00     0.030 A 
ENDROOT
BRANCH   1   7
HETATM    7  N   UNL     1      40.227 -13.684   1.513  1.00  0.00    -0.322 N 
HETATM    8  C   UNL     1      41.440 -13.380   0.918  1.00  0.00     0.256 C 
HETATM    9  O   UNL     1      42.414 -12.902   1.486  1.00  0.00    -0.267 OA
HETATM   10  H   UNL     1      39.432 -13.708   0.888  1.00  0.00     0.169 HD
BRANCH   8  11
HETATM   11  C   UNL     1      41.516 -13.563  -0.562  1.00  0.00     0.037 A 
HETATM   12  C   UNL     1      40.964 -14.741  -1.092  1.00  0.00     0.054 A 
HETATM   13  C   UNL     1      41.004 -14.984  -2.461  1.00  0.00     0.071 A 
HETATM   14  C   UNL     1      41.617 -14.051  -3.298  1.00  0.00     0.073 A 
HETATM   15  C   UNL     1      42.155 -12.864  -2.789  1.00  0.00     0.071 A 
HETATM   16  C   UNL     1      42.094 -12.612  -1.418  1.00  0.00     0.054 A 
BRANCH  13  17
HETATM   17  O   UNL     1      40.501 -16.088  -3.092  1.00  0.00    -0.356 OA
HETATM   18  C   UNL     1      39.356 -15.883  -3.915  1.00  0.00     0.210 C 
ENDBRANCH  13  17
BRANCH  15  19
HETATM   19  O   UNL     1      42.701 -12.043  -3.736  1.00  0.00    -0.356 OA
HETATM   20  C   UNL     1      41.823 -11.169  -4.433  1.00  0.00     0.210 C 
ENDBRANCH  15  19
ENDBRANCH   8  11
ENDBRANCH   1   7
BRANCH   2  21
HETATM   21  C   UNL     1      40.631 -15.779   3.808  1.00  0.00     0.253 C 
HETATM   22  N   UNL     1      40.994 -16.398   4.987  1.00  0.00    -0.355 N 
HETATM   23  H   UNL     1      40.855 -15.899   5.853  1.00  0.00     0.162 HD
HETATM   24  O   UNL     1      40.749 -16.279   2.696  1.00  0.00    -0.268 OA
BRANCH  22  25
HETATM   25  C   UNL     1      41.318 -17.811   5.052  1.00  0.00     0.149 C 
BRANCH  25  26
HETATM   26  C   UNL     1      42.795 -18.139   5.297  1.00  0.00     0.195 C 
BRANCH  26  27
HETATM   27  O   UNL     1      43.519 -18.058   4.060  1.00  0.00    -0.350 OA
BRANCH  27  28
HETATM   28  C   UNL     1      43.780 -19.286   3.508  1.00  0.00     0.068 A 
HETATM   29  C   UNL     1      44.505 -20.178   4.296  1.00  0.00     0.037 A 
HETATM   30  C   UNL     1      44.811 -21.452   3.813  1.00  0.00     0.003 A 
HETATM   31  C   UNL     1      44.375 -21.842   2.548  1.00  0.00     0.000 A 
HETATM   32  C   UNL     1      43.626 -20.960   1.768  1.00  0.00     0.003 A 
HETATM   33  C   UNL     1      43.323 -19.685   2.249  1.00  0.00     0.037 A 
ENDBRANCH  27  28
ENDBRANCH  26  27
ENDBRANCH  25  26
ENDBRANCH  22  25
ENDBRANCH   2  21
TORSDOF 9
ENDMDL
