MODEL 1
REMARK VINA RESULT:      -7.8      0.000      0.000
REMARK  3 active torsions:
REMARK  status: ('A' for Active; 'I' for Inactive)
REMARK    1  A    between atoms: C_9  and  C_10 
REMARK       I    between atoms: C_10  and  N_11 
REMARK    2  A    between atoms: N_11  and  C_12 
REMARK    3  A    between atoms: C_12  and  C_13 
ROOT
HETATM    1  C   UNL     1      43.006 -15.563   3.064  1.00  0.00     0.258 C 
HETATM    2  N   UNL     1      41.718 -15.427   2.603  1.00  0.00    -0.342 N 
HETATM    3  O   UNL     1      43.783 -14.623   3.187  1.00  0.00    -0.267 OA
HETATM    4  H   UNL     1      41.136 -16.261   2.691  1.00  0.00     0.164 HD
ENDROOT
BRANCH   1   5
HETATM    5  C   UNL     1      43.395 -16.924   3.399  1.00  0.00     0.105 A 
HETATM    6  C   UNL     1      43.522 -17.483   4.659  1.00  0.00     0.169 A 
HETATM    7  N   UNL     1      43.325 -16.952   5.908  1.00  0.00    -0.233 NA
HETATM    8  N   UNL     1      43.951 -18.801   4.466  1.00  0.00    -0.219 N 
HETATM    9  C   UNL     1      43.573 -17.738   6.917  1.00  0.00     0.035 A 
HETATM   10  C   UNL     1      43.395 -17.200   8.314  1.00  0.00     0.070 C 
HETATM   11  C   UNL     1      44.036 -19.158   6.806  1.00  0.00     0.053 A 
HETATM   12  C   UNL     1      44.205 -19.638   5.562  1.00  0.00     0.036 A 
HETATM   13  C   UNL     1      44.665 -21.037   5.287  1.00  0.00     0.070 C 
HETATM   14  N   UNL     1      44.073 -19.097   3.151  1.00  0.00    -0.170 NA
HETATM   15  C   UNL     1      43.753 -17.969   2.508  1.00  0.00     0.071 A 
HETATM   16  C   UNL     1      43.794 -17.927   1.024  1.00  0.00     0.073 C 
ENDBRANCH   1   5
BRANCH   2  17
HETATM   17  C   UNL     1      41.025 -14.147   2.401  1.00  0.00     0.079 C 
HETATM   18  C   UNL     1      39.519 -14.416   2.218  1.00  0.00     0.046 C 
HETATM   19  C   UNL     1      41.213 -13.165   3.577  1.00  0.00     0.046 C 
BRANCH  17  20
HETATM   20  C   UNL     1      41.597 -13.509   1.136  1.00  0.00     0.128 A 
HETATM   21  S   UNL     1      41.468 -14.279  -0.408  1.00  0.00    -0.031 SA
HETATM   22  C   UNL     1      42.370 -12.975  -1.062  1.00  0.00     0.187 A 
HETATM   23  N   UNL     1      42.719 -12.941  -2.363  1.00  0.00    -0.377 N 
HETATM   24  N   UNL     1      42.692 -12.058  -0.181  1.00  0.00    -0.124 NA
HETATM   25  H   UNL     1      42.755 -13.822  -2.863  1.00  0.00     0.158 HD
HETATM   26  H   UNL     1      43.473 -12.305  -2.595  1.00  0.00     0.158 HD
HETATM   27  N   UNL     1      42.247 -12.362   1.089  1.00  0.00    -0.142 NA
ENDBRANCH  17  20
ENDBRANCH   2  17
TORSDOF 3
ENDMDL
MODEL 2
REMARK VINA RESULT:      -7.7      2.208      3.615
REMARK  3 active torsions:
REMARK  status: ('A' for Active; 'I' for Inactive)
REMARK    1  A    between atoms: C_9  and  C_10 
REMARK       I    between atoms: C_10  and  N_11 
REMARK    2  A    between atoms: N_11  and  C_12 
REMARK    3  A    between atoms: C_12  and  C_13 
ROOT
HETATM    1  C   UNL     1      42.932 -15.560   5.743  1.00  0.00     0.258 C 
HETATM    2  N   UNL     1      42.015 -15.249   4.767  1.00  0.00    -0.342 N 
HETATM    3  O   UNL     1      43.323 -14.760   6.584  1.00  0.00    -0.267 OA
HETATM    4  H   UNL     1      41.667 -16.042   4.229  1.00  0.00     0.164 HD
ENDROOT
BRANCH   1   5
HETATM    5  C   UNL     1      43.419 -16.930   5.707  1.00  0.00     0.105 A 
HETATM    6  C   UNL     1      43.699 -17.701   4.592  1.00  0.00     0.169 A 
HETATM    7  N   UNL     1      43.611 -17.421   3.253  1.00  0.00    -0.233 NA
HETATM    8  N   UNL     1      44.105 -18.953   5.068  1.00  0.00    -0.219 N 
HETATM    9  C   UNL     1      43.911 -18.391   2.437  1.00  0.00     0.035 A 
HETATM   10  C   UNL     1      43.809 -18.144   0.953  1.00  0.00     0.070 C 
HETATM   11  C   UNL     1      44.351 -19.759   2.855  1.00  0.00     0.053 A 
HETATM   12  C   UNL     1      44.434 -19.985   4.177  1.00  0.00     0.036 A 
HETATM   13  C   UNL     1      44.857 -21.303   4.752  1.00  0.00     0.070 C 
HETATM   14  N   UNL     1      44.115 -18.992   6.421  1.00  0.00    -0.170 NA
HETATM   15  C   UNL     1      43.692 -17.784   6.808  1.00  0.00     0.071 A 
HETATM   16  C   UNL     1      43.565 -17.473   8.255  1.00  0.00     0.073 C 
ENDBRANCH   1   5
BRANCH   2  17
HETATM   17  C   UNL     1      41.224 -14.011   4.718  1.00  0.00     0.079 C 
HETATM   18  C   UNL     1      40.227 -14.007   5.893  1.00  0.00     0.046 C 
HETATM   19  C   UNL     1      42.090 -12.735   4.800  1.00  0.00     0.046 C 
BRANCH  17  20
HETATM   20  C   UNL     1      40.465 -14.002   3.392  1.00  0.00     0.128 A 
HETATM   21  S   UNL     1      40.882 -15.071   2.099  1.00  0.00    -0.031 SA
HETATM   22  C   UNL     1      39.660 -14.314   1.163  1.00  0.00     0.187 A 
HETATM   23  N   UNL     1      39.436 -14.661  -0.119  1.00  0.00    -0.377 N 
HETATM   24  N   UNL     1      39.006 -13.376   1.805  1.00  0.00    -0.124 NA
HETATM   25  H   UNL     1      40.194 -15.105  -0.625  1.00  0.00     0.158 HD
HETATM   26  H   UNL     1      38.913 -13.988  -0.668  1.00  0.00     0.158 HD
HETATM   27  N   UNL     1      39.466 -13.193   3.093  1.00  0.00    -0.142 NA
ENDBRANCH  17  20
ENDBRANCH   2  17
TORSDOF 3
ENDMDL
MODEL 3
REMARK VINA RESULT:      -7.7      2.123      3.324
REMARK  3 active torsions:
REMARK  status: ('A' for Active; 'I' for Inactive)
REMARK    1  A    between atoms: C_9  and  C_10 
REMARK       I    between atoms: C_10  and  N_11 
REMARK    2  A    between atoms: N_11  and  C_12 
REMARK    3  A    between atoms: C_12  and  C_13 
ROOT
HETATM    1  C   UNL     1      43.055 -15.400   3.186  1.00  0.00     0.258 C 
HETATM    2  N   UNL     1      41.795 -15.253   2.655  1.00  0.00    -0.342 N 
HETATM    3  O   UNL     1      43.805 -14.459   3.417  1.00  0.00    -0.267 OA
HETATM    4  H   UNL     1      41.224 -16.099   2.653  1.00  0.00     0.164 HD
ENDROOT
BRANCH   1   5
HETATM    5  C   UNL     1      43.448 -16.774   3.456  1.00  0.00     0.105 A 
HETATM    6  C   UNL     1      43.566 -17.394   4.688  1.00  0.00     0.169 A 
HETATM    7  N   UNL     1      43.354 -16.927   5.960  1.00  0.00    -0.233 NA
HETATM    8  N   UNL     1      44.003 -18.699   4.434  1.00  0.00    -0.219 N 
HETATM    9  C   UNL     1      43.598 -17.761   6.931  1.00  0.00     0.035 A 
HETATM   10  C   UNL     1      43.404 -17.294   8.351  1.00  0.00     0.070 C 
HETATM   11  C   UNL     1      44.069 -19.171   6.754  1.00  0.00     0.053 A 
HETATM   12  C   UNL     1      44.252 -19.589   5.489  1.00  0.00     0.036 A 
HETATM   13  C   UNL     1      44.722 -20.970   5.149  1.00  0.00     0.070 C 
HETATM   14  N   UNL     1      44.139 -18.929   3.107  1.00  0.00    -0.170 NA
HETATM   15  C   UNL     1      43.819 -17.772   2.518  1.00  0.00     0.071 A 
HETATM   16  C   UNL     1      43.874 -17.655   1.038  1.00  0.00     0.073 C 
ENDBRANCH   1   5
BRANCH   2  17
HETATM   17  C   UNL     1      41.092 -13.973   2.493  1.00  0.00     0.079 C 
HETATM   18  C   UNL     1      41.990 -13.006   1.697  1.00  0.00     0.046 C 
HETATM   19  C   UNL     1      39.741 -14.111   1.759  1.00  0.00     0.046 C 
BRANCH  17  20
HETATM   20  C   UNL     1      40.834 -13.410   3.890  1.00  0.00     0.128 A 
HETATM   21  S   UNL     1      39.871 -14.260   5.048  1.00  0.00    -0.031 SA
HETATM   22  C   UNL     1      40.093 -12.934   6.112  1.00  0.00     0.187 A 
HETATM   23  N   UNL     1      39.511 -12.897   7.326  1.00  0.00    -0.377 N 
HETATM   24  N   UNL     1      40.848 -11.980   5.620  1.00  0.00    -0.124 NA
HETATM   25  H   UNL     1      38.685 -13.467   7.469  1.00  0.00     0.158 HD
HETATM   26  H   UNL     1      39.458 -11.981   7.757  1.00  0.00     0.158 HD
HETATM   27  N   UNL     1      41.279 -12.252   4.338  1.00  0.00    -0.142 NA
ENDBRANCH  17  20
ENDBRANCH   2  17
TORSDOF 3
ENDMDL
MODEL 4
REMARK VINA RESULT:      -7.7      1.834      3.083
REMARK  3 active torsions:
REMARK  status: ('A' for Active; 'I' for Inactive)
REMARK    1  A    between atoms: C_9  and  C_10 
REMARK       I    between atoms: C_10  and  N_11 
REMARK    2  A    between atoms: N_11  and  C_12 
REMARK    3  A    between atoms: C_12  and  C_13 
ROOT
HETATM    1  C   UNL     1      41.270 -16.192   2.340  1.00  0.00     0.258 C 
HETATM    2  N   UNL     1      41.629 -15.078   1.620  1.00  0.00    -0.342 N 
HETATM    3  O   UNL     1      40.275 -16.864   2.095  1.00  0.00    -0.267 OA
HETATM    4  H   UNL     1      42.553 -14.702   1.835  1.00  0.00     0.164 HD
ENDROOT
BRANCH   1   5
HETATM    5  C   UNL     1      42.164 -16.525   3.438  1.00  0.00     0.105 A 
HETATM    6  C   UNL     1      42.962 -17.649   3.568  1.00  0.00     0.169 A 
HETATM    7  N   UNL     1      43.145 -18.730   2.745  1.00  0.00    -0.233 NA
HETATM    8  N   UNL     1      43.609 -17.533   4.804  1.00  0.00    -0.219 N 
HETATM    9  C   UNL     1      43.947 -19.660   3.179  1.00  0.00     0.035 A 
HETATM   10  C   UNL     1      44.167 -20.882   2.324  1.00  0.00     0.070 C 
HETATM   11  C   UNL     1      44.679 -19.622   4.485  1.00  0.00     0.053 A 
HETATM   12  C   UNL     1      44.477 -18.538   5.255  1.00  0.00     0.036 A 
HETATM   13  C   UNL     1      45.136 -18.355   6.588  1.00  0.00     0.070 C 
HETATM   14  N   UNL     1      43.274 -16.384   5.436  1.00  0.00    -0.170 NA
HETATM   15  C   UNL     1      42.397 -15.783   4.625  1.00  0.00     0.071 A 
HETATM   16  C   UNL     1      41.799 -14.481   5.017  1.00  0.00     0.073 C 
ENDBRANCH   1   5
BRANCH   2  17
HETATM   17  C   UNL     1      41.017 -14.661   0.351  1.00  0.00     0.079 C 
HETATM   18  C   UNL     1      41.268 -15.752  -0.708  1.00  0.00     0.046 C 
HETATM   19  C   UNL     1      39.497 -14.419   0.462  1.00  0.00     0.046 C 
BRANCH  17  20
HETATM   20  C   UNL     1      41.689 -13.357  -0.078  1.00  0.00     0.128 A 
HETATM   21  S   UNL     1      41.793 -12.891  -1.740  1.00  0.00    -0.031 SA
HETATM   22  C   UNL     1      42.677 -11.513  -1.233  1.00  0.00     0.187 A 
HETATM   23  N   UNL     1      43.173 -10.627  -2.119  1.00  0.00    -0.377 N 
HETATM   24  N   UNL     1      42.832 -11.430   0.067  1.00  0.00    -0.124 NA
HETATM   25  H   UNL     1      43.326 -10.947  -3.069  1.00  0.00     0.158 HD
HETATM   26  H   UNL     1      43.906 -10.021  -1.766  1.00  0.00     0.158 HD
HETATM   27  N   UNL     1      42.262 -12.493   0.738  1.00  0.00    -0.142 NA
ENDBRANCH  17  20
ENDBRANCH   2  17
TORSDOF 3
ENDMDL
MODEL 5
REMARK VINA RESULT:      -7.7      1.755      1.929
REMARK  3 active torsions:
REMARK  status: ('A' for Active; 'I' for Inactive)
REMARK    1  A    between atoms: C_9  and  C_10 
REMARK       I    between atoms: C_10  and  N_11 
REMARK    2  A    between atoms: N_11  and  C_12 
REMARK    3  A    between atoms: C_12  and  C_13 
ROOT
HETATM    1  C   UNL     1      42.702 -15.794   3.248  1.00  0.00     0.258 C 
HETATM    2  N   UNL     1      41.529 -15.547   3.920  1.00  0.00    -0.342 N 
HETATM    3  O   UNL     1      43.257 -14.971   2.531  1.00  0.00    -0.267 OA
HETATM    4  H   UNL     1      41.257 -16.261   4.596  1.00  0.00     0.164 HD
ENDROOT
BRANCH   1   5
HETATM    5  C   UNL     1      43.250 -17.127   3.447  1.00  0.00     0.105 A 
HETATM    6  C   UNL     1      43.515 -17.763   4.647  1.00  0.00     0.169 A 
HETATM    7  N   UNL     1      43.345 -17.355   5.945  1.00  0.00    -0.233 NA
HETATM    8  N   UNL     1      44.064 -19.009   4.322  1.00  0.00    -0.219 N 
HETATM    9  C   UNL     1      43.738 -18.184   6.869  1.00  0.00     0.035 A 
HETATM   10  C   UNL     1      43.596 -17.776   8.314  1.00  0.00     0.070 C 
HETATM   11  C   UNL     1      44.337 -19.532   6.615  1.00  0.00     0.053 A 
HETATM   12  C   UNL     1      44.474 -19.896   5.328  1.00  0.00     0.036 A 
HETATM   13  C   UNL     1      45.057 -21.211   4.913  1.00  0.00     0.070 C 
HETATM   14  N   UNL     1      44.131 -19.189   2.982  1.00  0.00    -0.170 NA
HETATM   15  C   UNL     1      43.656 -18.056   2.454  1.00  0.00     0.071 A 
HETATM   16  C   UNL     1      43.596 -17.896   0.978  1.00  0.00     0.073 C 
ENDBRANCH   1   5
BRANCH   2  17
HETATM   17  C   UNL     1      40.895 -14.227   4.052  1.00  0.00     0.079 C 
HETATM   18  C   UNL     1      39.846 -14.285   5.179  1.00  0.00     0.046 C 
HETATM   19  C   UNL     1      41.902 -13.101   4.370  1.00  0.00     0.046 C 
BRANCH  17  20
HETATM   20  C   UNL     1      40.212 -13.910   2.722  1.00  0.00     0.128 A 
HETATM   21  S   UNL     1      39.154 -15.041   1.952  1.00  0.00    -0.031 SA
HETATM   22  C   UNL     1      38.998 -13.921   0.663  1.00  0.00     0.187 A 
HETATM   23  N   UNL     1      38.267 -14.203  -0.432  1.00  0.00    -0.377 N 
HETATM   24  N   UNL     1      39.667 -12.807   0.845  1.00  0.00    -0.124 NA
HETATM   25  H   UNL     1      38.102 -15.179  -0.650  1.00  0.00     0.158 HD
HETATM   26  H   UNL     1      38.459 -13.627  -1.245  1.00  0.00     0.158 HD
HETATM   27  N   UNL     1      40.368 -12.796   2.033  1.00  0.00    -0.142 NA
ENDBRANCH  17  20
ENDBRANCH   2  17
TORSDOF 3
ENDMDL
MODEL 6
REMARK VINA RESULT:      -7.6      2.158      3.778
REMARK  3 active torsions:
REMARK  status: ('A' for Active; 'I' for Inactive)
REMARK    1  A    between atoms: C_9  and  C_10 
REMARK       I    between atoms: C_10  and  N_11 
REMARK    2  A    between atoms: N_11  and  C_12 
REMARK    3  A    between atoms: C_12  and  C_13 
ROOT
HETATM    1  C   UNL     1      43.600 -17.030   3.510  1.00  0.00     0.258 C 
HETATM    2  N   UNL     1      42.814 -16.187   4.260  1.00  0.00    -0.342 N 
HETATM    3  O   UNL     1      43.920 -16.804   2.350  1.00  0.00    -0.267 OA
HETATM    4  H   UNL     1      42.749 -16.421   5.250  1.00  0.00     0.164 HD
ENDROOT
BRANCH   1   5
HETATM    5  C   UNL     1      44.033 -18.236   4.200  1.00  0.00     0.105 A 
HETATM    6  C   UNL     1      44.147 -19.514   3.682  1.00  0.00     0.169 A 
HETATM    7  N   UNL     1      43.903 -20.006   2.425  1.00  0.00    -0.233 NA
HETATM    8  N   UNL     1      44.565 -20.334   4.736  1.00  0.00    -0.219 N 
HETATM    9  C   UNL     1      44.067 -21.287   2.263  1.00  0.00     0.035 A 
HETATM   10  C   UNL     1      43.792 -21.885   0.906  1.00  0.00     0.070 C 
HETATM   11  C   UNL     1      44.509 -22.239   3.331  1.00  0.00     0.053 A 
HETATM   12  C   UNL     1      44.746 -21.711   4.544  1.00  0.00     0.036 A 
HETATM   13  C   UNL     1      45.192 -22.532   5.715  1.00  0.00     0.070 C 
HETATM   14  N   UNL     1      44.740 -19.626   5.877  1.00  0.00    -0.170 NA
HETATM   15  C   UNL     1      44.409 -18.369   5.562  1.00  0.00     0.071 A 
HETATM   16  C   UNL     1      44.472 -17.307   6.598  1.00  0.00     0.073 C 
ENDBRANCH   1   5
BRANCH   2  17
HETATM   17  C   UNL     1      42.431 -14.824   3.868  1.00  0.00     0.079 C 
HETATM   18  C   UNL     1      41.847 -14.096   5.095  1.00  0.00     0.046 C 
HETATM   19  C   UNL     1      43.612 -13.996   3.317  1.00  0.00     0.046 C 
BRANCH  17  20
HETATM   20  C   UNL     1      41.366 -14.940   2.778  1.00  0.00     0.128 A 
HETATM   21  S   UNL     1      41.587 -14.240   1.212  1.00  0.00    -0.031 SA
HETATM   22  C   UNL     1      40.010 -14.784   0.816  1.00  0.00     0.187 A 
HETATM   23  N   UNL     1      39.450 -14.514  -0.379  1.00  0.00    -0.377 N 
HETATM   24  N   UNL     1      39.420 -15.448   1.781  1.00  0.00    -0.124 NA
HETATM   25  H   UNL     1      39.805 -13.718  -0.896  1.00  0.00     0.158 HD
HETATM   26  H   UNL     1      38.442 -14.617  -0.422  1.00  0.00     0.158 HD
HETATM   27  N   UNL     1      40.199 -15.542   2.915  1.00  0.00    -0.142 NA
ENDBRANCH  17  20
ENDBRANCH   2  17
TORSDOF 3
ENDMDL
MODEL 7
REMARK VINA RESULT:      -7.3      2.876      7.181
REMARK  3 active torsions:
REMARK  status: ('A' for Active; 'I' for Inactive)
REMARK    1  A    between atoms: C_9  and  C_10 
REMARK       I    between atoms: C_10  and  N_11 
REMARK    2  A    between atoms: N_11  and  C_12 
REMARK    3  A    between atoms: C_12  and  C_13 
ROOT
HETATM    1  C   UNL     1      41.888 -17.515   4.652  1.00  0.00     0.258 C 
HETATM    2  N   UNL     1      43.210 -17.411   5.016  1.00  0.00    -0.342 N 
HETATM    3  O   UNL     1      41.066 -18.179   5.271  1.00  0.00    -0.267 OA
HETATM    4  H   UNL     1      43.747 -16.711   4.504  1.00  0.00     0.164 HD
ENDROOT
BRANCH   1   5
HETATM    5  C   UNL     1      41.524 -16.771   3.456  1.00  0.00     0.105 A 
HETATM    6  C   UNL     1      40.901 -15.538   3.382  1.00  0.00     0.169 A 
HETATM    7  N   UNL     1      40.464 -14.684   4.363  1.00  0.00    -0.233 NA
HETATM    8  N   UNL     1      40.734 -15.259   2.021  1.00  0.00    -0.219 N 
HETATM    9  C   UNL     1      39.867 -13.599   3.962  1.00  0.00     0.035 A 
HETATM   10  C   UNL     1      39.346 -12.635   4.999  1.00  0.00     0.070 C 
HETATM   11  C   UNL     1      39.643 -13.220   2.531  1.00  0.00     0.053 A 
HETATM   12  C   UNL     1      40.097 -14.081   1.604  1.00  0.00     0.036 A 
HETATM   13  C   UNL     1      39.948 -13.844   0.132  1.00  0.00     0.070 C 
HETATM   14  N   UNL     1      41.244 -16.244   1.245  1.00  0.00    -0.170 NA
HETATM   15  C   UNL     1      41.707 -17.159   2.103  1.00  0.00     0.071 A 
HETATM   16  C   UNL     1      42.333 -18.404   1.589  1.00  0.00     0.073 C 
ENDBRANCH   1   5
BRANCH   2  17
HETATM   17  C   UNL     1      43.773 -17.887   6.287  1.00  0.00     0.079 C 
HETATM   18  C   UNL     1      45.108 -17.161   6.547  1.00  0.00     0.046 C 
HETATM   19  C   UNL     1      42.838 -17.650   7.492  1.00  0.00     0.046 C 
BRANCH  17  20
HETATM   20  C   UNL     1      44.018 -19.389   6.147  1.00  0.00     0.128 A 
HETATM   21  S   UNL     1      44.812 -20.056   4.763  1.00  0.00    -0.031 SA
HETATM   22  C   UNL     1      44.552 -21.609   5.441  1.00  0.00     0.187 A 
HETATM   23  N   UNL     1      44.923 -22.732   4.795  1.00  0.00    -0.377 N 
HETATM   24  N   UNL     1      43.952 -21.585   6.607  1.00  0.00    -0.124 NA
HETATM   25  H   UNL     1      45.030 -22.682   3.789  1.00  0.00     0.158 HD
HETATM   26  H   UNL     1      44.486 -23.587   5.121  1.00  0.00     0.158 HD
HETATM   27  N   UNL     1      43.643 -20.306   7.019  1.00  0.00    -0.142 NA
ENDBRANCH  17  20
ENDBRANCH   2  17
TORSDOF 3
ENDMDL
MODEL 8
REMARK VINA RESULT:      -7.3      2.151      2.566
REMARK  3 active torsions:
REMARK  status: ('A' for Active; 'I' for Inactive)
REMARK    1  A    between atoms: C_9  and  C_10 
REMARK       I    between atoms: C_10  and  N_11 
REMARK    2  A    between atoms: N_11  and  C_12 
REMARK    3  A    between atoms: C_12  and  C_13 
ROOT
HETATM    1  C   UNL     1      41.790 -16.338   3.659  1.00  0.00     0.258 C 
HETATM    2  N   UNL     1      42.513 -15.515   4.490  1.00  0.00    -0.342 N 
HETATM    3  O   UNL     1      40.635 -16.111   3.319  1.00  0.00    -0.267 OA
HETATM    4  H   UNL     1      43.504 -15.743   4.571  1.00  0.00     0.164 HD
ENDROOT
BRANCH   1   5
HETATM    5  C   UNL     1      42.500 -17.524   3.205  1.00  0.00     0.105 A 
HETATM    6  C   UNL     1      43.070 -18.519   3.981  1.00  0.00     0.169 A 
HETATM    7  N   UNL     1      43.130 -18.683   5.341  1.00  0.00    -0.233 NA
HETATM    8  N   UNL     1      43.664 -19.422   3.092  1.00  0.00    -0.219 N 
HETATM    9  C   UNL     1      43.788 -19.722   5.770  1.00  0.00     0.035 A 
HETATM   10  C   UNL     1      43.906 -19.939   7.258  1.00  0.00     0.070 C 
HETATM   11  C   UNL     1      44.456 -20.737   4.895  1.00  0.00     0.053 A 
HETATM   12  C   UNL     1      44.361 -20.542   3.569  1.00  0.00     0.036 A 
HETATM   13  C   UNL     1      44.977 -21.468   2.565  1.00  0.00     0.070 C 
HETATM   14  N   UNL     1      43.472 -19.052   1.804  1.00  0.00    -0.170 NA
HETATM   15  C   UNL     1      42.785 -17.907   1.869  1.00  0.00     0.071 A 
HETATM   16  C   UNL     1      42.406 -17.200   0.619  1.00  0.00     0.073 C 
ENDBRANCH   1   5
BRANCH   2  17
HETATM   17  C   UNL     1      42.100 -14.168   4.907  1.00  0.00     0.079 C 
HETATM   18  C   UNL     1      40.736 -14.259   5.618  1.00  0.00     0.046 C 
HETATM   19  C   UNL     1      43.111 -13.493   5.860  1.00  0.00     0.046 C 
BRANCH  17  20
HETATM   20  C   UNL     1      41.973 -13.314   3.646  1.00  0.00     0.128 A 
HETATM   21  S   UNL     1      40.585 -12.324   3.355  1.00  0.00    -0.031 SA
HETATM   22  C   UNL     1      41.282 -11.900   1.848  1.00  0.00     0.187 A 
HETATM   23  N   UNL     1      40.643 -11.096   0.976  1.00  0.00    -0.377 N 
HETATM   24  N   UNL     1      42.456 -12.445   1.634  1.00  0.00    -0.124 NA
HETATM   25  H   UNL     1      39.635 -11.027   1.051  1.00  0.00     0.158 HD
HETATM   26  H   UNL     1      40.984 -11.130   0.021  1.00  0.00     0.158 HD
HETATM   27  N   UNL     1      42.859 -13.261   2.670  1.00  0.00    -0.142 NA
ENDBRANCH  17  20
ENDBRANCH   2  17
TORSDOF 3
ENDMDL
MODEL 9
REMARK VINA RESULT:      -7.2      2.582      7.416
REMARK  3 active torsions:
REMARK  status: ('A' for Active; 'I' for Inactive)
REMARK    1  A    between atoms: C_9  and  C_10 
REMARK       I    between atoms: C_10  and  N_11 
REMARK    2  A    between atoms: N_11  and  C_12 
REMARK    3  A    between atoms: C_12  and  C_13 
ROOT
HETATM    1  C   UNL     1      41.684 -15.982   2.637  1.00  0.00     0.258 C 
HETATM    2  N   UNL     1      42.818 -16.500   3.217  1.00  0.00    -0.342 N 
HETATM    3  O   UNL     1      40.582 -16.512   2.715  1.00  0.00    -0.267 OA
HETATM    4  H   UNL     1      43.632 -15.885   3.202  1.00  0.00     0.164 HD
ENDROOT
BRANCH   1   5
HETATM    5  C   UNL     1      41.884 -14.741   1.906  1.00  0.00     0.105 A 
HETATM    6  C   UNL     1      41.695 -14.514   0.554  1.00  0.00     0.169 A 
HETATM    7  N   UNL     1      41.281 -15.347  -0.454  1.00  0.00    -0.233 NA
HETATM    8  N   UNL     1      42.049 -13.180   0.323  1.00  0.00    -0.219 N 
HETATM    9  C   UNL     1      41.247 -14.834  -1.651  1.00  0.00     0.035 A 
HETATM   10  C   UNL     1      40.820 -15.711  -2.801  1.00  0.00     0.070 C 
HETATM   11  C   UNL     1      41.609 -13.422  -1.991  1.00  0.00     0.053 A 
HETATM   12  C   UNL     1      41.999 -12.639  -0.970  1.00  0.00     0.036 A 
HETATM   13  C   UNL     1      42.394 -11.205  -1.150  1.00  0.00     0.070 C 
HETATM   14  N   UNL     1      42.424 -12.559   1.466  1.00  0.00    -0.170 NA
HETATM   15  C   UNL     1      42.338 -13.496   2.416  1.00  0.00     0.071 A 
HETATM   16  C   UNL     1      42.695 -13.163   3.818  1.00  0.00     0.073 C 
ENDBRANCH   1   5
BRANCH   2  17
HETATM   17  C   UNL     1      42.842 -17.616   4.173  1.00  0.00     0.079 C 
HETATM   18  C   UNL     1      43.913 -17.335   5.244  1.00  0.00     0.046 C 
HETATM   19  C   UNL     1      41.486 -17.840   4.876  1.00  0.00     0.046 C 
BRANCH  17  20
HETATM   20  C   UNL     1      43.204 -18.880   3.395  1.00  0.00     0.128 A 
HETATM   21  S   UNL     1      44.388 -19.998   3.977  1.00  0.00    -0.031 SA
HETATM   22  C   UNL     1      44.151 -20.901   2.539  1.00  0.00     0.187 A 
HETATM   23  N   UNL     1      44.868 -22.010   2.276  1.00  0.00    -0.377 N 
HETATM   24  N   UNL     1      43.242 -20.396   1.739  1.00  0.00    -0.124 NA
HETATM   25  H   UNL     1      45.763 -22.113   2.741  1.00  0.00     0.158 HD
HETATM   26  H   UNL     1      44.871 -22.308   1.306  1.00  0.00     0.158 HD
HETATM   27  N   UNL     1      42.691 -19.230   2.230  1.00  0.00    -0.142 NA
ENDBRANCH  17  20
ENDBRANCH   2  17
TORSDOF 3
ENDMDL
MODEL 10
REMARK VINA RESULT:      -7.2      2.861      4.635
REMARK  3 active torsions:
REMARK  status: ('A' for Active; 'I' for Inactive)
REMARK    1  A    between atoms: C_9  and  C_10 
REMARK       I    between atoms: C_10  and  N_11 
REMARK    2  A    between atoms: N_11  and  C_12 
REMARK    3  A    between atoms: C_12  and  C_13 
ROOT
HETATM    1  C   UNL     1      43.625 -16.973   3.138  1.00  0.00     0.258 C 
HETATM    2  N   UNL     1      42.550 -16.264   3.621  1.00  0.00    -0.342 N 
HETATM    3  O   UNL     1      44.231 -16.671   2.117  1.00  0.00    -0.267 OA
HETATM    4  H   UNL     1      42.236 -16.535   4.553  1.00  0.00     0.164 HD
ENDROOT
BRANCH   1   5
HETATM    5  C   UNL     1      44.001 -18.131   3.934  1.00  0.00     0.105 A 
HETATM    6  C   UNL     1      44.133 -19.442   3.512  1.00  0.00     0.169 A 
HETATM    7  N   UNL     1      43.962 -20.018   2.278  1.00  0.00    -0.233 NA
HETATM    8  N   UNL     1      44.475 -20.191   4.644  1.00  0.00    -0.219 N 
HETATM    9  C   UNL     1      44.122 -21.309   2.214  1.00  0.00     0.035 A 
HETATM   10  C   UNL     1      43.925 -21.996   0.887  1.00  0.00     0.070 C 
HETATM   11  C   UNL     1      44.486 -22.187   3.370  1.00  0.00     0.053 A 
HETATM   12  C   UNL     1      44.653 -21.579   4.557  1.00  0.00     0.036 A 
HETATM   13  C   UNL     1      45.016 -22.322   5.807  1.00  0.00     0.070 C 
HETATM   14  N   UNL     1      44.588 -19.408   5.743  1.00  0.00    -0.170 NA
HETATM   15  C   UNL     1      44.291 -18.174   5.323  1.00  0.00     0.071 A 
HETATM   16  C   UNL     1      44.301 -17.043   6.286  1.00  0.00     0.073 C 
ENDBRANCH   1   5
BRANCH   2  17
HETATM   17  C   UNL     1      42.114 -14.952   3.123  1.00  0.00     0.079 C 
HETATM   18  C   UNL     1      43.357 -14.087   2.835  1.00  0.00     0.046 C 
HETATM   19  C   UNL     1      41.266 -15.044   1.837  1.00  0.00     0.046 C 
BRANCH  17  20
HETATM   20  C   UNL     1      41.271 -14.302   4.219  1.00  0.00     0.128 A 
HETATM   21  S   UNL     1      41.830 -12.919   5.095  1.00  0.00    -0.031 SA
HETATM   22  C   UNL     1      40.390 -13.004   6.022  1.00  0.00     0.187 A 
HETATM   23  N   UNL     1      40.155 -12.153   7.040  1.00  0.00    -0.377 N 
HETATM   24  N   UNL     1      39.581 -13.971   5.659  1.00  0.00    -0.124 NA
HETATM   25  H   UNL     1      40.954 -11.704   7.473  1.00  0.00     0.158 HD
HETATM   26  H   UNL     1      39.441 -12.446   7.698  1.00  0.00     0.158 HD
HETATM   27  N   UNL     1      40.086 -14.722   4.618  1.00  0.00    -0.142 NA
ENDBRANCH  17  20
ENDBRANCH   2  17
TORSDOF 3
ENDMDL
