MODEL 1
REMARK VINA RESULT:      -8.8      0.000      0.000
REMARK  7 active torsions:
REMARK  status: ('A' for Active; 'I' for Inactive)
REMARK    1  A    between atoms: C_8  and  C_9 
REMARK    2  A    between atoms: C_9  and  N_10 
REMARK    3  A    between atoms: C_9  and  C_14 
REMARK       I    between atoms: C_14  and  N_15 
REMARK    4  A    between atoms: N_15  and  C_16 
REMARK    5  A    between atoms: C_16  and  C_17 
REMARK    6  A    between atoms: C_17  and  C_18 
REMARK    7  A    between atoms: C_17  and  C_24 
ROOT
HETATM    1  C   UNL     1      41.047 -15.447   1.048  1.00  0.00     0.253 C 
HETATM    2  N   UNL     1      41.777 -16.560   0.691  1.00  0.00    -0.358 N 
HETATM    3  O   UNL     1      40.293 -15.416   2.019  1.00  0.00    -0.271 OA
HETATM    4  H   UNL     1      42.550 -16.452   0.042  1.00  0.00     0.162 HD
ENDROOT
BRANCH   2   5
HETATM    5  C   UNL     1      41.802 -17.799   1.483  1.00  0.00     0.141 C 
BRANCH   5   6
HETATM    6  C   UNL     1      43.039 -17.938   2.465  1.00  0.00     0.026 C 
HETATM    7  C   UNL     1      44.194 -17.124   1.798  1.00  0.00     0.027 C 
BRANCH   6   8
HETATM    8  C   UNL     1      42.602 -17.327   3.823  1.00  0.00    -0.044 A 
HETATM    9  C   UNL     1      43.339 -16.263   4.382  1.00  0.00     0.008 A 
HETATM   10  C   UNL     1      42.990 -15.702   5.614  1.00  0.00     0.001 A 
HETATM   11  C   UNL     1      41.894 -16.188   6.316  1.00  0.00     0.000 A 
HETATM   12  C   UNL     1      41.145 -17.233   5.785  1.00  0.00     0.001 A 
HETATM   13  C   UNL     1      41.495 -17.797   4.554  1.00  0.00     0.008 A 
ENDBRANCH   6   8
BRANCH   6  14
HETATM   14  C   UNL     1      43.533 -19.396   2.679  1.00  0.00    -0.044 A 
HETATM   15  C   UNL     1      43.271 -20.391   1.715  1.00  0.00     0.008 A 
HETATM   16  C   UNL     1      43.732 -21.704   1.868  1.00  0.00     0.001 A 
HETATM   17  C   UNL     1      44.489 -22.053   2.978  1.00  0.00     0.000 A 
HETATM   18  C   UNL     1      44.798 -21.085   3.926  1.00  0.00     0.001 A 
HETATM   19  C   UNL     1      44.334 -19.773   3.771  1.00  0.00     0.008 A 
ENDBRANCH   6  14
ENDBRANCH   5   6
ENDBRANCH   2   5
BRANCH   1  20
HETATM   20  C   UNL     1      41.004 -14.280   0.037  1.00  0.00     0.311 C 
BRANCH  20  21
HETATM   21  C   UNL     1      39.868 -14.338  -0.934  1.00  0.00     0.031 A 
HETATM   22  C   UNL     1      38.506 -14.109  -0.768  1.00  0.00     0.035 A 
HETATM   23  C   UNL     1      37.652 -13.740   0.387  1.00  0.00     0.070 C 
HETATM   24  N   UNL     1      37.940 -14.293  -2.006  1.00  0.00    -0.282 N 
HETATM   25  H   UNL     1      36.963 -14.215  -2.278  1.00  0.00     0.189 HD
HETATM   26  N   UNL     1      38.826 -14.621  -2.945  1.00  0.00    -0.179 NA
HETATM   27  C   UNL     1      40.002 -14.651  -2.322  1.00  0.00     0.061 A 
HETATM   28  C   UNL     1      41.233 -14.970  -3.095  1.00  0.00     0.073 C 
ENDBRANCH  20  21
BRANCH  20  29
HETATM   29  N   UNL     1      41.076 -12.989   0.786  1.00  0.00    -0.062 N 
HETATM   30  H   UNL     1      40.704 -12.220   0.222  1.00  0.00     0.275 HD
HETATM   31  H   UNL     1      40.482 -13.058   1.624  1.00  0.00     0.275 HD
HETATM   32  H   UNL     1      42.038 -12.778   1.069  1.00  0.00     0.275 HD
ENDBRANCH  20  29
ENDBRANCH   1  20
TORSDOF 7
ENDMDL
MODEL 2
REMARK VINA RESULT:      -8.8      1.245      2.101
REMARK  7 active torsions:
REMARK  status: ('A' for Active; 'I' for Inactive)
REMARK    1  A    between atoms: C_8  and  C_9 
REMARK    2  A    between atoms: C_9  and  N_10 
REMARK    3  A    between atoms: C_9  and  C_14 
REMARK       I    between atoms: C_14  and  N_15 
REMARK    4  A    between atoms: N_15  and  C_16 
REMARK    5  A    between atoms: C_16  and  C_17 
REMARK    6  A    between atoms: C_17  and  C_18 
REMARK    7  A    between atoms: C_17  and  C_24 
ROOT
HETATM    1  C   UNL     1      40.233 -15.651   1.276  1.00  0.00     0.253 C 
HETATM    2  N   UNL     1      41.324 -16.391   0.874  1.00  0.00    -0.358 N 
HETATM    3  O   UNL     1      39.384 -16.068   2.060  1.00  0.00    -0.271 OA
HETATM    4  H   UNL     1      42.102 -15.916   0.428  1.00  0.00     0.162 HD
ENDROOT
BRANCH   2   5
HETATM    5  C   UNL     1      41.638 -17.724   1.410  1.00  0.00     0.141 C 
BRANCH   5   6
HETATM    6  C   UNL     1      42.901 -17.778   2.366  1.00  0.00     0.026 C 
HETATM    7  C   UNL     1      44.005 -16.939   1.645  1.00  0.00     0.027 C 
BRANCH   6   8
HETATM    8  C   UNL     1      42.470 -17.142   3.714  1.00  0.00    -0.044 A 
HETATM    9  C   UNL     1      43.161 -16.017   4.211  1.00  0.00     0.008 A 
HETATM   10  C   UNL     1      42.816 -15.431   5.432  1.00  0.00     0.001 A 
HETATM   11  C   UNL     1      41.771 -15.951   6.185  1.00  0.00     0.000 A 
HETATM   12  C   UNL     1      41.068 -17.055   5.716  1.00  0.00     0.001 A 
HETATM   13  C   UNL     1      41.414 -17.645   4.496  1.00  0.00     0.008 A 
ENDBRANCH   6   8
BRANCH   6  14
HETATM   14  C   UNL     1      43.463 -19.207   2.614  1.00  0.00    -0.044 A 
HETATM   15  C   UNL     1      43.192 -20.252   1.707  1.00  0.00     0.008 A 
HETATM   16  C   UNL     1      43.711 -21.539   1.890  1.00  0.00     0.001 A 
HETATM   17  C   UNL     1      44.536 -21.811   2.973  1.00  0.00     0.000 A 
HETATM   18  C   UNL     1      44.854 -20.791   3.862  1.00  0.00     0.001 A 
HETATM   19  C   UNL     1      44.332 -19.506   3.678  1.00  0.00     0.008 A 
ENDBRANCH   6  14
ENDBRANCH   5   6
ENDBRANCH   2   5
BRANCH   1  20
HETATM   20  C   UNL     1      39.956 -14.336   0.511  1.00  0.00     0.311 C 
BRANCH  20  21
HETATM   21  C   UNL     1      40.976 -13.992  -0.526  1.00  0.00     0.031 A 
HETATM   22  C   UNL     1      41.252 -14.559  -1.766  1.00  0.00     0.035 A 
HETATM   23  C   UNL     1      40.684 -15.693  -2.535  1.00  0.00     0.070 C 
HETATM   24  N   UNL     1      42.287 -13.826  -2.293  1.00  0.00    -0.282 N 
HETATM   25  H   UNL     1      42.762 -13.943  -3.185  1.00  0.00     0.189 HD
HETATM   26  N   UNL     1      42.694 -12.841  -1.493  1.00  0.00    -0.179 NA
HETATM   27  C   UNL     1      41.913 -12.919  -0.418  1.00  0.00     0.061 A 
HETATM   28  C   UNL     1      42.087 -11.935   0.686  1.00  0.00     0.073 C 
ENDBRANCH  20  21
BRANCH  20  29
HETATM   29  N   UNL     1      38.560 -14.373  -0.021  1.00  0.00    -0.062 N 
HETATM   30  H   UNL     1      37.921 -14.789   0.663  1.00  0.00     0.275 HD
HETATM   31  H   UNL     1      38.239 -13.408  -0.179  1.00  0.00     0.275 HD
HETATM   32  H   UNL     1      38.512 -14.896  -0.901  1.00  0.00     0.275 HD
ENDBRANCH  20  29
ENDBRANCH   1  20
TORSDOF 7
ENDMDL
MODEL 3
REMARK VINA RESULT:      -8.7      1.556      2.492
REMARK  7 active torsions:
REMARK  status: ('A' for Active; 'I' for Inactive)
REMARK    1  A    between atoms: C_8  and  C_9 
REMARK    2  A    between atoms: C_9  and  N_10 
REMARK    3  A    between atoms: C_9  and  C_14 
REMARK       I    between atoms: C_14  and  N_15 
REMARK    4  A    between atoms: N_15  and  C_16 
REMARK    5  A    between atoms: C_16  and  C_17 
REMARK    6  A    between atoms: C_17  and  C_18 
REMARK    7  A    between atoms: C_17  and  C_24 
ROOT
HETATM    1  C   UNL     1      40.818 -15.717   1.041  1.00  0.00     0.253 C 
HETATM    2  N   UNL     1      41.745 -16.706   0.795  1.00  0.00    -0.358 N 
HETATM    3  O   UNL     1      39.918 -15.826   1.871  1.00  0.00    -0.271 OA
HETATM    4  H   UNL     1      42.592 -16.470   0.287  1.00  0.00     0.162 HD
ENDROOT
BRANCH   2   5
HETATM    5  C   UNL     1      41.814 -17.959   1.561  1.00  0.00     0.141 C 
BRANCH   5   6
HETATM    6  C   UNL     1      43.062 -18.082   2.531  1.00  0.00     0.026 C 
HETATM    7  C   UNL     1      44.201 -17.258   1.850  1.00  0.00     0.027 C 
BRANCH   6   8
HETATM    8  C   UNL     1      42.632 -17.470   3.891  1.00  0.00    -0.044 A 
HETATM    9  C   UNL     1      43.508 -16.604   4.578  1.00  0.00     0.008 A 
HETATM   10  C   UNL     1      43.166 -16.053   5.816  1.00  0.00     0.001 A 
HETATM   11  C   UNL     1      41.939 -16.349   6.397  1.00  0.00     0.000 A 
HETATM   12  C   UNL     1      41.053 -17.195   5.738  1.00  0.00     0.001 A 
HETATM   13  C   UNL     1      41.395 -17.751   4.501  1.00  0.00     0.008 A 
ENDBRANCH   6   8
BRANCH   6  14
HETATM   14  C   UNL     1      43.574 -19.534   2.745  1.00  0.00    -0.044 A 
HETATM   15  C   UNL     1      43.352 -20.524   1.767  1.00  0.00     0.008 A 
HETATM   16  C   UNL     1      43.830 -21.831   1.920  1.00  0.00     0.001 A 
HETATM   17  C   UNL     1      44.564 -22.178   3.046  1.00  0.00     0.000 A 
HETATM   18  C   UNL     1      44.834 -21.213   4.010  1.00  0.00     0.001 A 
HETATM   19  C   UNL     1      44.353 -19.908   3.854  1.00  0.00     0.008 A 
ENDBRANCH   6  14
ENDBRANCH   5   6
ENDBRANCH   2   5
BRANCH   1  20
HETATM   20  C   UNL     1      40.779 -14.529   0.054  1.00  0.00     0.311 C 
BRANCH  20  21
HETATM   21  C   UNL     1      41.060 -13.196   0.671  1.00  0.00     0.031 A 
HETATM   22  C   UNL     1      41.884 -12.831   1.731  1.00  0.00     0.035 A 
HETATM   23  C   UNL     1      42.778 -13.575   2.651  1.00  0.00     0.070 C 
HETATM   24  N   UNL     1      41.760 -11.468   1.852  1.00  0.00    -0.282 N 
HETATM   25  H   UNL     1      42.210 -10.844   2.517  1.00  0.00     0.189 HD
HETATM   26  N   UNL     1      40.926 -10.936   0.960  1.00  0.00    -0.179 NA
HETATM   27  C   UNL     1      40.492 -11.962   0.231  1.00  0.00     0.061 A 
HETATM   28  C   UNL     1      39.542 -11.715  -0.889  1.00  0.00     0.073 C 
ENDBRANCH  20  21
BRANCH  20  29
HETATM   29  N   UNL     1      41.664 -14.839  -1.110  1.00  0.00    -0.062 N 
HETATM   30  H   UNL     1      41.228 -15.535  -1.723  1.00  0.00     0.275 HD
HETATM   31  H   UNL     1      41.788 -13.985  -1.671  1.00  0.00     0.275 HD
HETATM   32  H   UNL     1      42.580 -15.177  -0.800  1.00  0.00     0.275 HD
ENDBRANCH  20  29
ENDBRANCH   1  20
TORSDOF 7
ENDMDL
MODEL 4
REMARK VINA RESULT:      -8.4      1.493      2.471
REMARK  7 active torsions:
REMARK  status: ('A' for Active; 'I' for Inactive)
REMARK    1  A    between atoms: C_8  and  C_9 
REMARK    2  A    between atoms: C_9  and  N_10 
REMARK    3  A    between atoms: C_9  and  C_14 
REMARK       I    between atoms: C_14  and  N_15 
REMARK    4  A    between atoms: N_15  and  C_16 
REMARK    5  A    between atoms: C_16  and  C_17 
REMARK    6  A    between atoms: C_17  and  C_18 
REMARK    7  A    between atoms: C_17  and  C_24 
ROOT
HETATM    1  C   UNL     1      40.707 -15.815   1.037  1.00  0.00     0.253 C 
HETATM    2  N   UNL     1      41.684 -16.747   0.763  1.00  0.00    -0.358 N 
HETATM    3  O   UNL     1      39.821 -15.989   1.871  1.00  0.00    -0.271 OA
HETATM    4  H   UNL     1      42.512 -16.455   0.254  1.00  0.00     0.162 HD
ENDROOT
BRANCH   2   5
HETATM    5  C   UNL     1      41.827 -18.010   1.502  1.00  0.00     0.141 C 
BRANCH   5   6
HETATM    6  C   UNL     1      43.085 -18.083   2.463  1.00  0.00     0.026 C 
HETATM    7  C   UNL     1      44.214 -17.287   1.732  1.00  0.00     0.027 C 
BRANCH   6   8
HETATM    8  C   UNL     1      42.668 -17.411   3.799  1.00  0.00    -0.044 A 
HETATM    9  C   UNL     1      41.468 -17.796   4.432  1.00  0.00     0.008 A 
HETATM   10  C   UNL     1      41.048 -17.198   5.623  1.00  0.00     0.001 A 
HETATM   11  C   UNL     1      41.817 -16.202   6.213  1.00  0.00     0.000 A 
HETATM   12  C   UNL     1      43.008 -15.808   5.614  1.00  0.00     0.001 A 
HETATM   13  C   UNL     1      43.429 -16.403   4.420  1.00  0.00     0.008 A 
ENDBRANCH   6   8
BRANCH   6  14
HETATM   14  C   UNL     1      43.606 -19.521   2.739  1.00  0.00    -0.044 A 
HETATM   15  C   UNL     1      43.416 -20.547   1.790  1.00  0.00     0.008 A 
HETATM   16  C   UNL     1      43.902 -21.843   1.999  1.00  0.00     0.001 A 
HETATM   17  C   UNL     1      44.614 -22.143   3.152  1.00  0.00     0.000 A 
HETATM   18  C   UNL     1      44.853 -21.144   4.088  1.00  0.00     0.001 A 
HETATM   19  C   UNL     1      44.363 -19.850   3.877  1.00  0.00     0.008 A 
ENDBRANCH   6  14
ENDBRANCH   5   6
ENDBRANCH   2   5
BRANCH   1  20
HETATM   20  C   UNL     1      40.595 -14.611   0.075  1.00  0.00     0.311 C 
BRANCH  20  21
HETATM   21  C   UNL     1      40.431 -13.287   0.750  1.00  0.00     0.031 A 
HETATM   22  C   UNL     1      39.475 -12.289   0.595  1.00  0.00     0.035 A 
HETATM   23  C   UNL     1      38.281 -12.125  -0.271  1.00  0.00     0.070 C 
HETATM   24  N   UNL     1      39.814 -11.300   1.486  1.00  0.00    -0.282 N 
HETATM   25  H   UNL     1      39.349 -10.412   1.659  1.00  0.00     0.189 HD
HETATM   26  N   UNL     1      40.905 -11.584   2.194  1.00  0.00    -0.179 NA
HETATM   27  C   UNL     1      41.296 -12.783   1.769  1.00  0.00     0.061 A 
HETATM   28  C   UNL     1      42.497 -13.420   2.377  1.00  0.00     0.073 C 
ENDBRANCH  20  21
BRANCH  20  29
HETATM   29  N   UNL     1      41.743 -14.649  -0.881  1.00  0.00    -0.062 N 
HETATM   30  H   UNL     1      41.470 -15.097  -1.761  1.00  0.00     0.275 HD
HETATM   31  H   UNL     1      42.017 -13.683  -1.112  1.00  0.00     0.275 HD
HETATM   32  H   UNL     1      42.546 -15.141  -0.477  1.00  0.00     0.275 HD
ENDBRANCH  20  29
ENDBRANCH   1  20
TORSDOF 7
ENDMDL
MODEL 5
REMARK VINA RESULT:      -8.4      1.655      4.156
REMARK  7 active torsions:
REMARK  status: ('A' for Active; 'I' for Inactive)
REMARK    1  A    between atoms: C_8  and  C_9 
REMARK    2  A    between atoms: C_9  and  N_10 
REMARK    3  A    between atoms: C_9  and  C_14 
REMARK       I    between atoms: C_14  and  N_15 
REMARK    4  A    between atoms: N_15  and  C_16 
REMARK    5  A    between atoms: C_16  and  C_17 
REMARK    6  A    between atoms: C_17  and  C_18 
REMARK    7  A    between atoms: C_17  and  C_24 
ROOT
HETATM    1  C   UNL     1      42.059 -14.669   0.841  1.00  0.00     0.253 C 
HETATM    2  N   UNL     1      42.386 -15.973   0.543  1.00  0.00    -0.358 N 
HETATM    3  O   UNL     1      42.370 -14.117   1.895  1.00  0.00    -0.271 OA
HETATM    4  H   UNL     1      42.319 -16.288  -0.420  1.00  0.00     0.162 HD
ENDROOT
BRANCH   2   5
HETATM    5  C   UNL     1      43.220 -16.817   1.412  1.00  0.00     0.141 C 
BRANCH   5   6
HETATM    6  C   UNL     1      42.415 -17.730   2.427  1.00  0.00     0.026 C 
HETATM    7  C   UNL     1      40.994 -17.898   1.800  1.00  0.00     0.027 C 
BRANCH   6   8
HETATM    8  C   UNL     1      43.177 -19.079   2.517  1.00  0.00    -0.044 A 
HETATM    9  C   UNL     1      44.204 -19.241   3.470  1.00  0.00     0.008 A 
HETATM   10  C   UNL     1      44.928 -20.433   3.566  1.00  0.00     0.001 A 
HETATM   11  C   UNL     1      44.642 -21.494   2.714  1.00  0.00     0.000 A 
HETATM   12  C   UNL     1      43.629 -21.363   1.770  1.00  0.00     0.001 A 
HETATM   13  C   UNL     1      42.906 -20.169   1.671  1.00  0.00     0.008 A 
ENDBRANCH   6   8
BRANCH   6  14
HETATM   14  C   UNL     1      42.249 -17.124   3.849  1.00  0.00    -0.044 A 
HETATM   15  C   UNL     1      41.223 -17.575   4.706  1.00  0.00     0.008 A 
HETATM   16  C   UNL     1      41.071 -17.069   6.002  1.00  0.00     0.001 A 
HETATM   17  C   UNL     1      41.955 -16.115   6.487  1.00  0.00     0.000 A 
HETATM   18  C   UNL     1      43.001 -15.680   5.681  1.00  0.00     0.001 A 
HETATM   19  C   UNL     1      43.149 -16.186   4.385  1.00  0.00     0.008 A 
ENDBRANCH   6  14
ENDBRANCH   5   6
ENDBRANCH   2   5
BRANCH   1  20
HETATM   20  C   UNL     1      41.053 -13.963  -0.097  1.00  0.00     0.311 C 
BRANCH  20  21
HETATM   21  C   UNL     1      41.563 -13.709  -1.479  1.00  0.00     0.031 A 
HETATM   22  C   UNL     1      41.432 -14.440  -2.656  1.00  0.00     0.035 A 
HETATM   23  C   UNL     1      40.771 -15.720  -3.010  1.00  0.00     0.070 C 
HETATM   24  N   UNL     1      42.095 -13.723  -3.621  1.00  0.00    -0.282 N 
HETATM   25  H   UNL     1      42.217 -13.942  -4.607  1.00  0.00     0.189 HD
HETATM   26  N   UNL     1      42.637 -12.597  -3.159  1.00  0.00    -0.179 NA
HETATM   27  C   UNL     1      42.327 -12.565  -1.865  1.00  0.00     0.061 A 
HETATM   28  C   UNL     1      42.769 -11.411  -1.035  1.00  0.00     0.073 C 
ENDBRANCH  20  21
BRANCH  20  29
HETATM   29  N   UNL     1      39.763 -14.715  -0.072  1.00  0.00    -0.062 N 
HETATM   30  H   UNL     1      39.717 -15.334   0.744  1.00  0.00     0.275 HD
HETATM   31  H   UNL     1      38.988 -14.043   0.021  1.00  0.00     0.275 HD
HETATM   32  H   UNL     1      39.635 -15.263  -0.929  1.00  0.00     0.275 HD
ENDBRANCH  20  29
ENDBRANCH   1  20
TORSDOF 7
ENDMDL
MODEL 6
REMARK VINA RESULT:      -8.3      1.630      2.957
REMARK  7 active torsions:
REMARK  status: ('A' for Active; 'I' for Inactive)
REMARK    1  A    between atoms: C_8  and  C_9 
REMARK    2  A    between atoms: C_9  and  N_10 
REMARK    3  A    between atoms: C_9  and  C_14 
REMARK       I    between atoms: C_14  and  N_15 
REMARK    4  A    between atoms: N_15  and  C_16 
REMARK    5  A    between atoms: C_16  and  C_17 
REMARK    6  A    between atoms: C_17  and  C_18 
REMARK    7  A    between atoms: C_17  and  C_24 
ROOT
HETATM    1  C   UNL     1      41.099 -15.810   0.080  1.00  0.00     0.253 C 
HETATM    2  N   UNL     1      41.258 -16.353   1.336  1.00  0.00    -0.358 N 
HETATM    3  O   UNL     1      41.397 -16.401  -0.956  1.00  0.00    -0.271 OA
HETATM    4  H   UNL     1      40.777 -15.925   2.120  1.00  0.00     0.162 HD
ENDROOT
BRANCH   2   5
HETATM    5  C   UNL     1      41.716 -17.731   1.569  1.00  0.00     0.141 C 
BRANCH   5   6
HETATM    6  C   UNL     1      43.004 -17.862   2.483  1.00  0.00     0.026 C 
HETATM    7  C   UNL     1      44.101 -16.997   1.783  1.00  0.00     0.027 C 
BRANCH   6   8
HETATM    8  C   UNL     1      42.621 -17.301   3.879  1.00  0.00    -0.044 A 
HETATM    9  C   UNL     1      41.489 -17.806   4.550  1.00  0.00     0.008 A 
HETATM   10  C   UNL     1      41.100 -17.311   5.798  1.00  0.00     0.001 A 
HETATM   11  C   UNL     1      41.834 -16.300   6.407  1.00  0.00     0.000 A 
HETATM   12  C   UNL     1      42.959 -15.788   5.770  1.00  0.00     0.001 A 
HETATM   13  C   UNL     1      43.348 -16.281   4.520  1.00  0.00     0.008 A 
ENDBRANCH   6   8
BRANCH   6  14
HETATM   14  C   UNL     1      43.548 -19.310   2.630  1.00  0.00    -0.044 A 
HETATM   15  C   UNL     1      44.328 -19.674   3.748  1.00  0.00     0.008 A 
HETATM   16  C   UNL     1      44.803 -20.979   3.920  1.00  0.00     0.001 A 
HETATM   17  C   UNL     1      44.493 -21.963   2.992  1.00  0.00     0.000 A 
HETATM   18  C   UNL     1      43.693 -21.646   1.900  1.00  0.00     0.001 A 
HETATM   19  C   UNL     1      43.220 -20.339   1.730  1.00  0.00     0.008 A 
ENDBRANCH   6  14
ENDBRANCH   5   6
ENDBRANCH   2   5
BRANCH   1  20
HETATM   20  C   UNL     1      40.757 -14.304   0.003  1.00  0.00     0.311 C 
BRANCH  20  21
HETATM   21  C   UNL     1      40.345 -13.692   1.304  1.00  0.00     0.031 A 
HETATM   22  C   UNL     1      41.097 -13.241   2.385  1.00  0.00     0.035 A 
HETATM   23  C   UNL     1      42.548 -13.191   2.687  1.00  0.00     0.070 C 
HETATM   24  N   UNL     1      40.190 -12.763   3.299  1.00  0.00    -0.282 N 
HETATM   25  H   UNL     1      40.364 -12.354   4.215  1.00  0.00     0.189 HD
HETATM   26  N   UNL     1      38.927 -12.872   2.893  1.00  0.00    -0.179 NA
HETATM   27  C   UNL     1      38.994 -13.429   1.686  1.00  0.00     0.061 A 
HETATM   28  C   UNL     1      37.740 -13.679   0.923  1.00  0.00     0.073 C 
ENDBRANCH  20  21
BRANCH  20  29
HETATM   29  N   UNL     1      41.888 -13.586  -0.657  1.00  0.00    -0.062 N 
HETATM   30  H   UNL     1      42.784 -14.019  -0.417  1.00  0.00     0.275 HD
HETATM   31  H   UNL     1      41.783 -13.667  -1.679  1.00  0.00     0.275 HD
HETATM   32  H   UNL     1      41.901 -12.595  -0.396  1.00  0.00     0.275 HD
ENDBRANCH  20  29
ENDBRANCH   1  20
TORSDOF 7
ENDMDL
MODEL 7
REMARK VINA RESULT:      -8.0      1.853      3.135
REMARK  7 active torsions:
REMARK  status: ('A' for Active; 'I' for Inactive)
REMARK    1  A    between atoms: C_8  and  C_9 
REMARK    2  A    between atoms: C_9  and  N_10 
REMARK    3  A    between atoms: C_9  and  C_14 
REMARK       I    between atoms: C_14  and  N_15 
REMARK    4  A    between atoms: N_15  and  C_16 
REMARK    5  A    between atoms: C_16  and  C_17 
REMARK    6  A    between atoms: C_17  and  C_18 
REMARK    7  A    between atoms: C_17  and  C_24 
ROOT
HETATM    1  C   UNL     1      40.283 -15.101   3.085  1.00  0.00     0.253 C 
HETATM    2  N   UNL     1      40.814 -16.260   2.560  1.00  0.00    -0.358 N 
HETATM    3  O   UNL     1      40.073 -14.937   4.285  1.00  0.00    -0.271 OA
HETATM    4  H   UNL     1      41.185 -16.245   1.616  1.00  0.00     0.162 HD
ENDROOT
BRANCH   2   5
HETATM    5  C   UNL     1      41.270 -17.387   3.386  1.00  0.00     0.141 C 
BRANCH   5   6
HETATM    6  C   UNL     1      42.840 -17.475   3.589  1.00  0.00     0.026 C 
HETATM    7  C   UNL     1      43.445 -16.418   2.610  1.00  0.00     0.027 C 
BRANCH   6   8
HETATM    8  C   UNL     1      43.120 -17.124   5.074  1.00  0.00    -0.044 A 
HETATM    9  C   UNL     1      42.540 -17.900   6.099  1.00  0.00     0.008 A 
HETATM   10  C   UNL     1      42.751 -17.601   7.448  1.00  0.00     0.001 A 
HETATM   11  C   UNL     1      43.549 -16.521   7.807  1.00  0.00     0.000 A 
HETATM   12  C   UNL     1      44.138 -15.742   6.816  1.00  0.00     0.001 A 
HETATM   13  C   UNL     1      43.925 -16.039   5.466  1.00  0.00     0.008 A 
ENDBRANCH   6   8
BRANCH   6  14
HETATM   14  C   UNL     1      43.458 -18.860   3.250  1.00  0.00    -0.044 A 
HETATM   15  C   UNL     1      44.388 -19.463   4.123  1.00  0.00     0.008 A 
HETATM   16  C   UNL     1      44.936 -20.724   3.858  1.00  0.00     0.001 A 
HETATM   17  C   UNL     1      44.551 -21.428   2.725  1.00  0.00     0.000 A 
HETATM   18  C   UNL     1      43.606 -20.878   1.867  1.00  0.00     0.001 A 
HETATM   19  C   UNL     1      43.062 -19.616   2.133  1.00  0.00     0.008 A 
ENDBRANCH   6  14
ENDBRANCH   5   6
ENDBRANCH   2   5
BRANCH   1  20
HETATM   20  C   UNL     1      39.712 -14.072   2.083  1.00  0.00     0.311 C 
BRANCH  20  21
HETATM   21  C   UNL     1      40.742 -13.362   1.264  1.00  0.00     0.031 A 
HETATM   22  C   UNL     1      41.377 -13.717   0.078  1.00  0.00     0.035 A 
HETATM   23  C   UNL     1      41.308 -14.895  -0.821  1.00  0.00     0.070 C 
HETATM   24  N   UNL     1      42.221 -12.676  -0.223  1.00  0.00    -0.282 N 
HETATM   25  H   UNL     1      42.852 -12.576  -1.016  1.00  0.00     0.189 HD
HETATM   26  N   UNL     1      42.178 -11.690   0.670  1.00  0.00    -0.179 NA
HETATM   27  C   UNL     1      41.287 -12.080   1.579  1.00  0.00     0.061 A 
HETATM   28  C   UNL     1      40.975 -11.188   2.729  1.00  0.00     0.073 C 
ENDBRANCH  20  21
BRANCH  20  29
HETATM   29  N   UNL     1      38.657 -14.736   1.259  1.00  0.00    -0.062 N 
HETATM   30  H   UNL     1      39.067 -15.183   0.433  1.00  0.00     0.275 HD
HETATM   31  H   UNL     1      38.222 -15.485   1.816  1.00  0.00     0.275 HD
HETATM   32  H   UNL     1      37.937 -14.067   0.969  1.00  0.00     0.275 HD
ENDBRANCH  20  29
ENDBRANCH   1  20
TORSDOF 7
ENDMDL
MODEL 8
REMARK VINA RESULT:      -7.9      2.762      6.350
REMARK  7 active torsions:
REMARK  status: ('A' for Active; 'I' for Inactive)
REMARK    1  A    between atoms: C_8  and  C_9 
REMARK    2  A    between atoms: C_9  and  N_10 
REMARK    3  A    between atoms: C_9  and  C_14 
REMARK       I    between atoms: C_14  and  N_15 
REMARK    4  A    between atoms: N_15  and  C_16 
REMARK    5  A    between atoms: C_16  and  C_17 
REMARK    6  A    between atoms: C_17  and  C_18 
REMARK    7  A    between atoms: C_17  and  C_24 
ROOT
HETATM    1  C   UNL     1      43.075 -13.638   3.785  1.00  0.00     0.253 C 
HETATM    2  N   UNL     1      41.968 -13.689   2.966  1.00  0.00    -0.358 N 
HETATM    3  O   UNL     1      44.230 -13.692   3.367  1.00  0.00    -0.271 OA
HETATM    4  H   UNL     1      41.069 -13.398   3.336  1.00  0.00     0.162 HD
ENDROOT
BRANCH   2   5
HETATM    5  C   UNL     1      42.050 -13.722   1.498  1.00  0.00     0.141 C 
BRANCH   5   6
HETATM    6  C   UNL     1      41.395 -14.998   0.821  1.00  0.00     0.026 C 
HETATM    7  C   UNL     1      39.939 -15.066   1.384  1.00  0.00     0.027 C 
BRANCH   6   8
HETATM    8  C   UNL     1      41.419 -14.753  -0.711  1.00  0.00    -0.044 A 
HETATM    9  C   UNL     1      41.892 -13.525  -1.217  1.00  0.00     0.008 A 
HETATM   10  C   UNL     1      41.907 -13.259  -2.589  1.00  0.00     0.001 A 
HETATM   11  C   UNL     1      41.453 -14.215  -3.490  1.00  0.00     0.000 A 
HETATM   12  C   UNL     1      40.987 -15.437  -3.019  1.00  0.00     0.001 A 
HETATM   13  C   UNL     1      40.968 -15.703  -1.646  1.00  0.00     0.008 A 
ENDBRANCH   6   8
BRANCH   6  14
HETATM   14  C   UNL     1      42.106 -16.341   1.150  1.00  0.00    -0.044 A 
HETATM   15  C   UNL     1      43.513 -16.412   1.209  1.00  0.00     0.008 A 
HETATM   16  C   UNL     1      44.177 -17.601   1.534  1.00  0.00     0.001 A 
HETATM   17  C   UNL     1      43.451 -18.746   1.833  1.00  0.00     0.000 A 
HETATM   18  C   UNL     1      42.062 -18.697   1.823  1.00  0.00     0.001 A 
HETATM   19  C   UNL     1      41.401 -17.507   1.495  1.00  0.00     0.008 A 
ENDBRANCH   6  14
ENDBRANCH   5   6
ENDBRANCH   2   5
BRANCH   1  20
HETATM   20  C   UNL     1      42.829 -13.759   5.306  1.00  0.00     0.311 C 
BRANCH  20  21
HETATM   21  C   UNL     1      41.775 -14.747   5.690  1.00  0.00     0.031 A 
HETATM   22  C   UNL     1      40.447 -14.574   6.068  1.00  0.00     0.035 A 
HETATM   23  C   UNL     1      39.569 -13.392   6.248  1.00  0.00     0.070 C 
HETATM   24  N   UNL     1      39.952 -15.834   6.294  1.00  0.00    -0.282 N 
HETATM   25  H   UNL     1      39.017 -16.109   6.588  1.00  0.00     0.189 HD
HETATM   26  N   UNL     1      40.852 -16.796   6.093  1.00  0.00    -0.179 NA
HETATM   27  C   UNL     1      41.963 -16.163   5.724  1.00  0.00     0.061 A 
HETATM   28  C   UNL     1      43.181 -16.954   5.396  1.00  0.00     0.073 C 
ENDBRANCH  20  21
BRANCH  20  29
HETATM   29  N   UNL     1      44.137 -13.995   5.988  1.00  0.00    -0.062 N 
HETATM   30  H   UNL     1      44.886 -14.128   5.303  1.00  0.00     0.275 HD
HETATM   31  H   UNL     1      44.382 -13.160   6.538  1.00  0.00     0.275 HD
HETATM   32  H   UNL     1      44.090 -14.808   6.610  1.00  0.00     0.275 HD
ENDBRANCH  20  29
ENDBRANCH   1  20
TORSDOF 7
ENDMDL
MODEL 9
REMARK VINA RESULT:      -7.9      1.117      2.104
REMARK  7 active torsions:
REMARK  status: ('A' for Active; 'I' for Inactive)
REMARK    1  A    between atoms: C_8  and  C_9 
REMARK    2  A    between atoms: C_9  and  N_10 
REMARK    3  A    between atoms: C_9  and  C_14 
REMARK       I    between atoms: C_14  and  N_15 
REMARK    4  A    between atoms: N_15  and  C_16 
REMARK    5  A    between atoms: C_16  and  C_17 
REMARK    6  A    between atoms: C_17  and  C_18 
REMARK    7  A    between atoms: C_17  and  C_24 
ROOT
HETATM    1  C   UNL     1      41.248 -15.964   0.858  1.00  0.00     0.253 C 
HETATM    2  N   UNL     1      41.446 -16.136   2.210  1.00  0.00    -0.358 N 
HETATM    3  O   UNL     1      41.266 -16.889   0.049  1.00  0.00    -0.271 OA
HETATM    4  H   UNL     1      41.181 -15.388   2.844  1.00  0.00     0.162 HD
ENDROOT
BRANCH   2   5
HETATM    5  C   UNL     1      41.609 -17.453   2.843  1.00  0.00     0.141 C 
BRANCH   5   6
HETATM    6  C   UNL     1      43.079 -17.779   3.339  1.00  0.00     0.026 C 
HETATM    7  C   UNL     1      44.016 -16.851   2.501  1.00  0.00     0.027 C 
BRANCH   6   8
HETATM    8  C   UNL     1      43.125 -17.443   4.853  1.00  0.00    -0.044 A 
HETATM    9  C   UNL     1      41.973 -17.620   5.646  1.00  0.00     0.008 A 
HETATM   10  C   UNL     1      41.969 -17.307   7.008  1.00  0.00     0.001 A 
HETATM   11  C   UNL     1      43.118 -16.812   7.613  1.00  0.00     0.000 A 
HETATM   12  C   UNL     1      44.271 -16.633   6.856  1.00  0.00     0.001 A 
HETATM   13  C   UNL     1      44.275 -16.943   5.492  1.00  0.00     0.008 A 
ENDBRANCH   6   8
BRANCH   6  14
HETATM   14  C   UNL     1      43.526 -19.251   3.113  1.00  0.00    -0.044 A 
HETATM   15  C   UNL     1      43.130 -19.951   1.955  1.00  0.00     0.008 A 
HETATM   16  C   UNL     1      43.544 -21.266   1.712  1.00  0.00     0.001 A 
HETATM   17  C   UNL     1      44.386 -21.909   2.609  1.00  0.00     0.000 A 
HETATM   18  C   UNL     1      44.827 -21.231   3.739  1.00  0.00     0.001 A 
HETATM   19  C   UNL     1      44.409 -19.917   3.981  1.00  0.00     0.008 A 
ENDBRANCH   6  14
ENDBRANCH   5   6
ENDBRANCH   2   5
BRANCH   1  20
HETATM   20  C   UNL     1      41.246 -14.513   0.327  1.00  0.00     0.311 C 
BRANCH  20  21
HETATM   21  C   UNL     1      40.160 -14.211  -0.656  1.00  0.00     0.031 A 
HETATM   22  C   UNL     1      40.196 -14.019  -2.034  1.00  0.00     0.035 A 
HETATM   23  C   UNL     1      41.275 -14.023  -3.051  1.00  0.00     0.070 C 
HETATM   24  N   UNL     1      38.898 -13.785  -2.415  1.00  0.00    -0.282 N 
HETATM   25  H   UNL     1      38.530 -13.599  -3.346  1.00  0.00     0.189 HD
HETATM   26  N   UNL     1      38.039 -13.811  -1.398  1.00  0.00    -0.179 NA
HETATM   27  C   UNL     1      38.778 -14.070  -0.322  1.00  0.00     0.061 A 
HETATM   28  C   UNL     1      38.120 -14.190   1.008  1.00  0.00     0.073 C 
ENDBRANCH  20  21
BRANCH  20  29
HETATM   29  N   UNL     1      41.268 -13.574   1.489  1.00  0.00    -0.062 N 
HETATM   30  H   UNL     1      40.818 -13.996   2.306  1.00  0.00     0.275 HD
HETATM   31  H   UNL     1      42.247 -13.392   1.751  1.00  0.00     0.275 HD
HETATM   32  H   UNL     1      40.808 -12.688   1.259  1.00  0.00     0.275 HD
ENDBRANCH  20  29
ENDBRANCH   1  20
TORSDOF 7
ENDMDL
MODEL 10
REMARK VINA RESULT:      -7.5      1.283      3.947
REMARK  7 active torsions:
REMARK  status: ('A' for Active; 'I' for Inactive)
REMARK    1  A    between atoms: C_8  and  C_9 
REMARK    2  A    between atoms: C_9  and  N_10 
REMARK    3  A    between atoms: C_9  and  C_14 
REMARK       I    between atoms: C_14  and  N_15 
REMARK    4  A    between atoms: N_15  and  C_16 
REMARK    5  A    between atoms: C_16  and  C_17 
REMARK    6  A    between atoms: C_17  and  C_18 
REMARK    7  A    between atoms: C_17  and  C_24 
ROOT
HETATM    1  C   UNL     1      40.985 -15.785   0.650  1.00  0.00     0.253 C 
HETATM    2  N   UNL     1      40.563 -16.024   1.939  1.00  0.00    -0.358 N 
HETATM    3  O   UNL     1      41.571 -16.621  -0.036  1.00  0.00    -0.271 OA
HETATM    4  H   UNL     1      39.883 -15.397   2.357  1.00  0.00     0.162 HD
ENDROOT
BRANCH   2   5
HETATM    5  C   UNL     1      40.686 -17.331   2.601  1.00  0.00     0.141 C 
BRANCH   5   6
HETATM    6  C   UNL     1      41.677 -17.362   3.839  1.00  0.00     0.026 C 
HETATM    7  C   UNL     1      40.798 -17.768   5.065  1.00  0.00     0.027 C 
BRANCH   6   8
HETATM    8  C   UNL     1      42.759 -18.427   3.519  1.00  0.00    -0.044 A 
HETATM    9  C   UNL     1      42.835 -18.983   2.225  1.00  0.00     0.008 A 
HETATM   10  C   UNL     1      43.781 -19.961   1.905  1.00  0.00     0.001 A 
HETATM   11  C   UNL     1      44.678 -20.405   2.869  1.00  0.00     0.000 A 
HETATM   12  C   UNL     1      44.630 -19.869   4.152  1.00  0.00     0.001 A 
HETATM   13  C   UNL     1      43.682 -18.893   4.474  1.00  0.00     0.008 A 
ENDBRANCH   6   8
BRANCH   6  14
HETATM   14  C   UNL     1      42.356 -16.001   4.157  1.00  0.00    -0.044 A 
HETATM   15  C   UNL     1      43.318 -15.457   3.281  1.00  0.00     0.008 A 
HETATM   16  C   UNL     1      43.922 -14.218   3.527  1.00  0.00     0.001 A 
HETATM   17  C   UNL     1      43.563 -13.478   4.645  1.00  0.00     0.000 A 
HETATM   18  C   UNL     1      42.589 -13.968   5.506  1.00  0.00     0.001 A 
HETATM   19  C   UNL     1      41.989 -15.208   5.258  1.00  0.00     0.008 A 
ENDBRANCH   6  14
ENDBRANCH   5   6
ENDBRANCH   2   5
BRANCH   1  20
HETATM   20  C   UNL     1      40.924 -14.324   0.150  1.00  0.00     0.311 C 
BRANCH  20  21
HETATM   21  C   UNL     1      39.802 -14.036  -0.797  1.00  0.00     0.031 A 
HETATM   22  C   UNL     1      38.435 -13.895  -0.584  1.00  0.00     0.035 A 
HETATM   23  C   UNL     1      37.560 -13.976   0.611  1.00  0.00     0.070 C 
HETATM   24  N   UNL     1      37.888 -13.623  -1.814  1.00  0.00    -0.282 N 
HETATM   25  H   UNL     1      36.914 -13.459  -2.057  1.00  0.00     0.189 HD
HETATM   26  N   UNL     1      38.792 -13.580  -2.792  1.00  0.00    -0.179 NA
HETATM   27  C   UNL     1      39.959 -13.824  -2.201  1.00  0.00     0.061 A 
HETATM   28  C   UNL     1      41.206 -13.831  -3.015  1.00  0.00     0.073 C 
ENDBRANCH  20  21
BRANCH  20  29
HETATM   29  N   UNL     1      40.951 -13.409   1.330  1.00  0.00    -0.062 N 
HETATM   30  H   UNL     1      40.138 -12.785   1.326  1.00  0.00     0.275 HD
HETATM   31  H   UNL     1      40.889 -13.972   2.190  1.00  0.00     0.275 HD
HETATM   32  H   UNL     1      41.813 -12.854   1.350  1.00  0.00     0.275 HD
ENDBRANCH  20  29
ENDBRANCH   1  20
TORSDOF 7
ENDMDL
