MODEL 1
REMARK VINA RESULT:      -8.8      0.000      0.000
REMARK  3 active torsions:
REMARK  status: ('A' for Active; 'I' for Inactive)
REMARK    1  A    between atoms: C_2  and  C_3 
REMARK       I    between atoms: C_3  and  N_4 
REMARK    2  A    between atoms: N_4  and  N_5 
REMARK    3  A    between atoms: C_21  and  C_22 
ROOT
HETATM    1  C   UNL     1      44.705 -12.944   7.962  1.00  0.00     0.288 C 
HETATM    2  N   UNL     1      43.526 -13.387   7.397  1.00  0.00    -0.251 N 
HETATM    3  O   UNL     1      45.812 -13.342   7.607  1.00  0.00    -0.264 OA
HETATM    4  H   UNL     1      42.650 -13.218   7.875  1.00  0.00     0.191 HD
ENDROOT
BRANCH   2   5
HETATM    5  N   UNL     1      43.570 -14.568   6.670  1.00  0.00    -0.167 N 
HETATM    6  C   UNL     1      43.790 -14.588   5.321  1.00  0.00     0.345 C 
HETATM    7  O   UNL     1      43.942 -13.629   4.582  1.00  0.00    -0.245 OA
HETATM    8  N   UNL     1      43.883 -15.905   4.928  1.00  0.00    -0.323 N 
HETATM    9  C   UNL     1      43.718 -16.826   6.043  1.00  0.00     0.117 C 
HETATM   10  H   UNL     1      44.036 -16.155   3.960  1.00  0.00     0.165 HD
HETATM   11  C   UNL     1      44.935 -17.741   6.206  1.00  0.00     0.041 C 
HETATM   12  C   UNL     1      42.412 -17.615   5.912  1.00  0.00     0.041 C 
HETATM   13  C   UNL     1      43.628 -15.826   7.221  1.00  0.00     0.275 C 
HETATM   14  C   UNL     1      45.004 -18.805   5.111  1.00  0.00     0.003 C 
HETATM   15  C   UNL     1      43.702 -19.594   5.005  1.00  0.00     0.000 C 
HETATM   16  C   UNL     1      42.495 -18.678   4.816  1.00  0.00     0.003 C 
HETATM   17  O   UNL     1      43.629 -16.126   8.407  1.00  0.00    -0.268 OA
ENDBRANCH   2   5
BRANCH   1  18
HETATM   18  C   UNL     1      44.544 -11.998   9.037  1.00  0.00     0.121 A 
HETATM   19  C   UNL     1      43.581 -11.055   9.344  1.00  0.00     0.066 A 
HETATM   20  C   UNL     1      43.952 -10.518  10.602  1.00  0.00     0.061 A 
HETATM   21  N   UNL     1      45.111 -11.045  11.021  1.00  0.00    -0.178 NA
HETATM   22  N   UNL     1      45.440 -11.929  10.069  1.00  0.00    -0.272 N 
HETATM   23  H   UNL     1      46.287 -12.478  10.178  1.00  0.00     0.189 HD
BRANCH  20  24
HETATM   24  C   UNL     1      43.246  -9.513  11.479  1.00  0.00     0.039 C 
HETATM   25  C   UNL     1      41.747  -9.396  11.159  1.00  0.00     0.011 C 
HETATM   26  C   UNL     1      40.896 -10.472  11.825  1.00  0.00     0.001 C 
HETATM   27  C   UNL     1      41.124 -10.506  13.332  1.00  0.00     0.000 C 
HETATM   28  C   UNL     1      42.593 -10.722  13.670  1.00  0.00     0.001 C 
HETATM   29  C   UNL     1      43.505  -9.704  12.985  1.00  0.00     0.011 C 
ENDBRANCH  20  24
ENDBRANCH   1  18
TORSDOF 3
ENDMDL
MODEL 2
REMARK VINA RESULT:      -8.2      7.646     10.088
REMARK  3 active torsions:
REMARK  status: ('A' for Active; 'I' for Inactive)
REMARK    1  A    between atoms: C_2  and  C_3 
REMARK       I    between atoms: C_3  and  N_4 
REMARK    2  A    between atoms: N_4  and  N_5 
REMARK    3  A    between atoms: C_21  and  C_22 
ROOT
HETATM    1  C   UNL     1      41.862 -17.304   1.372  1.00  0.00     0.288 C 
HETATM    2  N   UNL     1      42.464 -16.372   0.550  1.00  0.00    -0.251 N 
HETATM    3  O   UNL     1      40.644 -17.399   1.500  1.00  0.00    -0.264 OA
HETATM    4  H   UNL     1      43.451 -16.174   0.661  1.00  0.00     0.191 HD
ENDROOT
BRANCH   2   5
HETATM    5  N   UNL     1      41.699 -15.287   0.145  1.00  0.00    -0.167 N 
HETATM    6  C   UNL     1      41.703 -14.099   0.821  1.00  0.00     0.345 C 
HETATM    7  O   UNL     1      42.316 -13.829   1.840  1.00  0.00    -0.245 OA
HETATM    8  N   UNL     1      40.933 -13.206   0.106  1.00  0.00    -0.323 N 
HETATM    9  C   UNL     1      40.377 -13.800  -1.100  1.00  0.00     0.117 C 
HETATM   10  H   UNL     1      40.789 -12.259   0.432  1.00  0.00     0.165 HD
HETATM   11  C   UNL     1      40.801 -13.033  -2.356  1.00  0.00     0.041 C 
HETATM   12  C   UNL     1      38.856 -13.937  -0.991  1.00  0.00     0.041 C 
HETATM   13  C   UNL     1      41.049 -15.194  -1.062  1.00  0.00     0.275 C 
HETATM   14  C   UNL     1      40.084 -11.688  -2.477  1.00  0.00     0.003 C 
HETATM   15  C   UNL     1      38.569 -11.845  -2.384  1.00  0.00     0.000 C 
HETATM   16  C   UNL     1      38.150 -12.587  -1.117  1.00  0.00     0.003 C 
HETATM   17  O   UNL     1      41.007 -16.025  -1.958  1.00  0.00    -0.268 OA
ENDBRANCH   2   5
BRANCH   1  18
HETATM   18  C   UNL     1      42.774 -18.143   2.107  1.00  0.00     0.121 A 
HETATM   19  C   UNL     1      43.577 -17.941   3.214  1.00  0.00     0.066 A 
HETATM   20  C   UNL     1      44.155 -19.202   3.507  1.00  0.00     0.061 A 
HETATM   21  N   UNL     1      43.789 -20.116   2.598  1.00  0.00    -0.178 NA
HETATM   22  N   UNL     1      42.960 -19.457   1.776  1.00  0.00    -0.272 N 
HETATM   23  H   UNL     1      42.531 -19.958   1.004  1.00  0.00     0.189 HD
BRANCH  20  24
HETATM   24  C   UNL     1      45.052 -19.621   4.647  1.00  0.00     0.039 C 
HETATM   25  C   UNL     1      44.819 -18.793   5.920  1.00  0.00     0.011 C 
HETATM   26  C   UNL     1      43.642 -19.283   6.758  1.00  0.00     0.001 C 
HETATM   27  C   UNL     1      43.778 -20.763   7.095  1.00  0.00     0.000 C 
HETATM   28  C   UNL     1      43.909 -21.613   5.838  1.00  0.00     0.001 C 
HETATM   29  C   UNL     1      45.041 -21.135   4.928  1.00  0.00     0.011 C 
ENDBRANCH  20  24
ENDBRANCH   1  18
TORSDOF 3
ENDMDL
MODEL 3
REMARK VINA RESULT:      -8.2      5.873     10.096
REMARK  3 active torsions:
REMARK  status: ('A' for Active; 'I' for Inactive)
REMARK    1  A    between atoms: C_2  and  C_3 
REMARK       I    between atoms: C_3  and  N_4 
REMARK    2  A    between atoms: N_4  and  N_5 
REMARK    3  A    between atoms: C_21  and  C_22 
ROOT
HETATM    1  C   UNL     1      41.294 -16.029   1.831  1.00  0.00     0.288 C 
HETATM    2  N   UNL     1      41.001 -15.615   3.115  1.00  0.00    -0.251 N 
HETATM    3  O   UNL     1      42.078 -16.943   1.582  1.00  0.00    -0.264 OA
HETATM    4  H   UNL     1      40.549 -14.721   3.259  1.00  0.00     0.191 HD
ENDROOT
BRANCH   2   5
HETATM    5  N   UNL     1      41.879 -15.988   4.123  1.00  0.00    -0.167 N 
HETATM    6  C   UNL     1      42.832 -15.139   4.611  1.00  0.00     0.345 C 
HETATM    7  O   UNL     1      43.069 -14.001   4.241  1.00  0.00    -0.245 OA
HETATM    8  N   UNL     1      43.457 -15.768   5.666  1.00  0.00    -0.323 N 
HETATM    9  C   UNL     1      42.919 -17.098   5.911  1.00  0.00     0.117 C 
HETATM   10  H   UNL     1      44.209 -15.321   6.174  1.00  0.00     0.165 HD
HETATM   11  C   UNL     1      42.380 -17.236   7.338  1.00  0.00     0.041 C 
HETATM   12  C   UNL     1      43.953 -18.177   5.575  1.00  0.00     0.041 C 
HETATM   13  C   UNL     1      41.759 -17.124   4.887  1.00  0.00     0.275 C 
HETATM   14  C   UNL     1      43.503 -17.310   8.371  1.00  0.00     0.003 C 
HETATM   15  C   UNL     1      44.514 -18.401   8.032  1.00  0.00     0.000 C 
HETATM   16  C   UNL     1      45.069 -18.243   6.618  1.00  0.00     0.003 C 
HETATM   17  O   UNL     1      40.903 -17.994   4.808  1.00  0.00    -0.268 OA
ENDBRANCH   2   5
BRANCH   1  18
HETATM   18  C   UNL     1      40.638 -15.282   0.788  1.00  0.00     0.121 A 
HETATM   19  C   UNL     1      40.960 -14.988  -0.524  1.00  0.00     0.066 A 
HETATM   20  C   UNL     1      39.840 -14.298  -1.051  1.00  0.00     0.061 A 
HETATM   21  N   UNL     1      38.907 -14.113  -0.107  1.00  0.00    -0.178 NA
HETATM   22  N   UNL     1      39.408 -14.715   0.981  1.00  0.00    -0.272 N 
HETATM   23  H   UNL     1      38.860 -14.725   1.836  1.00  0.00     0.189 HD
BRANCH  20  24
HETATM   24  C   UNL     1      39.574 -13.797  -2.450  1.00  0.00     0.039 C 
HETATM   25  C   UNL     1      40.319 -14.608  -3.522  1.00  0.00     0.011 C 
HETATM   26  C   UNL     1      39.602 -15.894  -3.920  1.00  0.00     0.001 C 
HETATM   27  C   UNL     1      38.167 -15.618  -4.354  1.00  0.00     0.000 C 
HETATM   28  C   UNL     1      37.381 -14.902  -3.263  1.00  0.00     0.001 C 
HETATM   29  C   UNL     1      38.080 -13.630  -2.782  1.00  0.00     0.011 C 
ENDBRANCH  20  24
ENDBRANCH   1  18
TORSDOF 3
ENDMDL
MODEL 4
REMARK VINA RESULT:      -8.1      2.014      2.742
REMARK  3 active torsions:
REMARK  status: ('A' for Active; 'I' for Inactive)
REMARK    1  A    between atoms: C_2  and  C_3 
REMARK       I    between atoms: C_3  and  N_4 
REMARK    2  A    between atoms: N_4  and  N_5 
REMARK    3  A    between atoms: C_21  and  C_22 
ROOT
HETATM    1  C   UNL     1      44.209 -13.663   6.869  1.00  0.00     0.288 C 
HETATM    2  N   UNL     1      43.180 -13.499   5.963  1.00  0.00    -0.251 N 
HETATM    3  O   UNL     1      45.036 -14.569   6.790  1.00  0.00    -0.264 OA
HETATM    4  H   UNL     1      42.399 -12.900   6.200  1.00  0.00     0.191 HD
ENDROOT
BRANCH   2   5
HETATM    5  N   UNL     1      42.855 -14.584   5.162  1.00  0.00    -0.167 N 
HETATM    6  C   UNL     1      41.896 -15.492   5.517  1.00  0.00     0.345 C 
HETATM    7  O   UNL     1      41.238 -15.510   6.543  1.00  0.00    -0.245 OA
HETATM    8  N   UNL     1      41.740 -16.372   4.467  1.00  0.00    -0.323 N 
HETATM    9  C   UNL     1      42.623 -16.062   3.353  1.00  0.00     0.117 C 
HETATM   10  H   UNL     1      41.083 -17.139   4.518  1.00  0.00     0.165 HD
HETATM   11  C   UNL     1      41.838 -15.810   2.062  1.00  0.00     0.041 C 
HETATM   12  C   UNL     1      43.688 -17.149   3.181  1.00  0.00     0.041 C 
HETATM   13  C   UNL     1      43.268 -14.750   3.862  1.00  0.00     0.275 C 
HETATM   14  C   UNL     1      41.265 -17.101   1.477  1.00  0.00     0.003 C 
HETATM   15  C   UNL     1      42.342 -18.166   1.295  1.00  0.00     0.000 C 
HETATM   16  C   UNL     1      43.104 -18.433   2.592  1.00  0.00     0.003 C 
HETATM   17  O   UNL     1      43.989 -14.013   3.203  1.00  0.00    -0.268 OA
ENDBRANCH   2   5
BRANCH   1  18
HETATM   18  C   UNL     1      44.224 -12.708   7.948  1.00  0.00     0.121 A 
HETATM   19  C   UNL     1      43.357 -11.712   8.355  1.00  0.00     0.066 A 
HETATM   20  C   UNL     1      43.898 -11.196   9.559  1.00  0.00     0.061 A 
HETATM   21  N   UNL     1      45.065 -11.787   9.847  1.00  0.00    -0.178 NA
HETATM   22  N   UNL     1      45.234 -12.690   8.871  1.00  0.00    -0.272 N 
HETATM   23  H   UNL     1      46.056 -13.286   8.887  1.00  0.00     0.189 HD
BRANCH  20  24
HETATM   24  C   UNL     1      43.353 -10.152  10.504  1.00  0.00     0.039 C 
HETATM   25  C   UNL     1      41.830  -9.986  10.390  1.00  0.00     0.011 C 
HETATM   26  C   UNL     1      41.044 -11.021  11.189  1.00  0.00     0.001 C 
HETATM   27  C   UNL     1      41.476 -11.038  12.651  1.00  0.00     0.000 C 
HETATM   28  C   UNL     1      42.970 -11.301  12.789  1.00  0.00     0.001 C 
HETATM   29  C   UNL     1      43.811 -10.328  11.963  1.00  0.00     0.011 C 
ENDBRANCH  20  24
ENDBRANCH   1  18
TORSDOF 3
ENDMDL
MODEL 5
REMARK VINA RESULT:      -8.1      7.643      9.871
REMARK  3 active torsions:
REMARK  status: ('A' for Active; 'I' for Inactive)
REMARK    1  A    between atoms: C_2  and  C_3 
REMARK       I    between atoms: C_3  and  N_4 
REMARK    2  A    between atoms: N_4  and  N_5 
REMARK    3  A    between atoms: C_21  and  C_22 
ROOT
HETATM    1  C   UNL     1      41.846 -17.628   1.398  1.00  0.00     0.288 C 
HETATM    2  N   UNL     1      42.260 -16.355   1.061  1.00  0.00    -0.251 N 
HETATM    3  O   UNL     1      40.732 -18.068   1.121  1.00  0.00    -0.264 OA
HETATM    4  H   UNL     1      43.076 -15.961   1.512  1.00  0.00     0.191 HD
ENDROOT
BRANCH   2   5
HETATM    5  N   UNL     1      41.280 -15.431   0.727  1.00  0.00    -0.167 N 
HETATM    6  C   UNL     1      40.835 -15.271  -0.556  1.00  0.00     0.345 C 
HETATM    7  O   UNL     1      41.224 -15.855  -1.553  1.00  0.00    -0.245 OA
HETATM    8  N   UNL     1      39.796 -14.365  -0.530  1.00  0.00    -0.323 N 
HETATM    9  C   UNL     1      39.519 -13.882   0.813  1.00  0.00     0.117 C 
HETATM   10  H   UNL     1      39.320 -14.088  -1.380  1.00  0.00     0.165 HD
HETATM   11  C   UNL     1      38.073 -14.165   1.230  1.00  0.00     0.041 C 
HETATM   12  C   UNL     1      39.880 -12.400   0.947  1.00  0.00     0.041 C 
HETATM   13  C   UNL     1      40.501 -14.753   1.633  1.00  0.00     0.275 C 
HETATM   14  C   UNL     1      37.079 -13.255   0.509  1.00  0.00     0.003 C 
HETATM   15  C   UNL     1      37.443 -11.782   0.667  1.00  0.00     0.000 C 
HETATM   16  C   UNL     1      38.877 -11.500   0.225  1.00  0.00     0.003 C 
HETATM   17  O   UNL     1      40.541 -14.819   2.854  1.00  0.00    -0.268 OA
ENDBRANCH   2   5
BRANCH   1  18
HETATM   18  C   UNL     1      42.808 -18.402   2.141  1.00  0.00     0.121 A 
HETATM   19  C   UNL     1      43.509 -18.185   3.313  1.00  0.00     0.066 A 
HETATM   20  C   UNL     1      44.220 -19.384   3.566  1.00  0.00     0.061 A 
HETATM   21  N   UNL     1      44.029 -20.268   2.577  1.00  0.00    -0.178 NA
HETATM   22  N   UNL     1      43.177 -19.657   1.742  1.00  0.00    -0.272 N 
HETATM   23  H   UNL     1      42.862 -20.150   0.911  1.00  0.00     0.189 HD
BRANCH  20  24
HETATM   24  C   UNL     1      45.090 -19.772   4.737  1.00  0.00     0.039 C 
HETATM   25  C   UNL     1      44.777 -18.961   6.003  1.00  0.00     0.011 C 
HETATM   26  C   UNL     1      43.590 -19.501   6.794  1.00  0.00     0.001 C 
HETATM   27  C   UNL     1      43.773 -20.976   7.131  1.00  0.00     0.000 C 
HETATM   28  C   UNL     1      43.985 -21.814   5.877  1.00  0.00     0.001 C 
HETATM   29  C   UNL     1      45.130 -21.287   5.012  1.00  0.00     0.011 C 
ENDBRANCH  20  24
ENDBRANCH   1  18
TORSDOF 3
ENDMDL
MODEL 6
REMARK VINA RESULT:      -8.1      5.958      9.205
REMARK  3 active torsions:
REMARK  status: ('A' for Active; 'I' for Inactive)
REMARK    1  A    between atoms: C_2  and  C_3 
REMARK       I    between atoms: C_3  and  N_4 
REMARK    2  A    between atoms: N_4  and  N_5 
REMARK    3  A    between atoms: C_21  and  C_22 
ROOT
HETATM    1  C   UNL     1      40.567 -15.385   2.064  1.00  0.00     0.288 C 
HETATM    2  N   UNL     1      41.685 -15.133   1.295  1.00  0.00    -0.251 N 
HETATM    3  O   UNL     1      39.431 -15.064   1.723  1.00  0.00    -0.264 OA
HETATM    4  H   UNL     1      42.604 -15.195   1.716  1.00  0.00     0.191 HD
ENDROOT
BRANCH   2   5
HETATM    5  N   UNL     1      41.571 -14.179   0.294  1.00  0.00    -0.167 N 
HETATM    6  C   UNL     1      41.966 -12.882   0.473  1.00  0.00     0.345 C 
HETATM    7  O   UNL     1      42.424 -12.382   1.487  1.00  0.00    -0.245 OA
HETATM    8  N   UNL     1      41.824 -12.228  -0.731  1.00  0.00    -0.323 N 
HETATM    9  C   UNL     1      41.310 -13.101  -1.775  1.00  0.00     0.117 C 
HETATM   10  H   UNL     1      42.051 -11.246  -0.826  1.00  0.00     0.165 HD
HETATM   11  C   UNL     1      42.264 -13.176  -2.971  1.00  0.00     0.041 C 
HETATM   12  C   UNL     1      39.895 -12.686  -2.188  1.00  0.00     0.041 C 
HETATM   13  C   UNL     1      41.277 -14.452  -1.020  1.00  0.00     0.275 C 
HETATM   14  C   UNL     1      42.251 -11.890  -3.797  1.00  0.00     0.003 C 
HETATM   15  C   UNL     1      40.837 -11.501  -4.215  1.00  0.00     0.000 C 
HETATM   16  C   UNL     1      39.896 -11.401  -3.016  1.00  0.00     0.003 C 
HETATM   17  O   UNL     1      41.049 -15.542  -1.527  1.00  0.00    -0.268 OA
ENDBRANCH   2   5
BRANCH   1  18
HETATM   18  C   UNL     1      40.831 -16.025   3.327  1.00  0.00     0.121 A 
HETATM   19  C   UNL     1      41.543 -17.151   3.697  1.00  0.00     0.066 A 
HETATM   20  C   UNL     1      41.508 -17.182   5.114  1.00  0.00     0.061 A 
HETATM   21  N   UNL     1      40.763 -16.177   5.593  1.00  0.00    -0.178 NA
HETATM   22  N   UNL     1      40.375 -15.499   4.504  1.00  0.00    -0.272 N 
HETATM   23  H   UNL     1      39.806 -14.665   4.619  1.00  0.00     0.189 HD
BRANCH  20  24
HETATM   24  C   UNL     1      42.174 -18.128   6.085  1.00  0.00     0.039 C 
HETATM   25  C   UNL     1      43.225 -19.024   5.412  1.00  0.00     0.011 C 
HETATM   26  C   UNL     1      44.583 -18.350   5.243  1.00  0.00     0.001 C 
HETATM   27  C   UNL     1      45.104 -17.811   6.571  1.00  0.00     0.000 C 
HETATM   28  C   UNL     1      44.117 -16.840   7.206  1.00  0.00     0.001 C 
HETATM   29  C   UNL     1      42.719 -17.442   7.351  1.00  0.00     0.011 C 
ENDBRANCH  20  24
ENDBRANCH   1  18
TORSDOF 3
ENDMDL
MODEL 7
REMARK VINA RESULT:      -8.0      3.189      4.060
REMARK  3 active torsions:
REMARK  status: ('A' for Active; 'I' for Inactive)
REMARK    1  A    between atoms: C_2  and  C_3 
REMARK       I    between atoms: C_3  and  N_4 
REMARK    2  A    between atoms: N_4  and  N_5 
REMARK    3  A    between atoms: C_21  and  C_22 
ROOT
HETATM    1  C   UNL     1      40.269 -13.833   5.711  1.00  0.00     0.288 C 
HETATM    2  N   UNL     1      41.211 -14.736   6.161  1.00  0.00    -0.251 N 
HETATM    3  O   UNL     1      39.740 -13.908   4.604  1.00  0.00    -0.264 OA
HETATM    4  H   UNL     1      41.784 -14.501   6.962  1.00  0.00     0.191 HD
ENDROOT
BRANCH   2   5
HETATM    5  N   UNL     1      41.840 -15.529   5.212  1.00  0.00    -0.167 N 
HETATM    6  C   UNL     1      42.988 -15.138   4.580  1.00  0.00     0.345 C 
HETATM    7  O   UNL     1      43.587 -14.085   4.718  1.00  0.00    -0.245 OA
HETATM    8  N   UNL     1      43.410 -16.185   3.789  1.00  0.00    -0.323 N 
HETATM    9  C   UNL     1      42.522 -17.334   3.875  1.00  0.00     0.117 C 
HETATM   10  H   UNL     1      44.243 -16.110   3.219  1.00  0.00     0.165 HD
HETATM   11  C   UNL     1      43.264 -18.589   4.344  1.00  0.00     0.041 C 
HETATM   12  C   UNL     1      41.787 -17.557   2.551  1.00  0.00     0.041 C 
HETATM   13  C   UNL     1      41.537 -16.846   4.964  1.00  0.00     0.275 C 
HETATM   14  C   UNL     1      44.178 -19.156   3.258  1.00  0.00     0.003 C 
HETATM   15  C   UNL     1      43.426 -19.389   1.952  1.00  0.00     0.000 C 
HETATM   16  C   UNL     1      42.710 -18.127   1.474  1.00  0.00     0.003 C 
HETATM   17  O   UNL     1      40.675 -17.530   5.498  1.00  0.00    -0.268 OA
ENDBRANCH   2   5
BRANCH   1  18
HETATM   18  C   UNL     1      39.972 -12.760   6.626  1.00  0.00     0.121 A 
HETATM   19  C   UNL     1      40.340 -11.429   6.690  1.00  0.00     0.066 A 
HETATM   20  C   UNL     1      39.622 -10.881   7.783  1.00  0.00     0.061 A 
HETATM   21  N   UNL     1      38.906 -11.828   8.404  1.00  0.00    -0.178 NA
HETATM   22  N   UNL     1      39.130 -12.940   7.689  1.00  0.00    -0.272 N 
HETATM   23  H   UNL     1      38.667 -13.802   7.962  1.00  0.00     0.189 HD
BRANCH  20  24
HETATM   24  C   UNL     1      39.553  -9.460   8.288  1.00  0.00     0.039 C 
HETATM   25  C   UNL     1      38.653  -9.314   9.526  1.00  0.00     0.011 C 
HETATM   26  C   UNL     1      39.353  -9.673  10.833  1.00  0.00     0.001 C 
HETATM   27  C   UNL     1      40.642  -8.879  11.008  1.00  0.00     0.000 C 
HETATM   28  C   UNL     1      41.592  -9.090   9.836  1.00  0.00     0.001 C 
HETATM   29  C   UNL     1      40.929  -8.800   8.489  1.00  0.00     0.011 C 
ENDBRANCH  20  24
ENDBRANCH   1  18
TORSDOF 3
ENDMDL
MODEL 8
REMARK VINA RESULT:      -7.9      5.529      9.584
REMARK  3 active torsions:
REMARK  status: ('A' for Active; 'I' for Inactive)
REMARK    1  A    between atoms: C_2  and  C_3 
REMARK       I    between atoms: C_3  and  N_4 
REMARK    2  A    between atoms: N_4  and  N_5 
REMARK    3  A    between atoms: C_21  and  C_22 
ROOT
HETATM    1  C   UNL     1      41.970 -15.962   1.330  1.00  0.00     0.288 C 
HETATM    2  N   UNL     1      41.516 -15.532   2.561  1.00  0.00    -0.251 N 
HETATM    3  O   UNL     1      42.773 -16.882   1.193  1.00  0.00    -0.264 OA
HETATM    4  H   UNL     1      41.055 -14.634   2.637  1.00  0.00     0.191 HD
ENDROOT
BRANCH   2   5
HETATM    5  N   UNL     1      42.254 -15.899   3.677  1.00  0.00    -0.167 N 
HETATM    6  C   UNL     1      43.171 -15.064   4.253  1.00  0.00     0.345 C 
HETATM    7  O   UNL     1      43.488 -13.946   3.883  1.00  0.00    -0.245 OA
HETATM    8  N   UNL     1      43.643 -15.679   5.393  1.00  0.00    -0.323 N 
HETATM    9  C   UNL     1      43.035 -16.983   5.608  1.00  0.00     0.117 C 
HETATM   10  H   UNL     1      44.344 -15.238   5.975  1.00  0.00     0.165 HD
HETATM   11  C   UNL     1      42.325 -17.060   6.963  1.00  0.00     0.041 C 
HETATM   12  C   UNL     1      44.064 -18.102   5.429  1.00  0.00     0.041 C 
HETATM   13  C   UNL     1      42.006 -17.007   4.452  1.00  0.00     0.275 C 
HETATM   14  C   UNL     1      43.313 -17.134   8.126  1.00  0.00     0.003 C 
HETATM   15  C   UNL     1      44.320 -18.265   7.941  1.00  0.00     0.000 C 
HETATM   16  C   UNL     1      45.045 -18.169   6.600  1.00  0.00     0.003 C 
HETATM   17  O   UNL     1      41.136 -17.852   4.295  1.00  0.00    -0.268 OA
ENDBRANCH   2   5
BRANCH   1  18
HETATM   18  C   UNL     1      41.459 -15.222   0.204  1.00  0.00     0.121 A 
HETATM   19  C   UNL     1      41.078 -13.906   0.018  1.00  0.00     0.066 A 
HETATM   20  C   UNL     1      40.764 -13.785  -1.359  1.00  0.00     0.061 A 
HETATM   21  N   UNL     1      40.876 -14.967  -1.978  1.00  0.00    -0.178 NA
HETATM   22  N   UNL     1      41.297 -15.807  -1.022  1.00  0.00    -0.272 N 
HETATM   23  H   UNL     1      41.476 -16.778  -1.262  1.00  0.00     0.189 HD
BRANCH  20  24
HETATM   24  C   UNL     1      40.367 -12.571  -2.164  1.00  0.00     0.039 C 
HETATM   25  C   UNL     1      40.650 -11.252  -1.428  1.00  0.00     0.011 C 
HETATM   26  C   UNL     1      42.095 -10.780  -1.558  1.00  0.00     0.001 C 
HETATM   27  C   UNL     1      42.518 -10.683  -3.019  1.00  0.00     0.000 C 
HETATM   28  C   UNL     1      42.338 -12.012  -3.742  1.00  0.00     0.001 C 
HETATM   29  C   UNL     1      40.920 -12.565  -3.601  1.00  0.00     0.011 C 
ENDBRANCH  20  24
ENDBRANCH   1  18
TORSDOF 3
ENDMDL
MODEL 9
REMARK VINA RESULT:      -7.9      2.602      3.239
REMARK  3 active torsions:
REMARK  status: ('A' for Active; 'I' for Inactive)
REMARK    1  A    between atoms: C_2  and  C_3 
REMARK       I    between atoms: C_3  and  N_4 
REMARK    2  A    between atoms: N_4  and  N_5 
REMARK    3  A    between atoms: C_21  and  C_22 
ROOT
HETATM    1  C   UNL     1      41.687 -12.707   5.794  1.00  0.00     0.288 C 
HETATM    2  N   UNL     1      41.187 -13.986   5.929  1.00  0.00    -0.251 N 
HETATM    3  O   UNL     1      42.122 -12.264   4.733  1.00  0.00    -0.264 OA
HETATM    4  H   UNL     1      41.069 -14.380   6.855  1.00  0.00     0.191 HD
ENDROOT
BRANCH   2   5
HETATM    5  N   UNL     1      41.516 -14.909   4.946  1.00  0.00    -0.167 N 
HETATM    6  C   UNL     1      40.726 -15.121   3.851  1.00  0.00     0.345 C 
HETATM    7  O   UNL     1      39.658 -14.590   3.594  1.00  0.00    -0.245 OA
HETATM    8  N   UNL     1      41.381 -16.008   3.024  1.00  0.00    -0.323 N 
HETATM    9  C   UNL     1      42.664 -16.424   3.570  1.00  0.00     0.117 C 
HETATM   10  H   UNL     1      40.969 -16.316   2.153  1.00  0.00     0.165 HD
HETATM   11  C   UNL     1      43.817 -16.099   2.616  1.00  0.00     0.041 C 
HETATM   12  C   UNL     1      42.637 -17.905   3.962  1.00  0.00     0.041 C 
HETATM   13  C   UNL     1      42.735 -15.532   4.832  1.00  0.00     0.275 C 
HETATM   14  C   UNL     1      43.835 -17.025   1.400  1.00  0.00     0.003 C 
HETATM   15  C   UNL     1      43.826 -18.495   1.809  1.00  0.00     0.000 C 
HETATM   16  C   UNL     1      42.659 -18.820   2.738  1.00  0.00     0.003 C 
HETATM   17  O   UNL     1      43.710 -15.411   5.560  1.00  0.00    -0.268 OA
ENDBRANCH   2   5
BRANCH   1  18
HETATM   18  C   UNL     1      41.700 -11.929   7.007  1.00  0.00     0.121 A 
HETATM   19  C   UNL     1      42.702 -11.505   7.859  1.00  0.00     0.066 A 
HETATM   20  C   UNL     1      42.068 -10.679   8.821  1.00  0.00     0.061 A 
HETATM   21  N   UNL     1      40.744 -10.646   8.620  1.00  0.00    -0.178 NA
HETATM   22  N   UNL     1      40.552 -11.399   7.527  1.00  0.00    -0.272 N 
HETATM   23  H   UNL     1      39.610 -11.508   7.163  1.00  0.00     0.189 HD
BRANCH  20  24
HETATM   24  C   UNL     1      42.658  -9.871   9.951  1.00  0.00     0.039 C 
HETATM   25  C   UNL     1      41.682  -9.693  11.125  1.00  0.00     0.011 C 
HETATM   26  C   UNL     1      41.656 -10.882  12.080  1.00  0.00     0.001 C 
HETATM   27  C   UNL     1      43.053 -11.218  12.587  1.00  0.00     0.000 C 
HETATM   28  C   UNL     1      44.013 -11.497  11.438  1.00  0.00     0.001 C 
HETATM   29  C   UNL     1      44.042 -10.361  10.415  1.00  0.00     0.011 C 
ENDBRANCH  20  24
ENDBRANCH   1  18
TORSDOF 3
ENDMDL
MODEL 10
REMARK VINA RESULT:      -7.7      6.747     10.353
REMARK  3 active torsions:
REMARK  status: ('A' for Active; 'I' for Inactive)
REMARK    1  A    between atoms: C_2  and  C_3 
REMARK       I    between atoms: C_3  and  N_4 
REMARK    2  A    between atoms: N_4  and  N_5 
REMARK    3  A    between atoms: C_21  and  C_22 
ROOT
HETATM    1  C   UNL     1      41.099 -15.195   0.217  1.00  0.00     0.288 C 
HETATM    2  N   UNL     1      42.076 -14.794  -0.672  1.00  0.00    -0.251 N 
HETATM    3  O   UNL     1      39.943 -14.779   0.178  1.00  0.00    -0.264 OA
HETATM    4  H   UNL     1      43.049 -14.972  -0.457  1.00  0.00     0.191 HD
ENDROOT
BRANCH   2   5
HETATM    5  N   UNL     1      41.847 -13.630  -1.392  1.00  0.00    -0.167 N 
HETATM    6  C   UNL     1      42.095 -12.390  -0.872  1.00  0.00     0.345 C 
HETATM    7  O   UNL     1      42.501 -12.124   0.246  1.00  0.00    -0.245 OA
HETATM    8  N   UNL     1      41.870 -11.464  -1.868  1.00  0.00    -0.323 N 
HETATM    9  C   UNL     1      41.449 -12.086  -3.114  1.00  0.00     0.117 C 
HETATM   10  H   UNL     1      41.984 -10.473  -1.698  1.00  0.00     0.165 HD
HETATM   11  C   UNL     1      42.396 -11.739  -4.267  1.00  0.00     0.041 C 
HETATM   12  C   UNL     1      39.993 -11.737  -3.435  1.00  0.00     0.041 C 
HETATM   13  C   UNL     1      41.575 -13.582  -2.738  1.00  0.00     0.275 C 
HETATM   14  C   UNL     1      42.232 -10.292  -4.730  1.00  0.00     0.003 C 
HETATM   15  C   UNL     1      40.779  -9.966  -5.063  1.00  0.00     0.000 C 
HETATM   16  C   UNL     1      39.842 -10.288  -3.900  1.00  0.00     0.003 C 
HETATM   17  O   UNL     1      41.467 -14.519  -3.516  1.00  0.00    -0.268 OA
ENDBRANCH   2   5
BRANCH   1  18
HETATM   18  C   UNL     1      41.542 -16.118   1.230  1.00  0.00     0.121 A 
HETATM   19  C   UNL     1      41.348 -16.203   2.596  1.00  0.00     0.066 A 
HETATM   20  C   UNL     1      41.967 -17.413   3.000  1.00  0.00     0.061 A 
HETATM   21  N   UNL     1      42.568 -18.009   1.963  1.00  0.00    -0.178 NA
HETATM   22  N   UNL     1      42.295 -17.216   0.916  1.00  0.00    -0.272 N 
HETATM   23  H   UNL     1      42.636 -17.479  -0.004  1.00  0.00     0.189 HD
BRANCH  20  24
HETATM   24  C   UNL     1      42.013 -18.078   4.355  1.00  0.00     0.039 C 
HETATM   25  C   UNL     1      43.423 -18.082   4.966  1.00  0.00     0.011 C 
HETATM   26  C   UNL     1      43.786 -16.779   5.670  1.00  0.00     0.001 C 
HETATM   27  C   UNL     1      42.746 -16.407   6.720  1.00  0.00     0.000 C 
HETATM   28  C   UNL     1      41.353 -16.298   6.112  1.00  0.00     0.001 C 
HETATM   29  C   UNL     1      40.954 -17.558   5.344  1.00  0.00     0.011 C 
ENDBRANCH  20  24
ENDBRANCH   1  18
TORSDOF 3
ENDMDL
