MODEL 1
REMARK VINA RESULT:      -9.6      0.000      0.000
REMARK  6 active torsions:
REMARK  status: ('A' for Active; 'I' for Inactive)
REMARK    1  A    between atoms: C_2  and  O_3 
REMARK    2  A    between atoms: C_2  and  C_4 
REMARK    3  A    between atoms: C_6  and  N_7 
REMARK       I    between atoms: N_7  and  C_8 
REMARK    4  A    between atoms: C_8  and  C_9 
REMARK    5  A    between atoms: C_12  and  C_13 
REMARK    6  A    between atoms: C_18  and  C_19 
ROOT
HETATM    1  C   UNL     1      42.781 -14.768   3.986  1.00  0.00     0.096 C 
HETATM    2  C   UNL     1      43.168 -16.062   4.289  1.00  0.00     0.138 C 
HETATM    3  N   UNL     1      43.365 -16.090   5.650  1.00  0.00    -0.240 N 
HETATM    4  C   UNL     1      43.843 -17.248   6.385  1.00  0.00     0.221 C 
HETATM    5  C   UNL     1      43.705 -18.524   5.534  1.00  0.00     0.067 C 
HETATM    6  C   UNL     1      44.177 -18.268   4.096  1.00  0.00     0.125 C 
HETATM    7  N   UNL     1      43.380 -17.170   3.524  1.00  0.00    -0.365 N 
HETATM    8  N   UNL     1      43.292 -14.879   6.222  1.00  0.00    -0.181 NA
HETATM    9  C   UNL     1      42.907 -14.084   5.219  1.00  0.00     0.160 C 
HETATM   10  H   UNL     1      43.618 -17.024   2.540  1.00  0.00     0.162 HD
ENDROOT
BRANCH   1  11
HETATM   11  C   UNL     1      42.395 -14.198   2.707  1.00  0.00     0.261 C 
HETATM   12  N   UNL     1      41.298 -14.820   2.144  1.00  0.00    -0.323 N 
HETATM   13  H   UNL     1      40.821 -15.485   2.743  1.00  0.00     0.169 HD
HETATM   14  O   UNL     1      43.004 -13.242   2.241  1.00  0.00    -0.267 OA
BRANCH  12  15
HETATM   15  C   UNL     1      40.735 -14.604   0.871  1.00  0.00     0.035 A 
HETATM   16  C   UNL     1      41.159 -15.260  -0.287  1.00  0.00     0.039 A 
HETATM   17  C   UNL     1      40.532 -15.027  -1.526  1.00  0.00    -0.028 A 
HETATM   18  C   UNL     1      39.466 -14.119  -1.582  1.00  0.00     0.010 A 
HETATM   19  C   UNL     1      39.040 -13.457  -0.433  1.00  0.00     0.003 A 
HETATM   20  C   UNL     1      39.669 -13.701   0.789  1.00  0.00     0.029 A 
BRANCH  17  21
HETATM   21  C   UNL     1      40.995 -15.791  -2.748  1.00  0.00     0.147 C 
HETATM   22  C   UNL     1      39.826 -16.136  -3.662  1.00  0.00     0.044 C 
BRANCH  21  23
HETATM   23  O   UNL     1      41.948 -15.026  -3.486  1.00  0.00    -0.391 OA
HETATM   24  H   UNL     1      41.443 -14.414  -4.047  1.00  0.00     0.210 HD
ENDBRANCH  21  23
ENDBRANCH  17  21
ENDBRANCH  12  15
ENDBRANCH   1  11
BRANCH   4  25
HETATM   25  C   UNL     1      43.106 -17.430   7.694  1.00  0.00     0.409 C 
HETATM   26  F   UNL     1      41.768 -17.295   7.553  1.00  0.00    -0.169 F 
HETATM   27  F   UNL     1      43.320 -18.690   8.163  1.00  0.00    -0.169 F 
HETATM   28  F   UNL     1      43.517 -16.595   8.669  1.00  0.00    -0.169 F 
ENDBRANCH   4  25
BRANCH   6  29
HETATM   29  C   UNL     1      44.076 -19.532   3.278  1.00  0.00     0.005 A 
HETATM   30  S   UNL     1      44.858 -20.965   3.807  1.00  0.00    -0.104 SA
HETATM   31  C   UNL     1      44.303 -21.847   2.452  1.00  0.00     0.050 A 
HETATM   32  C   UNL     1      43.536 -21.072   1.610  1.00  0.00     0.008 A 
HETATM   33  C   UNL     1      43.406 -19.737   2.086  1.00  0.00     0.017 A 
ENDBRANCH   6  29
TORSDOF 6
ENDMDL
MODEL 2
REMARK VINA RESULT:      -9.3      1.459      1.593
REMARK  6 active torsions:
REMARK  status: ('A' for Active; 'I' for Inactive)
REMARK    1  A    between atoms: C_2  and  O_3 
REMARK    2  A    between atoms: C_2  and  C_4 
REMARK    3  A    between atoms: C_6  and  N_7 
REMARK       I    between atoms: N_7  and  C_8 
REMARK    4  A    between atoms: C_8  and  C_9 
REMARK    5  A    between atoms: C_12  and  C_13 
REMARK    6  A    between atoms: C_18  and  C_19 
ROOT
HETATM    1  C   UNL     1      41.492 -16.031   3.412  1.00  0.00     0.096 C 
HETATM    2  C   UNL     1      42.337 -17.003   3.917  1.00  0.00     0.138 C 
HETATM    3  N   UNL     1      42.711 -16.568   5.167  1.00  0.00    -0.240 N 
HETATM    4  C   UNL     1      43.653 -17.262   6.028  1.00  0.00     0.221 C 
HETATM    5  C   UNL     1      43.851 -18.714   5.555  1.00  0.00     0.067 C 
HETATM    6  C   UNL     1      44.010 -18.768   4.029  1.00  0.00     0.125 C 
HETATM    7  N   UNL     1      42.814 -18.174   3.407  1.00  0.00    -0.365 N 
HETATM    8  N   UNL     1      42.301 -15.320   5.439  1.00  0.00    -0.181 NA
HETATM    9  C   UNL     1      41.536 -15.008   4.389  1.00  0.00     0.160 C 
HETATM   10  H   UNL     1      42.854 -18.262   2.388  1.00  0.00     0.162 HD
ENDROOT
BRANCH   1  11
HETATM   11  C   UNL     1      40.765 -16.006   2.153  1.00  0.00     0.261 C 
HETATM   12  N   UNL     1      40.946 -14.833   1.446  1.00  0.00    -0.323 N 
HETATM   13  H   UNL     1      41.658 -14.211   1.812  1.00  0.00     0.169 HD
HETATM   14  O   UNL     1      40.100 -16.971   1.798  1.00  0.00    -0.267 OA
BRANCH  12  15
HETATM   15  C   UNL     1      40.306 -14.428   0.258  1.00  0.00     0.035 A 
HETATM   16  C   UNL     1      40.945 -14.357  -0.982  1.00  0.00     0.039 A 
HETATM   17  C   UNL     1      40.242 -13.978  -2.141  1.00  0.00    -0.028 A 
HETATM   18  C   UNL     1      38.879 -13.670  -2.033  1.00  0.00     0.010 A 
HETATM   19  C   UNL     1      38.236 -13.733  -0.799  1.00  0.00     0.003 A 
HETATM   20  C   UNL     1      38.946 -14.114   0.341  1.00  0.00     0.029 A 
BRANCH  17  21
HETATM   21  C   UNL     1      40.962 -13.956  -3.473  1.00  0.00     0.147 C 
HETATM   22  C   UNL     1      41.539 -12.576  -3.768  1.00  0.00     0.044 C 
BRANCH  21  23
HETATM   23  O   UNL     1      42.021 -14.912  -3.486  1.00  0.00    -0.391 OA
HETATM   24  H   UNL     1      42.816 -14.454  -3.166  1.00  0.00     0.210 HD
ENDBRANCH  21  23
ENDBRANCH  17  21
ENDBRANCH  12  15
ENDBRANCH   1  11
BRANCH   4  25
HETATM   25  C   UNL     1      43.205 -17.257   7.474  1.00  0.00     0.409 C 
HETATM   26  F   UNL     1      41.861 -17.350   7.596  1.00  0.00    -0.169 F 
HETATM   27  F   UNL     1      43.726 -18.340   8.112  1.00  0.00    -0.169 F 
HETATM   28  F   UNL     1      43.621 -16.179   8.168  1.00  0.00    -0.169 F 
ENDBRANCH   4  25
BRANCH   6  29
HETATM   29  C   UNL     1      44.243 -20.188   3.576  1.00  0.00     0.005 A 
HETATM   30  S   UNL     1      44.803 -21.366   4.689  1.00  0.00    -0.104 SA
HETATM   31  C   UNL     1      44.804 -22.589   3.496  1.00  0.00     0.050 A 
HETATM   32  C   UNL     1      44.387 -22.117   2.272  1.00  0.00     0.008 A 
HETATM   33  C   UNL     1      44.064 -20.732   2.317  1.00  0.00     0.017 A 
ENDBRANCH   6  29
TORSDOF 6
ENDMDL
MODEL 3
REMARK VINA RESULT:      -8.7      1.794      2.180
REMARK  6 active torsions:
REMARK  status: ('A' for Active; 'I' for Inactive)
REMARK    1  A    between atoms: C_2  and  O_3 
REMARK    2  A    between atoms: C_2  and  C_4 
REMARK    3  A    between atoms: C_6  and  N_7 
REMARK       I    between atoms: N_7  and  C_8 
REMARK    4  A    between atoms: C_8  and  C_9 
REMARK    5  A    between atoms: C_12  and  C_13 
REMARK    6  A    between atoms: C_18  and  C_19 
ROOT
HETATM    1  C   UNL     1      42.342 -15.770   2.377  1.00  0.00     0.096 C 
HETATM    2  C   UNL     1      42.914 -16.781   3.128  1.00  0.00     0.138 C 
HETATM    3  N   UNL     1      43.075 -16.269   4.395  1.00  0.00    -0.240 N 
HETATM    4  C   UNL     1      43.705 -16.981   5.493  1.00  0.00     0.221 C 
HETATM    5  C   UNL     1      43.788 -18.487   5.185  1.00  0.00     0.067 C 
HETATM    6  C   UNL     1      44.256 -18.718   3.741  1.00  0.00     0.125 C 
HETATM    7  N   UNL     1      43.315 -18.049   2.826  1.00  0.00    -0.365 N 
HETATM    8  N   UNL     1      42.801 -14.958   4.475  1.00  0.00    -0.181 NA
HETATM    9  C   UNL     1      42.326 -14.665   3.261  1.00  0.00     0.160 C 
HETATM   10  H   UNL     1      43.556 -18.246   1.851  1.00  0.00     0.162 HD
ENDROOT
BRANCH   1  11
HETATM   11  C   UNL     1      41.909 -15.786   0.990  1.00  0.00     0.261 C 
HETATM   12  N   UNL     1      41.641 -14.526   0.491  1.00  0.00    -0.323 N 
HETATM   13  H   UNL     1      41.911 -13.755   1.091  1.00  0.00     0.169 HD
HETATM   14  O   UNL     1      41.837 -16.841   0.372  1.00  0.00    -0.267 OA
BRANCH  12  15
HETATM   15  C   UNL     1      41.095 -14.186  -0.762  1.00  0.00     0.035 A 
HETATM   16  C   UNL     1      39.756 -14.393  -1.106  1.00  0.00     0.039 A 
HETATM   17  C   UNL     1      39.261 -14.000  -2.364  1.00  0.00    -0.028 A 
HETATM   18  C   UNL     1      40.135 -13.391  -3.274  1.00  0.00     0.010 A 
HETATM   19  C   UNL     1      41.473 -13.186  -2.940  1.00  0.00     0.003 A 
HETATM   20  C   UNL     1      41.949 -13.578  -1.688  1.00  0.00     0.029 A 
BRANCH  17  21
HETATM   21  C   UNL     1      37.795 -14.203  -2.681  1.00  0.00     0.147 C 
HETATM   22  C   UNL     1      37.333 -13.269  -3.794  1.00  0.00     0.044 C 
BRANCH  21  23
HETATM   23  O   UNL     1      37.550 -15.551  -3.079  1.00  0.00    -0.391 OA
HETATM   24  H   UNL     1      36.754 -15.540  -3.636  1.00  0.00     0.210 HD
ENDBRANCH  21  23
ENDBRANCH  17  21
ENDBRANCH  12  15
ENDBRANCH   1  11
BRANCH   4  25
HETATM   25  C   UNL     1      42.968 -16.771   6.798  1.00  0.00     0.409 C 
HETATM   26  F   UNL     1      41.646 -16.558   6.613  1.00  0.00    -0.169 F 
HETATM   27  F   UNL     1      43.076 -17.891   7.564  1.00  0.00    -0.169 F 
HETATM   28  F   UNL     1      43.461 -15.762   7.543  1.00  0.00    -0.169 F 
ENDBRANCH   4  25
BRANCH   6  29
HETATM   29  C   UNL     1      44.373 -20.196   3.458  1.00  0.00     0.005 A 
HETATM   30  S   UNL     1      44.825 -21.279   4.708  1.00  0.00    -0.104 SA
HETATM   31  C   UNL     1      44.733 -22.628   3.664  1.00  0.00     0.050 A 
HETATM   32  C   UNL     1      44.365 -22.269   2.386  1.00  0.00     0.008 A 
HETATM   33  C   UNL     1      44.158 -20.865   2.267  1.00  0.00     0.017 A 
ENDBRANCH   6  29
TORSDOF 6
ENDMDL
MODEL 4
REMARK VINA RESULT:      -8.7      4.665      8.147
REMARK  6 active torsions:
REMARK  status: ('A' for Active; 'I' for Inactive)
REMARK    1  A    between atoms: C_2  and  O_3 
REMARK    2  A    between atoms: C_2  and  C_4 
REMARK    3  A    between atoms: C_6  and  N_7 
REMARK       I    between atoms: N_7  and  C_8 
REMARK    4  A    between atoms: C_8  and  C_9 
REMARK    5  A    between atoms: C_12  and  C_13 
REMARK    6  A    between atoms: C_18  and  C_19 
ROOT
HETATM    1  C   UNL     1      42.126 -14.791   1.791  1.00  0.00     0.096 C 
HETATM    2  C   UNL     1      41.549 -14.302   0.633  1.00  0.00     0.138 C 
HETATM    3  N   UNL     1      41.882 -12.968   0.577  1.00  0.00    -0.240 N 
HETATM    4  C   UNL     1      41.424 -12.052  -0.453  1.00  0.00     0.221 C 
HETATM    5  C   UNL     1      40.880 -12.829  -1.666  1.00  0.00     0.067 C 
HETATM    6  C   UNL     1      39.987 -13.990  -1.207  1.00  0.00     0.125 C 
HETATM    7  N   UNL     1      40.773 -14.875  -0.330  1.00  0.00    -0.365 N 
HETATM    8  N   UNL     1      42.491 -12.526   1.688  1.00  0.00    -0.181 NA
HETATM    9  C   UNL     1      42.667 -13.638   2.409  1.00  0.00     0.160 C 
HETATM   10  H   UNL     1      40.229 -15.700  -0.067  1.00  0.00     0.162 HD
ENDROOT
BRANCH   1  11
HETATM   11  C   UNL     1      42.138 -16.147   2.313  1.00  0.00     0.261 C 
HETATM   12  N   UNL     1      43.294 -16.452   3.007  1.00  0.00    -0.323 N 
HETATM   13  H   UNL     1      43.911 -15.668   3.186  1.00  0.00     0.169 HD
HETATM   14  O   UNL     1      41.177 -16.888   2.145  1.00  0.00    -0.267 OA
BRANCH  12  15
HETATM   15  C   UNL     1      43.685 -17.696   3.537  1.00  0.00     0.035 A 
HETATM   16  C   UNL     1      43.850 -18.851   2.767  1.00  0.00     0.039 A 
HETATM   17  C   UNL     1      44.278 -20.058   3.351  1.00  0.00    -0.028 A 
HETATM   18  C   UNL     1      44.539 -20.087   4.727  1.00  0.00     0.010 A 
HETATM   19  C   UNL     1      44.372 -18.942   5.503  1.00  0.00     0.003 A 
HETATM   20  C   UNL     1      43.951 -17.751   4.909  1.00  0.00     0.029 A 
BRANCH  17  21
HETATM   21  C   UNL     1      44.485 -21.274   2.473  1.00  0.00     0.147 C 
HETATM   22  C   UNL     1      44.598 -22.546   3.306  1.00  0.00     0.044 C 
BRANCH  21  23
HETATM   23  O   UNL     1      43.403 -21.420   1.554  1.00  0.00    -0.391 OA
HETATM   24  H   UNL     1      43.469 -22.315   1.182  1.00  0.00     0.210 HD
ENDBRANCH  21  23
ENDBRANCH  17  21
ENDBRANCH  12  15
ENDBRANCH   1  11
BRANCH   4  25
HETATM   25  C   UNL     1      42.523 -11.114  -0.904  1.00  0.00     0.409 C 
HETATM   26  F   UNL     1      43.637 -11.776  -1.289  1.00  0.00    -0.169 F 
HETATM   27  F   UNL     1      42.099 -10.408  -1.988  1.00  0.00    -0.169 F 
HETATM   28  F   UNL     1      42.871 -10.200   0.023  1.00  0.00    -0.169 F 
ENDBRANCH   4  25
BRANCH   6  29
HETATM   29  C   UNL     1      39.425 -14.723  -2.401  1.00  0.00     0.005 A 
HETATM   30  S   UNL     1      37.870 -14.321  -3.004  1.00  0.00    -0.104 SA
HETATM   31  C   UNL     1      37.974 -15.496  -4.241  1.00  0.00     0.050 A 
HETATM   32  C   UNL     1      39.167 -16.183  -4.202  1.00  0.00     0.008 A 
HETATM   33  C   UNL     1      40.003 -15.739  -3.140  1.00  0.00     0.017 A 
ENDBRANCH   6  29
TORSDOF 6
ENDMDL
MODEL 5
REMARK VINA RESULT:      -8.5      4.622      8.481
REMARK  6 active torsions:
REMARK  status: ('A' for Active; 'I' for Inactive)
REMARK    1  A    between atoms: C_2  and  O_3 
REMARK    2  A    between atoms: C_2  and  C_4 
REMARK    3  A    between atoms: C_6  and  N_7 
REMARK       I    between atoms: N_7  and  C_8 
REMARK    4  A    between atoms: C_8  and  C_9 
REMARK    5  A    between atoms: C_12  and  C_13 
REMARK    6  A    between atoms: C_18  and  C_19 
ROOT
HETATM    1  C   UNL     1      41.975 -14.493   1.685  1.00  0.00     0.096 C 
HETATM    2  C   UNL     1      41.380 -14.023   0.528  1.00  0.00     0.138 C 
HETATM    3  N   UNL     1      41.747 -12.701   0.422  1.00  0.00    -0.240 N 
HETATM    4  C   UNL     1      41.285 -11.805  -0.623  1.00  0.00     0.221 C 
HETATM    5  C   UNL     1      40.688 -12.603  -1.797  1.00  0.00     0.067 C 
HETATM    6  C   UNL     1      39.776 -13.724  -1.279  1.00  0.00     0.125 C 
HETATM    7  N   UNL     1      40.562 -14.603  -0.396  1.00  0.00    -0.365 N 
HETATM    8  N   UNL     1      42.397 -12.243   1.502  1.00  0.00    -0.181 NA
HETATM    9  C   UNL     1      42.563 -13.337   2.252  1.00  0.00     0.160 C 
HETATM   10  H   UNL     1      40.003 -15.405  -0.093  1.00  0.00     0.162 HD
ENDROOT
BRANCH   1  11
HETATM   11  C   UNL     1      41.965 -15.833   2.248  1.00  0.00     0.261 C 
HETATM   12  N   UNL     1      43.210 -16.252   2.676  1.00  0.00    -0.323 N 
HETATM   13  H   UNL     1      43.930 -15.538   2.678  1.00  0.00     0.169 HD
HETATM   14  O   UNL     1      40.918 -16.464   2.334  1.00  0.00    -0.267 OA
BRANCH  12  15
HETATM   15  C   UNL     1      43.580 -17.522   3.157  1.00  0.00     0.035 A 
HETATM   16  C   UNL     1      43.506 -17.895   4.501  1.00  0.00     0.039 A 
HETATM   17  C   UNL     1      43.858 -19.193   4.917  1.00  0.00    -0.028 A 
HETATM   18  C   UNL     1      44.287 -20.116   3.954  1.00  0.00     0.010 A 
HETATM   19  C   UNL     1      44.369 -19.751   2.611  1.00  0.00     0.003 A 
HETATM   20  C   UNL     1      44.013 -18.461   2.215  1.00  0.00     0.029 A 
BRANCH  17  21
HETATM   21  C   UNL     1      43.723 -19.568   6.377  1.00  0.00     0.147 C 
HETATM   22  C   UNL     1      43.959 -21.059   6.591  1.00  0.00     0.044 C 
BRANCH  21  23
HETATM   23  O   UNL     1      44.654 -18.834   7.171  1.00  0.00    -0.391 OA
HETATM   24  H   UNL     1      44.512 -17.893   6.972  1.00  0.00     0.210 HD
ENDBRANCH  21  23
ENDBRANCH  17  21
ENDBRANCH  12  15
ENDBRANCH   1  11
BRANCH   4  25
HETATM   25  C   UNL     1      42.397 -10.912  -1.132  1.00  0.00     0.409 C 
HETATM   26  F   UNL     1      42.081 -10.315  -2.303  1.00  0.00    -0.169 F 
HETATM   27  F   UNL     1      42.620  -9.912  -0.236  1.00  0.00    -0.169 F 
HETATM   28  F   UNL     1      43.576 -11.547  -1.283  1.00  0.00    -0.169 F 
ENDBRANCH   4  25
BRANCH   6  29
HETATM   29  C   UNL     1      39.163 -14.477  -2.434  1.00  0.00     0.005 A 
HETATM   30  S   UNL     1      40.093 -15.625  -3.305  1.00  0.00    -0.104 SA
HETATM   31  C   UNL     1      38.788 -15.993  -4.345  1.00  0.00     0.050 A 
HETATM   32  C   UNL     1      37.663 -15.260  -4.040  1.00  0.00     0.008 A 
HETATM   33  C   UNL     1      37.879 -14.385  -2.938  1.00  0.00     0.017 A 
ENDBRANCH   6  29
TORSDOF 6
ENDMDL
MODEL 6
REMARK VINA RESULT:      -8.3      4.547      8.673
REMARK  6 active torsions:
REMARK  status: ('A' for Active; 'I' for Inactive)
REMARK    1  A    between atoms: C_2  and  O_3 
REMARK    2  A    between atoms: C_2  and  C_4 
REMARK    3  A    between atoms: C_6  and  N_7 
REMARK       I    between atoms: N_7  and  C_8 
REMARK    4  A    between atoms: C_8  and  C_9 
REMARK    5  A    between atoms: C_12  and  C_13 
REMARK    6  A    between atoms: C_18  and  C_19 
ROOT
HETATM    1  C   UNL     1      43.774 -14.925   6.205  1.00  0.00     0.096 C 
HETATM    2  C   UNL     1      43.384 -15.186   4.904  1.00  0.00     0.138 C 
HETATM    3  N   UNL     1      43.595 -16.532   4.707  1.00  0.00    -0.240 N 
HETATM    4  C   UNL     1      43.378 -17.220   3.447  1.00  0.00     0.221 C 
HETATM    5  C   UNL     1      42.509 -16.364   2.506  1.00  0.00     0.067 C 
HETATM    6  C   UNL     1      42.976 -14.902   2.521  1.00  0.00     0.125 C 
HETATM    7  N   UNL     1      42.904 -14.396   3.903  1.00  0.00    -0.365 N 
HETATM    8  N   UNL     1      44.239 -17.122   5.726  1.00  0.00    -0.181 NA
HETATM    9  C   UNL     1      44.318 -16.155   6.646  1.00  0.00     0.160 C 
HETATM   10  H   UNL     1      43.137 -13.400   3.936  1.00  0.00     0.162 HD
ENDROOT
BRANCH   1  11
HETATM   11  C   UNL     1      43.713 -13.680   6.953  1.00  0.00     0.261 C 
HETATM   12  N   UNL     1      44.627 -13.623   7.987  1.00  0.00    -0.323 N 
HETATM   13  H   UNL     1      45.308 -14.374   8.007  1.00  0.00     0.169 HD
HETATM   14  O   UNL     1      42.927 -12.797   6.630  1.00  0.00    -0.267 OA
BRANCH  12  15
HETATM   15  C   UNL     1      44.760 -12.626   8.974  1.00  0.00     0.035 A 
HETATM   16  C   UNL     1      43.918 -12.514  10.082  1.00  0.00     0.039 A 
HETATM   17  C   UNL     1      44.123 -11.517  11.054  1.00  0.00    -0.028 A 
HETATM   18  C   UNL     1      45.196 -10.630  10.894  1.00  0.00     0.010 A 
HETATM   19  C   UNL     1      46.038 -10.731   9.788  1.00  0.00     0.003 A 
HETATM   20  C   UNL     1      45.823 -11.728   8.835  1.00  0.00     0.029 A 
BRANCH  17  21
HETATM   21  C   UNL     1      43.213 -11.457  12.262  1.00  0.00     0.147 C 
HETATM   22  C   UNL     1      43.272 -10.091  12.935  1.00  0.00     0.044 C 
BRANCH  21  23
HETATM   23  O   UNL     1      41.863 -11.728  11.885  1.00  0.00    -0.391 OA
HETATM   24  H   UNL     1      41.542 -10.944  11.408  1.00  0.00     0.210 HD
ENDBRANCH  21  23
ENDBRANCH  17  21
ENDBRANCH  12  15
ENDBRANCH   1  11
BRANCH   4  25
HETATM   25  C   UNL     1      42.727 -18.571   3.647  1.00  0.00     0.409 C 
HETATM   26  F   UNL     1      41.703 -18.524   4.528  1.00  0.00    -0.169 F 
HETATM   27  F   UNL     1      42.201 -18.999   2.466  1.00  0.00    -0.169 F 
HETATM   28  F   UNL     1      43.585 -19.533   4.042  1.00  0.00    -0.169 F 
ENDBRANCH   4  25
BRANCH   6  29
HETATM   29  C   UNL     1      42.147 -14.077   1.568  1.00  0.00     0.005 A 
HETATM   30  S   UNL     1      41.219 -14.845   0.347  1.00  0.00    -0.104 SA
HETATM   31  C   UNL     1      40.633 -13.351  -0.241  1.00  0.00     0.050 A 
HETATM   32  C   UNL     1      41.130 -12.284   0.473  1.00  0.00     0.008 A 
HETATM   33  C   UNL     1      42.004 -12.702   1.517  1.00  0.00     0.017 A 
ENDBRANCH   6  29
TORSDOF 6
ENDMDL
MODEL 7
REMARK VINA RESULT:      -8.2      4.116      7.432
REMARK  6 active torsions:
REMARK  status: ('A' for Active; 'I' for Inactive)
REMARK    1  A    between atoms: C_2  and  O_3 
REMARK    2  A    between atoms: C_2  and  C_4 
REMARK    3  A    between atoms: C_6  and  N_7 
REMARK       I    between atoms: N_7  and  C_8 
REMARK    4  A    between atoms: C_8  and  C_9 
REMARK    5  A    between atoms: C_12  and  C_13 
REMARK    6  A    between atoms: C_18  and  C_19 
ROOT
HETATM    1  C   UNL     1      41.052 -15.909   4.434  1.00  0.00     0.096 C 
HETATM    2  C   UNL     1      40.739 -15.088   3.366  1.00  0.00     0.138 C 
HETATM    3  N   UNL     1      40.451 -13.855   3.906  1.00  0.00    -0.240 N 
HETATM    4  C   UNL     1      40.008 -12.707   3.137  1.00  0.00     0.221 C 
HETATM    5  C   UNL     1      40.297 -12.915   1.638  1.00  0.00     0.067 C 
HETATM    6  C   UNL     1      39.907 -14.335   1.206  1.00  0.00     0.125 C 
HETATM    7  N   UNL     1      40.661 -15.302   2.022  1.00  0.00    -0.365 N 
HETATM    8  N   UNL     1      40.397 -13.864   5.247  1.00  0.00    -0.181 NA
HETATM    9  C   UNL     1      40.793 -15.100   5.566  1.00  0.00     0.160 C 
HETATM   10  H   UNL     1      40.482 -16.259   1.707  1.00  0.00     0.162 HD
ENDROOT
BRANCH   1  11
HETATM   11  C   UNL     1      41.484 -17.297   4.433  1.00  0.00     0.261 C 
HETATM   12  N   UNL     1      42.626 -17.510   3.685  1.00  0.00    -0.323 N 
HETATM   13  H   UNL     1      43.092 -16.671   3.357  1.00  0.00     0.169 HD
HETATM   14  O   UNL     1      40.870 -18.141   5.075  1.00  0.00    -0.267 OA
BRANCH  12  15
HETATM   15  C   UNL     1      43.244 -18.736   3.375  1.00  0.00     0.035 A 
HETATM   16  C   UNL     1      43.869 -19.552   4.322  1.00  0.00     0.039 A 
HETATM   17  C   UNL     1      44.440 -20.786   3.956  1.00  0.00    -0.028 A 
HETATM   18  C   UNL     1      44.371 -21.189   2.616  1.00  0.00     0.010 A 
HETATM   19  C   UNL     1      43.755 -20.380   1.664  1.00  0.00     0.003 A 
HETATM   20  C   UNL     1      43.191 -19.160   2.043  1.00  0.00     0.029 A 
BRANCH  17  21
HETATM   21  C   UNL     1      45.069 -21.658   5.021  1.00  0.00     0.147 C 
HETATM   22  C   UNL     1      44.304 -21.566   6.336  1.00  0.00     0.044 C 
BRANCH  21  23
HETATM   23  O   UNL     1      45.100 -23.021   4.598  1.00  0.00    -0.391 OA
HETATM   24  H   UNL     1      44.177 -23.293   4.461  1.00  0.00     0.210 HD
ENDBRANCH  21  23
ENDBRANCH  17  21
ENDBRANCH  12  15
ENDBRANCH   1  11
BRANCH   4  25
HETATM   25  C   UNL     1      40.664 -11.426   3.606  1.00  0.00     0.409 C 
HETATM   26  F   UNL     1      41.916 -11.632   4.074  1.00  0.00    -0.169 F 
HETATM   27  F   UNL     1      40.781 -10.567   2.557  1.00  0.00    -0.169 F 
HETATM   28  F   UNL     1      39.960 -10.769   4.548  1.00  0.00    -0.169 F 
ENDBRANCH   4  25
BRANCH   6  29
HETATM   29  C   UNL     1      40.155 -14.519  -0.271  1.00  0.00     0.005 A 
HETATM   30  S   UNL     1      39.271 -13.597  -1.415  1.00  0.00    -0.104 SA
HETATM   31  C   UNL     1      40.073 -14.334  -2.731  1.00  0.00     0.050 A 
HETATM   32  C   UNL     1      40.999 -15.266  -2.315  1.00  0.00     0.008 A 
HETATM   33  C   UNL     1      41.046 -15.373  -0.896  1.00  0.00     0.017 A 
ENDBRANCH   6  29
TORSDOF 6
ENDMDL
MODEL 8
REMARK VINA RESULT:      -8.1      3.899      5.560
REMARK  6 active torsions:
REMARK  status: ('A' for Active; 'I' for Inactive)
REMARK    1  A    between atoms: C_2  and  O_3 
REMARK    2  A    between atoms: C_2  and  C_4 
REMARK    3  A    between atoms: C_6  and  N_7 
REMARK       I    between atoms: N_7  and  C_8 
REMARK    4  A    between atoms: C_8  and  C_9 
REMARK    5  A    between atoms: C_12  and  C_13 
REMARK    6  A    between atoms: C_18  and  C_19 
ROOT
HETATM    1  C   UNL     1      41.755 -15.395   0.733  1.00  0.00     0.096 C 
HETATM    2  C   UNL     1      42.174 -15.825   1.979  1.00  0.00     0.138 C 
HETATM    3  N   UNL     1      42.173 -17.200   1.926  1.00  0.00    -0.240 N 
HETATM    4  C   UNL     1      42.488 -18.063   3.051  1.00  0.00     0.221 C 
HETATM    5  C   UNL     1      43.209 -17.270   4.157  1.00  0.00     0.067 C 
HETATM    6  C   UNL     1      42.521 -15.917   4.386  1.00  0.00     0.125 C 
HETATM    7  N   UNL     1      42.521 -15.165   3.120  1.00  0.00    -0.365 N 
HETATM    8  N   UNL     1      41.634 -17.687   0.798  1.00  0.00    -0.181 NA
HETATM    9  C   UNL     1      41.411 -16.594   0.063  1.00  0.00     0.160 C 
HETATM   10  H   UNL     1      42.137 -14.227   3.256  1.00  0.00     0.162 HD
ENDROOT
BRANCH   1  11
HETATM   11  C   UNL     1      41.626 -14.041   0.221  1.00  0.00     0.261 C 
HETATM   12  N   UNL     1      42.204 -13.873  -1.023  1.00  0.00    -0.323 N 
HETATM   13  H   UNL     1      42.511 -14.726  -1.477  1.00  0.00     0.169 HD
HETATM   14  O   UNL     1      41.027 -13.187   0.863  1.00  0.00    -0.267 OA
BRANCH  12  15
HETATM   15  C   UNL     1      42.365 -12.679  -1.751  1.00  0.00     0.035 A 
HETATM   16  C   UNL     1      42.913 -11.511  -1.215  1.00  0.00     0.039 A 
HETATM   17  C   UNL     1      43.080 -10.357  -2.004  1.00  0.00    -0.028 A 
HETATM   18  C   UNL     1      42.688 -10.397  -3.349  1.00  0.00     0.010 A 
HETATM   19  C   UNL     1      42.137 -11.556  -3.890  1.00  0.00     0.003 A 
HETATM   20  C   UNL     1      41.980 -12.693  -3.096  1.00  0.00     0.029 A 
BRANCH  17  21
HETATM   21  C   UNL     1      43.717  -9.126  -1.395  1.00  0.00     0.147 C 
HETATM   22  C   UNL     1      43.147  -7.849  -2.002  1.00  0.00     0.044 C 
BRANCH  21  23
HETATM   23  O   UNL     1      43.507  -9.100   0.017  1.00  0.00    -0.391 OA
HETATM   24  H   UNL     1      43.708  -9.992   0.346  1.00  0.00     0.210 HD
ENDBRANCH  21  23
ENDBRANCH  17  21
ENDBRANCH  12  15
ENDBRANCH   1  11
BRANCH   4  25
HETATM   25  C   UNL     1      43.342 -19.242   2.635  1.00  0.00     0.409 C 
HETATM   26  F   UNL     1      44.415 -18.867   1.904  1.00  0.00    -0.169 F 
HETATM   27  F   UNL     1      43.828 -19.862   3.745  1.00  0.00    -0.169 F 
HETATM   28  F   UNL     1      42.667 -20.185   1.948  1.00  0.00    -0.169 F 
ENDBRANCH   4  25
BRANCH   6  29
HETATM   29  C   UNL     1      43.207 -15.162   5.498  1.00  0.00     0.005 A 
HETATM   30  S   UNL     1      42.919 -13.484   5.705  1.00  0.00    -0.104 SA
HETATM   31  C   UNL     1      43.970 -13.401   7.049  1.00  0.00     0.050 A 
HETATM   32  C   UNL     1      44.533 -14.623   7.341  1.00  0.00     0.008 A 
HETATM   33  C   UNL     1      44.094 -15.640   6.446  1.00  0.00     0.017 A 
ENDBRANCH   6  29
TORSDOF 6
ENDMDL
MODEL 9
REMARK VINA RESULT:      -8.0      2.104      2.524
REMARK  6 active torsions:
REMARK  status: ('A' for Active; 'I' for Inactive)
REMARK    1  A    between atoms: C_2  and  O_3 
REMARK    2  A    between atoms: C_2  and  C_4 
REMARK    3  A    between atoms: C_6  and  N_7 
REMARK       I    between atoms: N_7  and  C_8 
REMARK    4  A    between atoms: C_8  and  C_9 
REMARK    5  A    between atoms: C_12  and  C_13 
REMARK    6  A    between atoms: C_18  and  C_19 
ROOT
HETATM    1  C   UNL     1      42.767 -15.077   3.601  1.00  0.00     0.096 C 
HETATM    2  C   UNL     1      43.190 -16.323   4.029  1.00  0.00     0.138 C 
HETATM    3  N   UNL     1      43.391 -16.210   5.386  1.00  0.00    -0.240 N 
HETATM    4  C   UNL     1      43.903 -17.275   6.230  1.00  0.00     0.221 C 
HETATM    5  C   UNL     1      43.798 -18.633   5.511  1.00  0.00     0.067 C 
HETATM    6  C   UNL     1      44.260 -18.509   4.053  1.00  0.00     0.125 C 
HETATM    7  N   UNL     1      43.431 -17.495   3.377  1.00  0.00    -0.365 N 
HETATM    8  N   UNL     1      43.285 -14.950   5.834  1.00  0.00    -0.181 NA
HETATM    9  C   UNL     1      42.876 -14.270   4.759  1.00  0.00     0.160 C 
HETATM   10  H   UNL     1      43.663 -17.442   2.383  1.00  0.00     0.162 HD
ENDROOT
BRANCH   1  11
HETATM   11  C   UNL     1      42.362 -14.648   2.273  1.00  0.00     0.261 C 
HETATM   12  N   UNL     1      41.936 -13.334   2.233  1.00  0.00    -0.323 N 
HETATM   13  H   UNL     1      42.091 -12.802   3.082  1.00  0.00     0.169 HD
HETATM   14  O   UNL     1      42.442 -15.414   1.320  1.00  0.00    -0.267 OA
BRANCH  12  15
HETATM   15  C   UNL     1      41.370 -12.638   1.148  1.00  0.00     0.035 A 
HETATM   16  C   UNL     1      42.057 -11.682   0.396  1.00  0.00     0.039 A 
HETATM   17  C   UNL     1      41.448 -11.044  -0.701  1.00  0.00    -0.028 A 
HETATM   18  C   UNL     1      40.129 -11.386  -1.033  1.00  0.00     0.010 A 
HETATM   19  C   UNL     1      39.435 -12.334  -0.285  1.00  0.00     0.003 A 
HETATM   20  C   UNL     1      40.054 -12.960   0.798  1.00  0.00     0.029 A 
BRANCH  17  21
HETATM   21  C   UNL     1      42.242 -10.046  -1.516  1.00  0.00     0.147 C 
HETATM   22  C   UNL     1      43.711 -10.042  -1.109  1.00  0.00     0.044 C 
BRANCH  21  23
HETATM   23  O   UNL     1      42.149 -10.347  -2.908  1.00  0.00    -0.391 OA
HETATM   24  H   UNL     1      42.509  -9.581  -3.385  1.00  0.00     0.210 HD
ENDBRANCH  21  23
ENDBRANCH  17  21
ENDBRANCH  12  15
ENDBRANCH   1  11
BRANCH   4  25
HETATM   25  C   UNL     1      43.174 -17.346   7.554  1.00  0.00     0.409 C 
HETATM   26  F   UNL     1      41.833 -17.250   7.408  1.00  0.00    -0.169 F 
HETATM   27  F   UNL     1      43.414 -18.551   8.139  1.00  0.00    -0.169 F 
HETATM   28  F   UNL     1      43.572 -16.414   8.443  1.00  0.00    -0.169 F 
ENDBRANCH   4  25
BRANCH   6  29
HETATM   29  C   UNL     1      44.192 -19.851   3.365  1.00  0.00     0.005 A 
HETATM   30  S   UNL     1      43.357 -20.014   1.876  1.00  0.00    -0.104 SA
HETATM   31  C   UNL     1      43.721 -21.681   1.778  1.00  0.00     0.050 A 
HETATM   32  C   UNL     1      44.464 -22.111   2.854  1.00  0.00     0.008 A 
HETATM   33  C   UNL     1      44.735 -21.056   3.771  1.00  0.00     0.017 A 
ENDBRANCH   6  29
TORSDOF 6
ENDMDL
MODEL 10
REMARK VINA RESULT:      -8.0      2.435      2.783
REMARK  6 active torsions:
REMARK  status: ('A' for Active; 'I' for Inactive)
REMARK    1  A    between atoms: C_2  and  O_3 
REMARK    2  A    between atoms: C_2  and  C_4 
REMARK    3  A    between atoms: C_6  and  N_7 
REMARK       I    between atoms: N_7  and  C_8 
REMARK    4  A    between atoms: C_8  and  C_9 
REMARK    5  A    between atoms: C_12  and  C_13 
REMARK    6  A    between atoms: C_18  and  C_19 
ROOT
HETATM    1  C   UNL     1      43.246 -15.509   4.891  1.00  0.00     0.096 C 
HETATM    2  C   UNL     1      43.655 -16.828   4.979  1.00  0.00     0.138 C 
HETATM    3  N   UNL     1      44.042 -17.018   6.286  1.00  0.00    -0.240 N 
HETATM    4  C   UNL     1      44.605 -18.254   6.801  1.00  0.00     0.221 C 
HETATM    5  C   UNL     1      44.331 -19.419   5.832  1.00  0.00     0.067 C 
HETATM    6  C   UNL     1      44.599 -18.991   4.383  1.00  0.00     0.125 C 
HETATM    7  N   UNL     1      43.742 -17.835   4.065  1.00  0.00    -0.365 N 
HETATM    8  N   UNL     1      44.066 -15.884   7.002  1.00  0.00    -0.181 NA
HETATM    9  C   UNL     1      43.552 -14.977   6.166  1.00  0.00     0.160 C 
HETATM   10  H   UNL     1      43.841 -17.571   3.081  1.00  0.00     0.162 HD
ENDROOT
BRANCH   1  11
HETATM   11  C   UNL     1      42.689 -14.791   3.756  1.00  0.00     0.261 C 
HETATM   12  N   UNL     1      41.678 -13.919   4.109  1.00  0.00    -0.323 N 
HETATM   13  H   UNL     1      41.550 -13.783   5.105  1.00  0.00     0.169 HD
HETATM   14  O   UNL     1      43.136 -14.965   2.629  1.00  0.00    -0.267 OA
BRANCH  12  15
HETATM   15  C   UNL     1      40.849 -13.161   3.259  1.00  0.00     0.035 A 
HETATM   16  C   UNL     1      39.770 -13.694   2.550  1.00  0.00     0.039 A 
HETATM   17  C   UNL     1      38.956 -12.878   1.742  1.00  0.00    -0.028 A 
HETATM   18  C   UNL     1      39.245 -11.509   1.658  1.00  0.00     0.010 A 
HETATM   19  C   UNL     1      40.323 -10.970   2.358  1.00  0.00     0.003 A 
HETATM   20  C   UNL     1      41.119 -11.792   3.157  1.00  0.00     0.029 A 
BRANCH  17  21
HETATM   21  C   UNL     1      37.771 -13.488   1.024  1.00  0.00     0.147 C 
HETATM   22  C   UNL     1      36.847 -12.413   0.466  1.00  0.00     0.044 C 
BRANCH  21  23
HETATM   23  O   UNL     1      38.210 -14.323  -0.047  1.00  0.00    -0.391 OA
HETATM   24  H   UNL     1      37.680 -14.081  -0.826  1.00  0.00     0.210 HD
ENDBRANCH  21  23
ENDBRANCH  17  21
ENDBRANCH  12  15
ENDBRANCH   1  11
BRANCH   4  25
HETATM   25  C   UNL     1      44.057 -18.595   8.170  1.00  0.00     0.409 C 
HETATM   26  F   UNL     1      43.009 -17.813   8.514  1.00  0.00    -0.169 F 
HETATM   27  F   UNL     1      43.599 -19.877   8.168  1.00  0.00    -0.169 F 
HETATM   28  F   UNL     1      44.977 -18.530   9.154  1.00  0.00    -0.169 F 
ENDBRANCH   4  25
BRANCH   6  29
HETATM   29  C   UNL     1      44.367 -20.148   3.443  1.00  0.00     0.005 A 
HETATM   30  S   UNL     1      43.476 -19.916   1.996  1.00  0.00    -0.104 SA
HETATM   31  C   UNL     1      43.655 -21.555   1.544  1.00  0.00     0.050 A 
HETATM   32  C   UNL     1      44.379 -22.270   2.472  1.00  0.00     0.008 A 
HETATM   33  C   UNL     1      44.789 -21.459   3.568  1.00  0.00     0.017 A 
ENDBRANCH   6  29
TORSDOF 6
ENDMDL
