MODEL 1
REMARK VINA RESULT:      -8.4      0.000      0.000
REMARK  9 active torsions:
REMARK  status: ('A' for Active; 'I' for Inactive)
REMARK    1  A    between atoms: C_2  and  C_3 
REMARK    2  A    between atoms: C_6  and  N_7 
REMARK    3  A    between atoms: C_8  and  O_9 
REMARK    4  A    between atoms: C_8  and  C_10 
REMARK       I    between atoms: C_10  and  N_11 
REMARK    5  A    between atoms: N_11  and  C_12 
REMARK    6  A    between atoms: C_12  and  C_13 
REMARK    7  A    between atoms: C_13  and  N_14 
REMARK    8  A    between atoms: N_14  and  C_16 
REMARK    9  A    between atoms: N_14  and  C_18 
ROOT
HETATM    1  N   UNL     1      41.702 -15.794   2.872  1.00  0.00    -0.254 N 
HETATM    2  C   UNL     1      42.300 -14.465   3.040  1.00  0.00     0.256 C 
HETATM    3  C   UNL     1      41.605 -13.686   4.124  1.00  0.00     0.034 A 
HETATM    4  C   UNL     1      40.232 -13.901   4.262  1.00  0.00     0.048 A 
HETATM    5  N   UNL     1      39.628 -14.852   3.436  1.00  0.00    -0.308 N 
HETATM    6  C   UNL     1      40.313 -15.826   2.741  1.00  0.00     0.330 C 
HETATM    7  O   UNL     1      39.660 -16.647   2.101  1.00  0.00    -0.246 OA
HETATM    8  C   UNL     1      42.229 -12.723   4.925  1.00  0.00     0.015 A 
HETATM    9  C   UNL     1      41.481 -11.993   5.847  1.00  0.00     0.001 A 
HETATM   10  C   UNL     1      40.108 -12.209   5.965  1.00  0.00     0.002 A 
HETATM   11  C   UNL     1      39.475 -13.161   5.166  1.00  0.00     0.030 A 
HETATM   12  H   UNL     1      38.628 -15.008   3.499  1.00  0.00     0.170 HD
ENDROOT
BRANCH   2  13
HETATM   13  O   UNL     1      43.703 -14.502   3.287  1.00  0.00    -0.359 OA
HETATM   14  H   UNL     1      43.797 -14.509   4.258  1.00  0.00     0.213 HD
ENDBRANCH   2  13
BRANCH   2  15
HETATM   15  C   UNL     1      42.179 -13.799   1.596  1.00  0.00     0.279 C 
HETATM   16  N   UNL     1      41.772 -14.571   0.526  1.00  0.00    -0.355 N 
HETATM   17  H   UNL     1      41.316 -15.451   0.754  1.00  0.00     0.162 HD
HETATM   18  O   UNL     1      42.588 -12.649   1.387  1.00  0.00    -0.268 OA
BRANCH  16  19
HETATM   19  C   UNL     1      41.482 -14.059  -0.812  1.00  0.00     0.150 C 
BRANCH  19  20
HETATM   20  C   UNL     1      40.690 -14.946  -1.800  1.00  0.00     0.254 C 
BRANCH  20  21
HETATM   21  N   UNL     1      39.189 -14.715  -1.776  1.00  0.00    -0.070 N 
HETATM   22  H   UNL     1      38.833 -15.560  -1.291  1.00  0.00     0.279 HD
BRANCH  21  23
HETATM   23  C   UNL     1      38.710 -13.537  -0.959  1.00  0.00     0.230 C 
HETATM   24  C   UNL     1      37.899 -13.974   0.249  1.00  0.00     0.034 C 
ENDBRANCH  21  23
BRANCH  21  25
HETATM   25  C   UNL     1      38.563 -14.760  -3.157  1.00  0.00     0.230 C 
HETATM   26  C   UNL     1      39.165 -15.872  -3.996  1.00  0.00     0.034 C 
ENDBRANCH  21  25
ENDBRANCH  20  21
ENDBRANCH  19  20
ENDBRANCH  16  19
ENDBRANCH   2  15
BRANCH   1  27
HETATM   27  C   UNL     1      42.483 -16.987   2.779  1.00  0.00     0.043 A 
HETATM   28  C   UNL     1      42.981 -17.454   1.559  1.00  0.00     0.030 A 
HETATM   29  C   UNL     1      43.718 -18.645   1.488  1.00  0.00     0.009 A 
HETATM   30  C   UNL     1      43.953 -19.410   2.635  1.00  0.00    -0.058 A 
HETATM   31  C   UNL     1      43.430 -18.967   3.851  1.00  0.00     0.009 A 
HETATM   32  C   UNL     1      42.702 -17.774   3.919  1.00  0.00     0.030 A 
BRANCH  30  33
HETATM   33  C   UNL     1      44.728 -20.702   2.561  1.00  0.00     0.034 C 
HETATM   34  C   UNL     1      44.016 -21.757   1.725  1.00  0.00     0.010 C 
ENDBRANCH  30  33
ENDBRANCH   1  27
TORSDOF 9
ENDMDL
MODEL 2
REMARK VINA RESULT:      -7.9      2.038      6.003
REMARK  9 active torsions:
REMARK  status: ('A' for Active; 'I' for Inactive)
REMARK    1  A    between atoms: C_2  and  C_3 
REMARK    2  A    between atoms: C_6  and  N_7 
REMARK    3  A    between atoms: C_8  and  O_9 
REMARK    4  A    between atoms: C_8  and  C_10 
REMARK       I    between atoms: C_10  and  N_11 
REMARK    5  A    between atoms: N_11  and  C_12 
REMARK    6  A    between atoms: C_12  and  C_13 
REMARK    7  A    between atoms: C_13  and  N_14 
REMARK    8  A    between atoms: N_14  and  C_16 
REMARK    9  A    between atoms: N_14  and  C_18 
ROOT
HETATM    1  N   UNL     1      42.052 -15.447   2.814  1.00  0.00    -0.254 N 
HETATM    2  C   UNL     1      40.601 -15.291   2.964  1.00  0.00     0.256 C 
HETATM    3  C   UNL     1      40.043 -14.356   1.925  1.00  0.00     0.034 A 
HETATM    4  C   UNL     1      40.864 -13.295   1.537  1.00  0.00     0.048 A 
HETATM    5  N   UNL     1      42.144 -13.217   2.090  1.00  0.00    -0.308 N 
HETATM    6  C   UNL     1      42.786 -14.264   2.717  1.00  0.00     0.330 C 
HETATM    7  O   UNL     1      43.940 -14.088   3.102  1.00  0.00    -0.246 OA
HETATM    8  C   UNL     1      38.748 -14.445   1.401  1.00  0.00     0.015 A 
HETATM    9  C   UNL     1      38.292 -13.479   0.504  1.00  0.00     0.001 A 
HETATM   10  C   UNL     1      39.118 -12.418   0.136  1.00  0.00     0.002 A 
HETATM   11  C   UNL     1      40.408 -12.317   0.658  1.00  0.00     0.030 A 
HETATM   12  H   UNL     1      42.750 -12.442   1.845  1.00  0.00     0.170 HD
ENDROOT
BRANCH   2  13
HETATM   13  O   UNL     1      39.893 -16.528   2.939  1.00  0.00    -0.359 OA
HETATM   14  H   UNL     1      38.959 -16.291   2.788  1.00  0.00     0.213 HD
ENDBRANCH   2  13
BRANCH   2  15
HETATM   15  C   UNL     1      40.417 -14.769   4.458  1.00  0.00     0.279 C 
HETATM   16  N   UNL     1      39.831 -13.538   4.679  1.00  0.00    -0.355 N 
HETATM   17  H   UNL     1      39.308 -13.144   3.902  1.00  0.00     0.162 HD
HETATM   18  O   UNL     1      40.925 -15.374   5.412  1.00  0.00    -0.268 OA
BRANCH  16  19
HETATM   19  C   UNL     1      39.473 -13.006   5.992  1.00  0.00     0.150 C 
BRANCH  19  20
HETATM   20  C   UNL     1      39.939 -11.583   6.377  1.00  0.00     0.254 C 
BRANCH  20  21
HETATM   21  N   UNL     1      40.650 -11.502   7.717  1.00  0.00    -0.070 N 
HETATM   22  H   UNL     1      40.811 -12.498   7.953  1.00  0.00     0.279 HD
BRANCH  21  23
HETATM   23  C   UNL     1      42.016 -10.854   7.706  1.00  0.00     0.230 C 
HETATM   24  C   UNL     1      42.567 -10.663   9.108  1.00  0.00     0.034 C 
ENDBRANCH  21  23
BRANCH  21  25
HETATM   25  C   UNL     1      39.762 -10.970   8.825  1.00  0.00     0.230 C 
HETATM   26  C   UNL     1      39.046  -9.703   8.395  1.00  0.00     0.034 C 
ENDBRANCH  21  25
ENDBRANCH  20  21
ENDBRANCH  19  20
ENDBRANCH  16  19
ENDBRANCH   2  15
BRANCH   1  27
HETATM   27  C   UNL     1      42.699 -16.721   2.834  1.00  0.00     0.043 A 
HETATM   28  C   UNL     1      43.237 -17.262   4.006  1.00  0.00     0.030 A 
HETATM   29  C   UNL     1      43.896 -18.500   3.994  1.00  0.00     0.009 A 
HETATM   30  C   UNL     1      44.053 -19.215   2.802  1.00  0.00    -0.058 A 
HETATM   31  C   UNL     1      43.548 -18.665   1.623  1.00  0.00     0.009 A 
HETATM   32  C   UNL     1      42.885 -17.434   1.640  1.00  0.00     0.030 A 
BRANCH  30  33
HETATM   33  C   UNL     1      44.778 -20.537   2.781  1.00  0.00     0.034 C 
HETATM   34  C   UNL     1      44.092 -21.559   1.885  1.00  0.00     0.010 C 
ENDBRANCH  30  33
ENDBRANCH   1  27
TORSDOF 9
ENDMDL
MODEL 3
REMARK VINA RESULT:      -7.8      1.064      1.917
REMARK  9 active torsions:
REMARK  status: ('A' for Active; 'I' for Inactive)
REMARK    1  A    between atoms: C_2  and  C_3 
REMARK    2  A    between atoms: C_6  and  N_7 
REMARK    3  A    between atoms: C_8  and  O_9 
REMARK    4  A    between atoms: C_8  and  C_10 
REMARK       I    between atoms: C_10  and  N_11 
REMARK    5  A    between atoms: N_11  and  C_12 
REMARK    6  A    between atoms: C_12  and  C_13 
REMARK    7  A    between atoms: C_13  and  N_14 
REMARK    8  A    between atoms: N_14  and  C_16 
REMARK    9  A    between atoms: N_14  and  C_18 
ROOT
HETATM    1  N   UNL     1      41.637 -16.009   2.740  1.00  0.00    -0.254 N 
HETATM    2  C   UNL     1      42.278 -14.691   2.701  1.00  0.00     0.256 C 
HETATM    3  C   UNL     1      41.627 -13.739   3.668  1.00  0.00     0.034 A 
HETATM    4  C   UNL     1      40.251 -13.886   3.856  1.00  0.00     0.048 A 
HETATM    5  N   UNL     1      39.604 -14.927   3.188  1.00  0.00    -0.308 N 
HETATM    6  C   UNL     1      40.246 -16.015   2.634  1.00  0.00     0.330 C 
HETATM    7  O   UNL     1      39.556 -16.900   2.132  1.00  0.00    -0.246 OA
HETATM    8  C   UNL     1      42.296 -12.689   4.309  1.00  0.00     0.015 A 
HETATM    9  C   UNL     1      41.587 -11.807   5.123  1.00  0.00     0.001 A 
HETATM   10  C   UNL     1      40.211 -11.958   5.291  1.00  0.00     0.002 A 
HETATM   11  C   UNL     1      39.535 -12.996   4.651  1.00  0.00     0.030 A 
HETATM   12  H   UNL     1      38.601 -15.040   3.287  1.00  0.00     0.170 HD
ENDROOT
BRANCH   2  13
HETATM   13  O   UNL     1      43.683 -14.737   2.932  1.00  0.00    -0.359 OA
HETATM   14  H   UNL     1      43.968 -13.806   3.001  1.00  0.00     0.213 HD
ENDBRANCH   2  13
BRANCH   2  15
HETATM   15  C   UNL     1      42.151 -14.241   1.177  1.00  0.00     0.279 C 
HETATM   16  N   UNL     1      42.013 -12.900   0.875  1.00  0.00    -0.355 N 
HETATM   17  H   UNL     1      42.266 -12.246   1.612  1.00  0.00     0.162 HD
HETATM   18  O   UNL     1      42.018 -15.077   0.273  1.00  0.00    -0.268 OA
BRANCH  16  19
HETATM   19  C   UNL     1      42.031 -12.340  -0.475  1.00  0.00     0.150 C 
BRANCH  19  20
HETATM   20  C   UNL     1      40.689 -12.034  -1.177  1.00  0.00     0.254 C 
BRANCH  20  21
HETATM   21  N   UNL     1      40.276 -13.069  -2.210  1.00  0.00    -0.070 N 
HETATM   22  H   UNL     1      39.757 -12.504  -2.908  1.00  0.00     0.279 HD
BRANCH  21  23
HETATM   23  C   UNL     1      41.401 -13.734  -2.970  1.00  0.00     0.230 C 
HETATM   24  C   UNL     1      41.177 -15.228  -3.126  1.00  0.00     0.034 C 
ENDBRANCH  21  23
BRANCH  21  25
HETATM   25  C   UNL     1      39.265 -14.064  -1.676  1.00  0.00     0.230 C 
HETATM   26  C   UNL     1      38.636 -13.569  -0.386  1.00  0.00     0.034 C 
ENDBRANCH  21  25
ENDBRANCH  20  21
ENDBRANCH  19  20
ENDBRANCH  16  19
ENDBRANCH   2  15
BRANCH   1  27
HETATM   27  C   UNL     1      42.379 -17.228   2.814  1.00  0.00     0.043 A 
HETATM   28  C   UNL     1      42.791 -17.774   4.034  1.00  0.00     0.030 A 
HETATM   29  C   UNL     1      43.547 -18.955   4.079  1.00  0.00     0.009 A 
HETATM   30  C   UNL     1      43.929 -19.604   2.901  1.00  0.00    -0.058 A 
HETATM   31  C   UNL     1      43.551 -19.046   1.678  1.00  0.00     0.009 A 
HETATM   32  C   UNL     1      42.790 -17.873   1.638  1.00  0.00     0.030 A 
BRANCH  30  33
HETATM   33  C   UNL     1      44.758 -20.863   2.944  1.00  0.00     0.034 C 
HETATM   34  C   UNL     1      44.327 -21.876   1.892  1.00  0.00     0.010 C 
ENDBRANCH  30  33
ENDBRANCH   1  27
TORSDOF 9
ENDMDL
MODEL 4
REMARK VINA RESULT:      -7.5      1.813      5.646
REMARK  9 active torsions:
REMARK  status: ('A' for Active; 'I' for Inactive)
REMARK    1  A    between atoms: C_2  and  C_3 
REMARK    2  A    between atoms: C_6  and  N_7 
REMARK    3  A    between atoms: C_8  and  O_9 
REMARK    4  A    between atoms: C_8  and  C_10 
REMARK       I    between atoms: C_10  and  N_11 
REMARK    5  A    between atoms: N_11  and  C_12 
REMARK    6  A    between atoms: C_12  and  C_13 
REMARK    7  A    between atoms: C_13  and  N_14 
REMARK    8  A    between atoms: N_14  and  C_16 
REMARK    9  A    between atoms: N_14  and  C_18 
ROOT
HETATM    1  N   UNL     1      42.093 -15.407   1.825  1.00  0.00    -0.254 N 
HETATM    2  C   UNL     1      40.679 -15.248   1.470  1.00  0.00     0.256 C 
HETATM    3  C   UNL     1      40.507 -14.264   0.345  1.00  0.00     0.034 A 
HETATM    4  C   UNL     1      41.402 -13.192   0.313  1.00  0.00     0.048 A 
HETATM    5  N   UNL     1      42.410 -13.148   1.278  1.00  0.00    -0.308 N 
HETATM    6  C   UNL     1      42.805 -14.227   2.041  1.00  0.00     0.330 C 
HETATM    7  O   UNL     1      43.752 -14.076   2.809  1.00  0.00    -0.246 OA
HETATM    8  C   UNL     1      39.474 -14.319  -0.598  1.00  0.00     0.015 A 
HETATM    9  C   UNL     1      39.348 -13.311  -1.553  1.00  0.00     0.001 A 
HETATM   10  C   UNL     1      40.241 -12.240  -1.565  1.00  0.00     0.002 A 
HETATM   11  C   UNL     1      41.270 -12.172  -0.625  1.00  0.00     0.030 A 
HETATM   12  H   UNL     1      43.057 -12.367   1.293  1.00  0.00     0.170 HD
ENDROOT
BRANCH   2  13
HETATM   13  O   UNL     1      40.035 -16.478   1.146  1.00  0.00    -0.359 OA
HETATM   14  H   UNL     1      40.497 -16.815   0.356  1.00  0.00     0.213 HD
ENDBRANCH   2  13
BRANCH   2  15
HETATM   15  C   UNL     1      39.984 -14.793   2.830  1.00  0.00     0.279 C 
HETATM   16  N   UNL     1      40.337 -15.414   4.012  1.00  0.00    -0.355 N 
HETATM   17  H   UNL     1      41.207 -15.941   4.000  1.00  0.00     0.162 HD
HETATM   18  O   UNL     1      39.029 -14.006   2.826  1.00  0.00    -0.268 OA
BRANCH  16  19
HETATM   19  C   UNL     1      39.888 -15.002   5.340  1.00  0.00     0.150 C 
BRANCH  19  20
HETATM   20  C   UNL     1      40.919 -14.417   6.333  1.00  0.00     0.254 C 
BRANCH  20  21
HETATM   21  N   UNL     1      42.022 -15.385   6.727  1.00  0.00    -0.070 N 
HETATM   22  H   UNL     1      42.208 -15.132   7.715  1.00  0.00     0.279 HD
BRANCH  21  23
HETATM   23  C   UNL     1      41.648 -16.849   6.739  1.00  0.00     0.230 C 
HETATM   24  C   UNL     1      42.811 -17.730   7.160  1.00  0.00     0.034 C 
ENDBRANCH  21  23
BRANCH  21  25
HETATM   25  C   UNL     1      43.325 -15.122   5.999  1.00  0.00     0.230 C 
HETATM   26  C   UNL     1      44.349 -14.484   6.920  1.00  0.00     0.034 C 
ENDBRANCH  21  25
ENDBRANCH  20  21
ENDBRANCH  19  20
ENDBRANCH  16  19
ENDBRANCH   2  15
BRANCH   1  27
HETATM   27  C   UNL     1      42.705 -16.686   2.010  1.00  0.00     0.043 A 
HETATM   28  C   UNL     1      43.324 -17.372   0.960  1.00  0.00     0.030 A 
HETATM   29  C   UNL     1      43.889 -18.640   1.159  1.00  0.00     0.009 A 
HETATM   30  C   UNL     1      43.826 -19.262   2.410  1.00  0.00    -0.058 A 
HETATM   31  C   UNL     1      43.181 -18.597   3.454  1.00  0.00     0.009 A 
HETATM   32  C   UNL     1      42.626 -17.329   3.254  1.00  0.00     0.030 A 
BRANCH  30  33
HETATM   33  C   UNL     1      44.415 -20.634   2.624  1.00  0.00     0.034 C 
HETATM   34  C   UNL     1      43.846 -21.665   1.659  1.00  0.00     0.010 C 
ENDBRANCH  30  33
ENDBRANCH   1  27
TORSDOF 9
ENDMDL
MODEL 5
REMARK VINA RESULT:      -7.5      1.332      1.940
REMARK  9 active torsions:
REMARK  status: ('A' for Active; 'I' for Inactive)
REMARK    1  A    between atoms: C_2  and  C_3 
REMARK    2  A    between atoms: C_6  and  N_7 
REMARK    3  A    between atoms: C_8  and  O_9 
REMARK    4  A    between atoms: C_8  and  C_10 
REMARK       I    between atoms: C_10  and  N_11 
REMARK    5  A    between atoms: N_11  and  C_12 
REMARK    6  A    between atoms: C_12  and  C_13 
REMARK    7  A    between atoms: C_13  and  N_14 
REMARK    8  A    between atoms: N_14  and  C_16 
REMARK    9  A    between atoms: N_14  and  C_18 
ROOT
HETATM    1  N   UNL     1      41.761 -15.862   2.964  1.00  0.00    -0.254 N 
HETATM    2  C   UNL     1      42.339 -14.522   3.116  1.00  0.00     0.256 C 
HETATM    3  C   UNL     1      41.589 -13.717   4.142  1.00  0.00     0.034 A 
HETATM    4  C   UNL     1      40.213 -13.942   4.226  1.00  0.00     0.048 A 
HETATM    5  N   UNL     1      39.656 -14.923   3.404  1.00  0.00    -0.308 N 
HETATM    6  C   UNL     1      40.380 -15.912   2.771  1.00  0.00     0.330 C 
HETATM    7  O   UNL     1      39.764 -16.759   2.129  1.00  0.00    -0.246 OA
HETATM    8  C   UNL     1      42.169 -12.723   4.940  1.00  0.00     0.015 A 
HETATM    9  C   UNL     1      41.373 -11.971   5.803  1.00  0.00     0.001 A 
HETATM   10  C   UNL     1      39.998 -12.197   5.866  1.00  0.00     0.002 A 
HETATM   11  C   UNL     1      39.410 -13.181   5.070  1.00  0.00     0.030 A 
HETATM   12  H   UNL     1      38.655 -15.088   3.426  1.00  0.00     0.170 HD
ENDROOT
BRANCH   2  13
HETATM   13  O   UNL     1      43.730 -14.537   3.428  1.00  0.00    -0.359 OA
HETATM   14  H   UNL     1      43.788 -14.313   4.375  1.00  0.00     0.213 HD
ENDBRANCH   2  13
BRANCH   2  15
HETATM   15  C   UNL     1      42.278 -13.903   1.648  1.00  0.00     0.279 C 
HETATM   16  N   UNL     1      42.023 -12.555   1.492  1.00  0.00    -0.355 N 
HETATM   17  H   UNL     1      42.149 -11.975   2.317  1.00  0.00     0.162 HD
HETATM   18  O   UNL     1      42.303 -14.631   0.647  1.00  0.00    -0.268 OA
BRANCH  16  19
HETATM   19  C   UNL     1      42.081 -11.835   0.221  1.00  0.00     0.150 C 
BRANCH  19  20
HETATM   20  C   UNL     1      41.092 -12.215  -0.903  1.00  0.00     0.254 C 
BRANCH  20  21
HETATM   21  N   UNL     1      41.545 -13.383  -1.763  1.00  0.00    -0.070 N 
HETATM   22  H   UNL     1      42.033 -13.995  -1.082  1.00  0.00     0.279 HD
BRANCH  21  23
HETATM   23  C   UNL     1      40.448 -14.230  -2.367  1.00  0.00     0.230 C 
HETATM   24  C   UNL     1      40.984 -15.527  -2.947  1.00  0.00     0.034 C 
ENDBRANCH  21  23
BRANCH  21  25
HETATM   25  C   UNL     1      42.606 -12.994  -2.774  1.00  0.00     0.230 C 
HETATM   26  C   UNL     1      42.158 -11.809  -3.610  1.00  0.00     0.034 C 
ENDBRANCH  21  25
ENDBRANCH  20  21
ENDBRANCH  19  20
ENDBRANCH  16  19
ENDBRANCH   2  15
BRANCH   1  27
HETATM   27  C   UNL     1      42.556 -17.049   2.945  1.00  0.00     0.043 A 
HETATM   28  C   UNL     1      43.067 -17.580   1.756  1.00  0.00     0.030 A 
HETATM   29  C   UNL     1      43.817 -18.765   1.758  1.00  0.00     0.009 A 
HETATM   30  C   UNL     1      44.053 -19.460   2.949  1.00  0.00    -0.058 A 
HETATM   31  C   UNL     1      43.517 -18.954   4.134  1.00  0.00     0.009 A 
HETATM   32  C   UNL     1      42.776 -17.767   4.129  1.00  0.00     0.030 A 
BRANCH  30  33
HETATM   33  C   UNL     1      44.843 -20.745   2.953  1.00  0.00     0.034 C 
HETATM   34  C   UNL     1      44.856 -21.411   4.322  1.00  0.00     0.010 C 
ENDBRANCH  30  33
ENDBRANCH   1  27
TORSDOF 9
ENDMDL
MODEL 6
REMARK VINA RESULT:      -7.4      1.632      5.571
REMARK  9 active torsions:
REMARK  status: ('A' for Active; 'I' for Inactive)
REMARK    1  A    between atoms: C_2  and  C_3 
REMARK    2  A    between atoms: C_6  and  N_7 
REMARK    3  A    between atoms: C_8  and  O_9 
REMARK    4  A    between atoms: C_8  and  C_10 
REMARK       I    between atoms: C_10  and  N_11 
REMARK    5  A    between atoms: N_11  and  C_12 
REMARK    6  A    between atoms: C_12  and  C_13 
REMARK    7  A    between atoms: C_13  and  N_14 
REMARK    8  A    between atoms: N_14  and  C_16 
REMARK    9  A    between atoms: N_14  and  C_18 
ROOT
HETATM    1  N   UNL     1      41.839 -14.947   1.878  1.00  0.00    -0.254 N 
HETATM    2  C   UNL     1      40.424 -14.766   1.533  1.00  0.00     0.256 C 
HETATM    3  C   UNL     1      40.264 -13.847   0.353  1.00  0.00     0.034 A 
HETATM    4  C   UNL     1      41.190 -12.807   0.243  1.00  0.00     0.048 A 
HETATM    5  N   UNL     1      42.214 -12.735   1.190  1.00  0.00    -0.308 N 
HETATM    6  C   UNL     1      42.588 -13.778   2.012  1.00  0.00     0.330 C 
HETATM    7  O   UNL     1      43.552 -13.610   2.756  1.00  0.00    -0.246 OA
HETATM    8  C   UNL     1      39.215 -13.928  -0.571  1.00  0.00     0.015 A 
HETATM    9  C   UNL     1      39.104 -12.976  -1.584  1.00  0.00     0.001 A 
HETATM   10  C   UNL     1      40.029 -11.935  -1.673  1.00  0.00     0.002 A 
HETATM   11  C   UNL     1      41.073 -11.843  -0.753  1.00  0.00     0.030 A 
HETATM   12  H   UNL     1      42.883 -11.975   1.148  1.00  0.00     0.170 HD
ENDROOT
BRANCH   2  13
HETATM   13  O   UNL     1      39.739 -15.993   1.294  1.00  0.00    -0.359 OA
HETATM   14  H   UNL     1      40.292 -16.482   0.658  1.00  0.00     0.213 HD
ENDBRANCH   2  13
BRANCH   2  15
HETATM   15  C   UNL     1      39.765 -14.208   2.873  1.00  0.00     0.279 C 
HETATM   16  N   UNL     1      39.923 -14.913   4.050  1.00  0.00    -0.355 N 
HETATM   17  H   UNL     1      40.668 -15.604   4.063  1.00  0.00     0.162 HD
HETATM   18  O   UNL     1      38.988 -13.244   2.849  1.00  0.00    -0.268 OA
BRANCH  16  19
HETATM   19  C   UNL     1      39.497 -14.446   5.368  1.00  0.00     0.150 C 
BRANCH  19  20
HETATM   20  C   UNL     1      40.571 -14.071   6.415  1.00  0.00     0.254 C 
BRANCH  20  21
HETATM   21  N   UNL     1      40.895 -12.588   6.470  1.00  0.00    -0.070 N 
HETATM   22  H   UNL     1      41.424 -12.500   7.357  1.00  0.00     0.279 HD
BRANCH  21  23
HETATM   23  C   UNL     1      41.814 -12.067   5.388  1.00  0.00     0.230 C 
HETATM   24  C   UNL     1      41.131 -11.034   4.509  1.00  0.00     0.034 C 
ENDBRANCH  21  23
BRANCH  21  25
HETATM   25  C   UNL     1      39.665 -11.721   6.656  1.00  0.00     0.230 C 
HETATM   26  C   UNL     1      39.433 -11.406   8.123  1.00  0.00     0.034 C 
ENDBRANCH  21  25
ENDBRANCH  20  21
ENDBRANCH  19  20
ENDBRANCH  16  19
ENDBRANCH   2  15
BRANCH   1  27
HETATM   27  C   UNL     1      42.415 -16.230   2.133  1.00  0.00     0.043 A 
HETATM   28  C   UNL     1      42.453 -16.784   3.417  1.00  0.00     0.030 A 
HETATM   29  C   UNL     1      43.053 -18.031   3.647  1.00  0.00     0.009 A 
HETATM   30  C   UNL     1      43.650 -18.741   2.601  1.00  0.00    -0.058 A 
HETATM   31  C   UNL     1      43.645 -18.178   1.324  1.00  0.00     0.009 A 
HETATM   32  C   UNL     1      43.039 -16.938   1.096  1.00  0.00     0.030 A 
BRANCH  30  33
HETATM   33  C   UNL     1      44.313 -20.073   2.848  1.00  0.00     0.034 C 
HETATM   34  C   UNL     1      43.816 -21.153   1.896  1.00  0.00     0.010 C 
ENDBRANCH  30  33
ENDBRANCH   1  27
TORSDOF 9
ENDMDL
MODEL 7
REMARK VINA RESULT:      -7.4      3.015      6.962
REMARK  9 active torsions:
REMARK  status: ('A' for Active; 'I' for Inactive)
REMARK    1  A    between atoms: C_2  and  C_3 
REMARK    2  A    between atoms: C_6  and  N_7 
REMARK    3  A    between atoms: C_8  and  O_9 
REMARK    4  A    between atoms: C_8  and  C_10 
REMARK       I    between atoms: C_10  and  N_11 
REMARK    5  A    between atoms: N_11  and  C_12 
REMARK    6  A    between atoms: C_12  and  C_13 
REMARK    7  A    between atoms: C_13  and  N_14 
REMARK    8  A    between atoms: N_14  and  C_16 
REMARK    9  A    between atoms: N_14  and  C_18 
ROOT
HETATM    1  N   UNL     1      42.203 -14.610   4.127  1.00  0.00    -0.254 N 
HETATM    2  C   UNL     1      40.780 -14.257   4.076  1.00  0.00     0.256 C 
HETATM    3  C   UNL     1      40.282 -14.202   2.657  1.00  0.00     0.034 A 
HETATM    4  C   UNL     1      41.190 -13.752   1.696  1.00  0.00     0.048 A 
HETATM    5  N   UNL     1      42.489 -13.449   2.109  1.00  0.00    -0.308 N 
HETATM    6  C   UNL     1      43.046 -13.869   3.298  1.00  0.00     0.330 C 
HETATM    7  O   UNL     1      44.223 -13.592   3.515  1.00  0.00    -0.246 OA
HETATM    8  C   UNL     1      38.968 -14.492   2.272  1.00  0.00     0.015 A 
HETATM    9  C   UNL     1      38.580 -14.330   0.943  1.00  0.00     0.001 A 
HETATM   10  C   UNL     1      39.493 -13.867  -0.004  1.00  0.00     0.002 A 
HETATM   11  C   UNL     1      40.804 -13.569   0.371  1.00  0.00     0.030 A 
HETATM   12  H   UNL     1      43.160 -13.095   1.435  1.00  0.00     0.170 HD
ENDROOT
BRANCH   2  13
HETATM   13  O   UNL     1      39.954 -15.122   4.851  1.00  0.00    -0.359 OA
HETATM   14  H   UNL     1      40.443 -15.276   5.681  1.00  0.00     0.213 HD
ENDBRANCH   2  13
BRANCH   2  15
HETATM   15  C   UNL     1      40.698 -12.859   4.837  1.00  0.00     0.279 C 
HETATM   16  N   UNL     1      40.550 -12.843   6.210  1.00  0.00    -0.355 N 
HETATM   17  H   UNL     1      40.767 -13.710   6.696  1.00  0.00     0.162 HD
HETATM   18  O   UNL     1      40.610 -11.795   4.210  1.00  0.00    -0.268 OA
BRANCH  16  19
HETATM   19  C   UNL     1      40.605 -11.643   7.043  1.00  0.00     0.150 C 
BRANCH  19  20
HETATM   20  C   UNL     1      41.984 -11.071   7.445  1.00  0.00     0.254 C 
BRANCH  20  21
HETATM   21  N   UNL     1      42.371 -11.335   8.890  1.00  0.00    -0.070 N 
HETATM   22  H   UNL     1      42.103 -12.327   9.023  1.00  0.00     0.279 HD
BRANCH  21  23
HETATM   23  C   UNL     1      43.846 -11.258   9.208  1.00  0.00     0.230 C 
HETATM   24  C   UNL     1      44.581 -12.528   8.814  1.00  0.00     0.034 C 
ENDBRANCH  21  23
BRANCH  21  25
HETATM   25  C   UNL     1      41.520 -10.561   9.879  1.00  0.00     0.230 C 
HETATM   26  C   UNL     1      41.834 -10.968  11.307  1.00  0.00     0.034 C 
ENDBRANCH  21  25
ENDBRANCH  20  21
ENDBRANCH  19  20
ENDBRANCH  16  19
ENDBRANCH   2  15
BRANCH   1  27
HETATM   27  C   UNL     1      42.722 -15.603   5.015  1.00  0.00     0.043 A 
HETATM   28  C   UNL     1      42.796 -16.953   4.656  1.00  0.00     0.030 A 
HETATM   29  C   UNL     1      43.279 -17.914   5.556  1.00  0.00     0.009 A 
HETATM   30  C   UNL     1      43.677 -17.549   6.846  1.00  0.00    -0.058 A 
HETATM   31  C   UNL     1      43.574 -16.208   7.222  1.00  0.00     0.009 A 
HETATM   32  C   UNL     1      43.099 -15.252   6.319  1.00  0.00     0.030 A 
BRANCH  30  33
HETATM   33  C   UNL     1      44.179 -18.581   7.824  1.00  0.00     0.034 C 
HETATM   34  C   UNL     1      43.718 -19.988   7.469  1.00  0.00     0.010 C 
ENDBRANCH  30  33
ENDBRANCH   1  27
TORSDOF 9
ENDMDL
MODEL 8
REMARK VINA RESULT:      -7.2      1.648      6.172
REMARK  9 active torsions:
REMARK  status: ('A' for Active; 'I' for Inactive)
REMARK    1  A    between atoms: C_2  and  C_3 
REMARK    2  A    between atoms: C_6  and  N_7 
REMARK    3  A    between atoms: C_8  and  O_9 
REMARK    4  A    between atoms: C_8  and  C_10 
REMARK       I    between atoms: C_10  and  N_11 
REMARK    5  A    between atoms: N_11  and  C_12 
REMARK    6  A    between atoms: C_12  and  C_13 
REMARK    7  A    between atoms: C_13  and  N_14 
REMARK    8  A    between atoms: N_14  and  C_16 
REMARK    9  A    between atoms: N_14  and  C_18 
ROOT
HETATM    1  N   UNL     1      41.475 -13.959   3.763  1.00  0.00    -0.254 N 
HETATM    2  C   UNL     1      40.748 -15.226   3.900  1.00  0.00     0.256 C 
HETATM    3  C   UNL     1      41.692 -16.373   4.137  1.00  0.00     0.034 A 
HETATM    4  C   UNL     1      42.935 -16.298   3.503  1.00  0.00     0.048 A 
HETATM    5  N   UNL     1      43.224 -15.155   2.756  1.00  0.00    -0.308 N 
HETATM    6  C   UNL     1      42.541 -13.961   2.864  1.00  0.00     0.330 C 
HETATM    7  O   UNL     1      42.937 -13.006   2.200  1.00  0.00    -0.246 OA
HETATM    8  C   UNL     1      41.370 -17.519   4.874  1.00  0.00     0.015 A 
HETATM    9  C   UNL     1      42.284 -18.568   4.966  1.00  0.00     0.001 A 
HETATM   10  C   UNL     1      43.515 -18.485   4.317  1.00  0.00     0.002 A 
HETATM   11  C   UNL     1      43.843 -17.350   3.575  1.00  0.00     0.030 A 
HETATM   12  H   UNL     1      44.108 -15.087   2.264  1.00  0.00     0.170 HD
ENDROOT
BRANCH   2  13
HETATM   13  O   UNL     1      39.748 -15.198   4.915  1.00  0.00    -0.359 OA
HETATM   14  H   UNL     1      40.069 -14.562   5.582  1.00  0.00     0.213 HD
ENDBRANCH   2  13
BRANCH   2  15
HETATM   15  C   UNL     1      39.920 -15.349   2.544  1.00  0.00     0.279 C 
HETATM   16  N   UNL     1      38.990 -14.378   2.228  1.00  0.00    -0.355 N 
HETATM   17  H   UNL     1      39.066 -13.501   2.736  1.00  0.00     0.162 HD
HETATM   18  O   UNL     1      39.983 -16.371   1.848  1.00  0.00    -0.268 OA
BRANCH  16  19
HETATM   19  C   UNL     1      38.270 -14.291   0.959  1.00  0.00     0.150 C 
BRANCH  19  20
HETATM   20  C   UNL     1      38.974 -13.657  -0.262  1.00  0.00     0.254 C 
BRANCH  20  21
HETATM   21  N   UNL     1      39.884 -14.609  -1.019  1.00  0.00    -0.070 N 
HETATM   22  H   UNL     1      39.641 -15.532  -0.615  1.00  0.00     0.279 HD
BRANCH  21  23
HETATM   23  C   UNL     1      39.631 -14.729  -2.505  1.00  0.00     0.230 C 
HETATM   24  C   UNL     1      40.407 -15.879  -3.123  1.00  0.00     0.034 C 
ENDBRANCH  21  23
BRANCH  21  25
HETATM   25  C   UNL     1      41.351 -14.408  -0.692  1.00  0.00     0.230 C 
HETATM   26  C   UNL     1      41.835 -13.047  -1.157  1.00  0.00     0.034 C 
ENDBRANCH  21  25
ENDBRANCH  20  21
ENDBRANCH  19  20
ENDBRANCH  16  19
ENDBRANCH   2  15
BRANCH   1  27
HETATM   27  C   UNL     1      41.086 -12.767   4.449  1.00  0.00     0.043 A 
HETATM   28  C   UNL     1      41.583 -12.443   5.716  1.00  0.00     0.030 A 
HETATM   29  C   UNL     1      41.162 -11.284   6.383  1.00  0.00     0.009 A 
HETATM   30  C   UNL     1      40.214 -10.432   5.807  1.00  0.00    -0.058 A 
HETATM   31  C   UNL     1      39.688 -10.766   4.557  1.00  0.00     0.009 A 
HETATM   32  C   UNL     1      40.117 -11.919   3.892  1.00  0.00     0.030 A 
BRANCH  30  33
HETATM   33  C   UNL     1      39.744  -9.194   6.529  1.00  0.00     0.034 C 
HETATM   34  C   UNL     1      39.239  -9.499   7.933  1.00  0.00     0.010 C 
ENDBRANCH  30  33
ENDBRANCH   1  27
TORSDOF 9
ENDMDL
MODEL 9
REMARK VINA RESULT:      -7.1      1.816      6.901
REMARK  9 active torsions:
REMARK  status: ('A' for Active; 'I' for Inactive)
REMARK    1  A    between atoms: C_2  and  C_3 
REMARK    2  A    between atoms: C_6  and  N_7 
REMARK    3  A    between atoms: C_8  and  O_9 
REMARK    4  A    between atoms: C_8  and  C_10 
REMARK       I    between atoms: C_10  and  N_11 
REMARK    5  A    between atoms: N_11  and  C_12 
REMARK    6  A    between atoms: C_12  and  C_13 
REMARK    7  A    between atoms: C_13  and  N_14 
REMARK    8  A    between atoms: N_14  and  C_16 
REMARK    9  A    between atoms: N_14  and  C_18 
ROOT
HETATM    1  N   UNL     1      40.066 -13.921   1.585  1.00  0.00    -0.254 N 
HETATM    2  C   UNL     1      41.362 -14.003   0.904  1.00  0.00     0.256 C 
HETATM    3  C   UNL     1      41.312 -13.341  -0.446  1.00  0.00     0.034 A 
HETATM    4  C   UNL     1      40.105 -13.436  -1.142  1.00  0.00     0.048 A 
HETATM    5  N   UNL     1      39.034 -14.077  -0.516  1.00  0.00    -0.308 N 
HETATM    6  C   UNL     1      38.958 -14.323   0.839  1.00  0.00     0.330 C 
HETATM    7  O   UNL     1      37.930 -14.834   1.277  1.00  0.00    -0.246 OA
HETATM    8  C   UNL     1      42.407 -12.722  -1.060  1.00  0.00     0.015 A 
HETATM    9  C   UNL     1      42.284 -12.211  -2.352  1.00  0.00     0.001 A 
HETATM   10  C   UNL     1      41.076 -12.324  -3.040  1.00  0.00     0.002 A 
HETATM   11  C   UNL     1      39.981 -12.945  -2.438  1.00  0.00     0.030 A 
HETATM   12  H   UNL     1      38.154 -14.182  -1.010  1.00  0.00     0.170 HD
ENDROOT
BRANCH   2  13
HETATM   13  O   UNL     1      42.439 -13.471   1.670  1.00  0.00    -0.359 OA
HETATM   14  H   UNL     1      43.105 -13.180   1.019  1.00  0.00     0.213 HD
ENDBRANCH   2  13
BRANCH   2  15
HETATM   15  C   UNL     1      41.669 -15.566   0.839  1.00  0.00     0.279 C 
HETATM   16  N   UNL     1      42.259 -16.186   1.923  1.00  0.00    -0.355 N 
HETATM   17  H   UNL     1      42.226 -15.679   2.803  1.00  0.00     0.162 HD
HETATM   18  O   UNL     1      41.532 -16.200  -0.216  1.00  0.00    -0.268 OA
BRANCH  16  19
HETATM   19  C   UNL     1      42.464 -17.628   2.053  1.00  0.00     0.150 C 
BRANCH  19  20
HETATM   20  C   UNL     1      43.867 -18.215   1.777  1.00  0.00     0.254 C 
BRANCH  20  21
HETATM   21  N   UNL     1      44.144 -19.526   2.493  1.00  0.00    -0.070 N 
HETATM   22  H   UNL     1      45.118 -19.740   2.211  1.00  0.00     0.279 HD
BRANCH  21  23
HETATM   23  C   UNL     1      44.153 -19.470   4.003  1.00  0.00     0.230 C 
HETATM   24  C   UNL     1      45.147 -20.449   4.604  1.00  0.00     0.034 C 
ENDBRANCH  21  23
BRANCH  21  25
HETATM   25  C   UNL     1      43.315 -20.677   1.957  1.00  0.00     0.230 C 
HETATM   26  C   UNL     1      44.197 -21.842   1.544  1.00  0.00     0.034 C 
ENDBRANCH  21  25
ENDBRANCH  20  21
ENDBRANCH  19  20
ENDBRANCH  16  19
ENDBRANCH   2  15
BRANCH   1  27
HETATM   27  C   UNL     1      39.934 -13.521   2.951  1.00  0.00     0.043 A 
HETATM   28  C   UNL     1      40.033 -14.435   4.005  1.00  0.00     0.030 A 
HETATM   29  C   UNL     1      39.867 -14.024   5.335  1.00  0.00     0.009 A 
HETATM   30  C   UNL     1      39.575 -12.691   5.641  1.00  0.00    -0.058 A 
HETATM   31  C   UNL     1      39.441 -11.780   4.592  1.00  0.00     0.009 A 
HETATM   32  C   UNL     1      39.615 -12.192   3.267  1.00  0.00     0.030 A 
BRANCH  30  33
HETATM   33  C   UNL     1      39.377 -12.249   7.069  1.00  0.00     0.034 C 
HETATM   34  C   UNL     1      40.153 -10.980   7.394  1.00  0.00     0.010 C 
ENDBRANCH  30  33
ENDBRANCH   1  27
TORSDOF 9
ENDMDL
MODEL 10
REMARK VINA RESULT:      -7.0      2.336      4.750
REMARK  9 active torsions:
REMARK  status: ('A' for Active; 'I' for Inactive)
REMARK    1  A    between atoms: C_2  and  C_3 
REMARK    2  A    between atoms: C_6  and  N_7 
REMARK    3  A    between atoms: C_8  and  O_9 
REMARK    4  A    between atoms: C_8  and  C_10 
REMARK       I    between atoms: C_10  and  N_11 
REMARK    5  A    between atoms: N_11  and  C_12 
REMARK    6  A    between atoms: C_12  and  C_13 
REMARK    7  A    between atoms: C_13  and  N_14 
REMARK    8  A    between atoms: N_14  and  C_16 
REMARK    9  A    between atoms: N_14  and  C_18 
ROOT
HETATM    1  N   UNL     1      42.034 -15.111   1.115  1.00  0.00    -0.254 N 
HETATM    2  C   UNL     1      40.995 -15.257   0.090  1.00  0.00     0.256 C 
HETATM    3  C   UNL     1      41.312 -14.434  -1.129  1.00  0.00     0.034 A 
HETATM    4  C   UNL     1      41.965 -13.219  -0.907  1.00  0.00     0.048 A 
HETATM    5  N   UNL     1      42.322 -12.894   0.403  1.00  0.00    -0.308 N 
HETATM    6  C   UNL     1      42.391 -13.802   1.439  1.00  0.00     0.330 C 
HETATM    7  O   UNL     1      42.785 -13.402   2.532  1.00  0.00    -0.246 OA
HETATM    8  C   UNL     1      40.924 -14.773  -2.430  1.00  0.00     0.015 A 
HETATM    9  C   UNL     1      41.190 -13.902  -3.486  1.00  0.00     0.001 A 
HETATM   10  C   UNL     1      41.831 -12.686  -3.248  1.00  0.00     0.002 A 
HETATM   11  C   UNL     1      42.216 -12.336  -1.953  1.00  0.00     0.030 A 
HETATM   12  H   UNL     1      42.773 -12.006   0.594  1.00  0.00     0.170 HD
ENDROOT
BRANCH   2  13
HETATM   13  O   UNL     1      40.756 -16.612  -0.284  1.00  0.00    -0.359 OA
HETATM   14  H   UNL     1      40.085 -16.573  -0.992  1.00  0.00     0.213 HD
ENDBRANCH   2  13
BRANCH   2  15
HETATM   15  C   UNL     1      39.653 -14.817   0.829  1.00  0.00     0.279 C 
HETATM   16  N   UNL     1      38.985 -13.686   0.403  1.00  0.00    -0.355 N 
HETATM   17  H   UNL     1      39.230 -13.341  -0.522  1.00  0.00     0.162 HD
HETATM   18  O   UNL     1      39.284 -15.378   1.869  1.00  0.00    -0.268 OA
BRANCH  16  19
HETATM   19  C   UNL     1      37.678 -13.252   0.892  1.00  0.00     0.150 C 
BRANCH  19  20
HETATM   20  C   UNL     1      37.528 -11.825   1.467  1.00  0.00     0.254 C 
BRANCH  20  21
HETATM   21  N   UNL     1      37.069 -10.792   0.453  1.00  0.00    -0.070 N 
HETATM   22  H   UNL     1      36.299 -10.307   0.949  1.00  0.00     0.279 HD
BRANCH  21  23
HETATM   23  C   UNL     1      38.072  -9.718   0.097  1.00  0.00     0.230 C 
HETATM   24  C   UNL     1      39.480 -10.090   0.527  1.00  0.00     0.034 C 
ENDBRANCH  21  23
BRANCH  21  25
HETATM   25  C   UNL     1      36.421 -11.412  -0.770  1.00  0.00     0.230 C 
HETATM   26  C   UNL     1      35.192 -10.628  -1.197  1.00  0.00     0.034 C 
ENDBRANCH  21  25
ENDBRANCH  20  21
ENDBRANCH  19  20
ENDBRANCH  16  19
ENDBRANCH   2  15
BRANCH   1  27
HETATM   27  C   UNL     1      42.608 -16.226   1.800  1.00  0.00     0.043 A 
HETATM   28  C   UNL     1      43.660 -16.970   1.256  1.00  0.00     0.030 A 
HETATM   29  C   UNL     1      44.185 -18.080   1.933  1.00  0.00     0.009 A 
HETATM   30  C   UNL     1      43.652 -18.488   3.160  1.00  0.00    -0.058 A 
HETATM   31  C   UNL     1      42.579 -17.771   3.692  1.00  0.00     0.009 A 
HETATM   32  C   UNL     1      42.064 -16.659   3.018  1.00  0.00     0.030 A 
BRANCH  30  33
HETATM   33  C   UNL     1      44.200 -19.693   3.882  1.00  0.00     0.034 C 
HETATM   34  C   UNL     1      44.485 -20.853   2.938  1.00  0.00     0.010 C 
ENDBRANCH  30  33
ENDBRANCH   1  27
TORSDOF 9
ENDMDL
