MODEL 1
REMARK VINA RESULT:      -9.6      0.000      0.000
REMARK  7 active torsions:
REMARK  status: ('A' for Active; 'I' for Inactive)
REMARK    1  A    between atoms: C_3  and  N_4 
REMARK       I    between atoms: N_4  and  C_5 
REMARK    2  A    between atoms: C_5  and  C_6 
REMARK       I    between atoms: C_6  and  N_7 
REMARK    3  A    between atoms: N_7  and  C_8 
REMARK    4  A    between atoms: C_8  and  C_9 
REMARK    5  A    between atoms: C_9  and  C_10 
REMARK    6  A    between atoms: C_12  and  O_13 
REMARK    7  A    between atoms: N_20  and  C_21 
ROOT
HETATM    1  N   UNL     1      44.563 -13.834   7.651  1.00  0.00    -0.302 N 
HETATM    2  C   UNL     1      45.700 -13.101   7.410  1.00  0.00     0.315 C 
HETATM    3  O   UNL     1      46.495 -13.132   6.482  1.00  0.00    -0.262 OA
HETATM    4  H   UNL     1      44.081 -13.630   8.519  1.00  0.00     0.171 HD
ENDROOT
BRANCH   2   5
HETATM    5  C   UNL     1      45.951 -12.096   8.554  1.00  0.00     0.309 C 
HETATM    6  N   UNL     1      45.244 -12.363   9.705  1.00  0.00    -0.353 N 
HETATM    7  H   UNL     1      44.553 -13.107   9.638  1.00  0.00     0.162 HD
HETATM    8  O   UNL     1      46.720 -11.161   8.376  1.00  0.00    -0.262 OA
BRANCH   6   9
HETATM    9  C   UNL     1      45.274 -11.462  10.836  1.00  0.00     0.128 C 
BRANCH   9  10
HETATM   10  C   UNL     1      44.181 -10.398  10.755  1.00  0.00     0.058 C 
BRANCH  10  11
HETATM   11  C   UNL     1      43.248 -10.467  11.939  1.00  0.00    -0.054 A 
HETATM   12  C   UNL     1      42.131 -11.316  11.922  1.00  0.00     0.043 A 
HETATM   13  C   UNL     1      41.265 -11.342  13.014  1.00  0.00     0.066 A 
HETATM   14  C   UNL     1      41.489 -10.536  14.123  1.00  0.00     0.036 A 
HETATM   15  C   UNL     1      42.595  -9.688  14.146  1.00  0.00     0.003 A 
HETATM   16  C   UNL     1      43.469  -9.651  13.058  1.00  0.00     0.007 A 
BRANCH  13  17
HETATM   17  O   UNL     1      40.169 -12.153  13.032  1.00  0.00    -0.361 OA
HETATM   18  H   UNL     1      40.457 -13.062  13.210  1.00  0.00     0.217 HD
ENDBRANCH  13  17
ENDBRANCH  10  11
ENDBRANCH   9  10
ENDBRANCH   6   9
ENDBRANCH   2   5
BRANCH   1  19
HETATM   19  C   UNL     1      44.036 -14.799   6.829  1.00  0.00     0.158 A 
HETATM   20  C   UNL     1      42.928 -14.599   5.972  1.00  0.00     0.003 A 
HETATM   21  C   UNL     1      42.121 -13.374   5.755  1.00  0.00     0.054 C 
HETATM   22  C   UNL     1      42.773 -15.810   5.330  1.00  0.00     0.129 A 
HETATM   23  N   UNL     1      43.718 -16.675   5.829  1.00  0.00    -0.241 N 
HETATM   24  N   UNL     1      44.518 -16.032   6.718  1.00  0.00    -0.149 NA
BRANCH  23  25
HETATM   25  C   UNL     1      43.983 -18.039   5.498  1.00  0.00     0.079 A 
HETATM   26  C   UNL     1      44.078 -19.087   6.427  1.00  0.00     0.062 A 
HETATM   27 CL   UNL     1      44.093 -18.911   8.148  1.00  0.00    -0.082 Cl
HETATM   28  C   UNL     1      44.285 -20.403   5.976  1.00  0.00     0.026 A 
HETATM   29  C   UNL     1      44.414 -20.687   4.617  1.00  0.00     0.002 A 
HETATM   30  C   UNL     1      44.356 -19.653   3.692  1.00  0.00     0.002 A 
HETATM   31  C   UNL     1      44.150 -18.343   4.128  1.00  0.00     0.033 A 
ENDBRANCH  23  25
ENDBRANCH   1  19
TORSDOF 7
ENDMDL
MODEL 2
REMARK VINA RESULT:      -9.4      1.608      2.061
REMARK  7 active torsions:
REMARK  status: ('A' for Active; 'I' for Inactive)
REMARK    1  A    between atoms: C_3  and  N_4 
REMARK       I    between atoms: N_4  and  C_5 
REMARK    2  A    between atoms: C_5  and  C_6 
REMARK       I    between atoms: C_6  and  N_7 
REMARK    3  A    between atoms: N_7  and  C_8 
REMARK    4  A    between atoms: C_8  and  C_9 
REMARK    5  A    between atoms: C_9  and  C_10 
REMARK    6  A    between atoms: C_12  and  O_13 
REMARK    7  A    between atoms: N_20  and  C_21 
ROOT
HETATM    1  N   UNL     1      44.355 -15.393   7.140  1.00  0.00    -0.302 N 
HETATM    2  C   UNL     1      44.590 -14.133   6.647  1.00  0.00     0.315 C 
HETATM    3  O   UNL     1      44.402 -13.655   5.538  1.00  0.00    -0.262 OA
HETATM    4  H   UNL     1      44.624 -15.549   8.105  1.00  0.00     0.171 HD
ENDROOT
BRANCH   2   5
HETATM    5  C   UNL     1      45.204 -13.230   7.737  1.00  0.00     0.309 C 
HETATM    6  N   UNL     1      44.352 -12.945   8.781  1.00  0.00    -0.353 N 
HETATM    7  H   UNL     1      43.390 -13.255   8.664  1.00  0.00     0.162 HD
HETATM    8  O   UNL     1      46.354 -12.829   7.611  1.00  0.00    -0.262 OA
BRANCH   6   9
HETATM    9  C   UNL     1      44.725 -12.024   9.832  1.00  0.00     0.128 C 
BRANCH   9  10
HETATM   10  C   UNL     1      43.766 -10.838   9.925  1.00  0.00     0.058 C 
BRANCH  10  11
HETATM   11  C   UNL     1      43.104 -10.762  11.278  1.00  0.00    -0.054 A 
HETATM   12  C   UNL     1      41.938 -11.494  11.548  1.00  0.00     0.043 A 
HETATM   13  C   UNL     1      41.326 -11.387  12.795  1.00  0.00     0.066 A 
HETATM   14  C   UNL     1      41.852 -10.560  13.780  1.00  0.00     0.036 A 
HETATM   15  C   UNL     1      43.008  -9.827  13.519  1.00  0.00     0.003 A 
HETATM   16  C   UNL     1      43.630  -9.924  12.273  1.00  0.00     0.007 A 
BRANCH  13  17
HETATM   17  O   UNL     1      40.191 -12.082  13.092  1.00  0.00    -0.361 OA
HETATM   18  H   UNL     1      39.482 -11.789  12.499  1.00  0.00     0.217 HD
ENDBRANCH  13  17
ENDBRANCH  10  11
ENDBRANCH   9  10
ENDBRANCH   6   9
ENDBRANCH   2   5
BRANCH   1  19
HETATM   19  C   UNL     1      43.797 -16.439   6.448  1.00  0.00     0.158 A 
HETATM   20  C   UNL     1      42.455 -16.474   6.000  1.00  0.00     0.003 A 
HETATM   21  C   UNL     1      41.392 -15.451   6.148  1.00  0.00     0.054 C 
HETATM   22  C   UNL     1      42.348 -17.681   5.340  1.00  0.00     0.129 A 
HETATM   23  N   UNL     1      43.559 -18.326   5.445  1.00  0.00    -0.241 N 
HETATM   24  N   UNL     1      44.455 -17.536   6.089  1.00  0.00    -0.149 NA
BRANCH  23  25
HETATM   25  C   UNL     1      43.971 -19.595   4.936  1.00  0.00     0.079 A 
HETATM   26  C   UNL     1      44.210 -19.879   3.583  1.00  0.00     0.062 A 
HETATM   27 CL   UNL     1      43.867 -18.823   2.256  1.00  0.00    -0.082 Cl
HETATM   28  C   UNL     1      44.671 -21.153   3.208  1.00  0.00     0.026 A 
HETATM   29  C   UNL     1      44.880 -22.152   4.157  1.00  0.00     0.002 A 
HETATM   30  C   UNL     1      44.614 -21.893   5.495  1.00  0.00     0.002 A 
HETATM   31  C   UNL     1      44.158 -20.631   5.880  1.00  0.00     0.033 A 
ENDBRANCH  23  25
ENDBRANCH   1  19
TORSDOF 7
ENDMDL
MODEL 3
REMARK VINA RESULT:      -9.2      1.737      2.094
REMARK  7 active torsions:
REMARK  status: ('A' for Active; 'I' for Inactive)
REMARK    1  A    between atoms: C_3  and  N_4 
REMARK       I    between atoms: N_4  and  C_5 
REMARK    2  A    between atoms: C_5  and  C_6 
REMARK       I    between atoms: C_6  and  N_7 
REMARK    3  A    between atoms: N_7  and  C_8 
REMARK    4  A    between atoms: C_8  and  C_9 
REMARK    5  A    between atoms: C_9  and  C_10 
REMARK    6  A    between atoms: C_12  and  O_13 
REMARK    7  A    between atoms: N_20  and  C_21 
ROOT
HETATM    1  N   UNL     1      43.755 -14.732   7.487  1.00  0.00    -0.302 N 
HETATM    2  C   UNL     1      44.702 -13.770   7.232  1.00  0.00     0.315 C 
HETATM    3  O   UNL     1      45.413 -13.581   6.256  1.00  0.00    -0.262 OA
HETATM    4  H   UNL     1      43.312 -14.686   8.397  1.00  0.00     0.171 HD
ENDROOT
BRANCH   2   5
HETATM    5  C   UNL     1      44.838 -12.810   8.431  1.00  0.00     0.309 C 
HETATM    6  N   UNL     1      43.710 -12.063   8.687  1.00  0.00    -0.353 N 
HETATM    7  H   UNL     1      42.965 -12.134   7.997  1.00  0.00     0.162 HD
HETATM    8  O   UNL     1      45.893 -12.763   9.050  1.00  0.00    -0.262 OA
BRANCH   6   9
HETATM    9  C   UNL     1      43.699 -11.033   9.704  1.00  0.00     0.128 C 
BRANCH   9  10
HETATM   10  C   UNL     1      43.505 -11.609  11.105  1.00  0.00     0.058 C 
BRANCH  10  11
HETATM   11  C   UNL     1      43.130 -10.539  12.100  1.00  0.00    -0.054 A 
HETATM   12  C   UNL     1      42.756 -10.876  13.409  1.00  0.00     0.043 A 
HETATM   13  C   UNL     1      42.385  -9.873  14.303  1.00  0.00     0.066 A 
HETATM   14  C   UNL     1      42.377  -8.538  13.917  1.00  0.00     0.036 A 
HETATM   15  C   UNL     1      42.745  -8.195  12.617  1.00  0.00     0.003 A 
HETATM   16  C   UNL     1      43.117  -9.190  11.711  1.00  0.00     0.007 A 
BRANCH  13  17
HETATM   17  O   UNL     1      42.014 -10.163  15.583  1.00  0.00    -0.361 OA
HETATM   18  H   UNL     1      42.674  -9.793  16.190  1.00  0.00     0.217 HD
ENDBRANCH  13  17
ENDBRANCH  10  11
ENDBRANCH   9  10
ENDBRANCH   6   9
ENDBRANCH   2   5
BRANCH   1  19
HETATM   19  C   UNL     1      43.367 -15.731   6.628  1.00  0.00     0.158 A 
HETATM   20  C   UNL     1      42.203 -15.684   5.825  1.00  0.00     0.003 A 
HETATM   21  C   UNL     1      41.186 -14.611   5.711  1.00  0.00     0.054 C 
HETATM   22  C   UNL     1      42.232 -16.868   5.117  1.00  0.00     0.129 A 
HETATM   23  N   UNL     1      43.336 -17.578   5.529  1.00  0.00    -0.241 N 
HETATM   24  N   UNL     1      44.051 -16.851   6.425  1.00  0.00    -0.149 NA
BRANCH  23  25
HETATM   25  C   UNL     1      43.818 -18.854   5.107  1.00  0.00     0.079 A 
HETATM   26  C   UNL     1      44.211 -19.172   3.798  1.00  0.00     0.062 A 
HETATM   27 CL   UNL     1      44.005 -18.160   2.410  1.00  0.00    -0.082 Cl
HETATM   28  C   UNL     1      44.726 -20.449   3.515  1.00  0.00     0.026 A 
HETATM   29  C   UNL     1      44.840 -21.418   4.511  1.00  0.00     0.002 A 
HETATM   30  C   UNL     1      44.423 -21.125   5.802  1.00  0.00     0.002 A 
HETATM   31  C   UNL     1      43.911 -19.860   6.096  1.00  0.00     0.033 A 
ENDBRANCH  23  25
ENDBRANCH   1  19
TORSDOF 7
ENDMDL
MODEL 4
REMARK VINA RESULT:      -9.2      2.097      3.308
REMARK  7 active torsions:
REMARK  status: ('A' for Active; 'I' for Inactive)
REMARK    1  A    between atoms: C_3  and  N_4 
REMARK       I    between atoms: N_4  and  C_5 
REMARK    2  A    between atoms: C_5  and  C_6 
REMARK       I    between atoms: C_6  and  N_7 
REMARK    3  A    between atoms: N_7  and  C_8 
REMARK    4  A    between atoms: C_8  and  C_9 
REMARK    5  A    between atoms: C_9  and  C_10 
REMARK    6  A    between atoms: C_12  and  O_13 
REMARK    7  A    between atoms: N_20  and  C_21 
ROOT
HETATM    1  N   UNL     1      44.887 -16.336   6.739  1.00  0.00    -0.302 N 
HETATM    2  C   UNL     1      44.043 -15.264   6.582  1.00  0.00     0.315 C 
HETATM    3  O   UNL     1      42.917 -15.190   6.111  1.00  0.00    -0.262 OA
HETATM    4  H   UNL     1      45.794 -16.129   7.143  1.00  0.00     0.171 HD
ENDROOT
BRANCH   2   5
HETATM    5  C   UNL     1      44.702 -13.971   7.104  1.00  0.00     0.309 C 
HETATM    6  N   UNL     1      44.229 -13.549   8.326  1.00  0.00    -0.353 N 
HETATM    7  H   UNL     1      43.425 -14.057   8.689  1.00  0.00     0.162 HD
HETATM    8  O   UNL     1      45.560 -13.416   6.429  1.00  0.00    -0.262 OA
BRANCH   6   9
HETATM    9  C   UNL     1      44.655 -12.297   8.911  1.00  0.00     0.128 C 
BRANCH   9  10
HETATM   10  C   UNL     1      44.510 -12.292  10.432  1.00  0.00     0.058 C 
BRANCH  10  11
HETATM   11  C   UNL     1      43.731 -11.094  10.913  1.00  0.00    -0.054 A 
HETATM   12  C   UNL     1      43.972 -10.544  12.181  1.00  0.00     0.043 A 
HETATM   13  C   UNL     1      43.220  -9.455  12.617  1.00  0.00     0.066 A 
HETATM   14  C   UNL     1      42.228  -8.904  11.815  1.00  0.00     0.036 A 
HETATM   15  C   UNL     1      41.980  -9.446  10.556  1.00  0.00     0.003 A 
HETATM   16  C   UNL     1      42.725 -10.538  10.107  1.00  0.00     0.007 A 
BRANCH  13  17
HETATM   17  O   UNL     1      43.426  -8.895  13.844  1.00  0.00    -0.361 OA
HETATM   18  H   UNL     1      44.262  -9.231  14.203  1.00  0.00     0.217 HD
ENDBRANCH  13  17
ENDBRANCH  10  11
ENDBRANCH   9  10
ENDBRANCH   6   9
ENDBRANCH   2   5
BRANCH   1  19
HETATM   19  C   UNL     1      44.611 -17.637   6.401  1.00  0.00     0.158 A 
HETATM   20  C   UNL     1      44.257 -18.645   7.331  1.00  0.00     0.003 A 
HETATM   21  C   UNL     1      44.096 -18.547   8.801  1.00  0.00     0.054 C 
HETATM   22  C   UNL     1      44.047 -19.765   6.553  1.00  0.00     0.129 A 
HETATM   23  N   UNL     1      44.313 -19.426   5.247  1.00  0.00    -0.241 N 
HETATM   24  N   UNL     1      44.616 -18.106   5.159  1.00  0.00    -0.149 NA
BRANCH  23  25
HETATM   25  C   UNL     1      44.245 -20.217   4.060  1.00  0.00     0.079 A 
HETATM   26  C   UNL     1      44.600 -21.573   3.976  1.00  0.00     0.062 A 
HETATM   27 CL   UNL     1      45.368 -22.492   5.223  1.00  0.00    -0.082 Cl
HETATM   28  C   UNL     1      44.433 -22.263   2.763  1.00  0.00     0.026 A 
HETATM   29  C   UNL     1      43.936 -21.621   1.630  1.00  0.00     0.002 A 
HETATM   30  C   UNL     1      43.614 -20.272   1.692  1.00  0.00     0.002 A 
HETATM   31  C   UNL     1      43.773 -19.576   2.891  1.00  0.00     0.033 A 
ENDBRANCH  23  25
ENDBRANCH   1  19
TORSDOF 7
ENDMDL
MODEL 5
REMARK VINA RESULT:      -9.0      2.048      2.808
REMARK  7 active torsions:
REMARK  status: ('A' for Active; 'I' for Inactive)
REMARK    1  A    between atoms: C_3  and  N_4 
REMARK       I    between atoms: N_4  and  C_5 
REMARK    2  A    between atoms: C_5  and  C_6 
REMARK       I    between atoms: C_6  and  N_7 
REMARK    3  A    between atoms: N_7  and  C_8 
REMARK    4  A    between atoms: C_8  and  C_9 
REMARK    5  A    between atoms: C_9  and  C_10 
REMARK    6  A    between atoms: C_12  and  O_13 
REMARK    7  A    between atoms: N_20  and  C_21 
ROOT
HETATM    1  N   UNL     1      44.164 -14.602   7.523  1.00  0.00    -0.302 N 
HETATM    2  C   UNL     1      45.139 -13.745   7.075  1.00  0.00     0.315 C 
HETATM    3  O   UNL     1      45.693 -13.654   5.989  1.00  0.00    -0.262 OA
HETATM    4  H   UNL     1      43.883 -14.487   8.490  1.00  0.00     0.171 HD
ENDROOT
BRANCH   2   5
HETATM    5  C   UNL     1      45.560 -12.770   8.194  1.00  0.00     0.309 C 
HETATM    6  N   UNL     1      44.630 -12.626   9.198  1.00  0.00    -0.353 N 
HETATM    7  H   UNL     1      43.730 -13.076   9.037  1.00  0.00     0.162 HD
HETATM    8  O   UNL     1      46.641 -12.200   8.122  1.00  0.00    -0.262 OA
BRANCH   6   9
HETATM    9  C   UNL     1      44.811 -11.669  10.267  1.00  0.00     0.128 C 
BRANCH   9  10
HETATM   10  C   UNL     1      43.712 -10.608  10.283  1.00  0.00     0.058 C 
BRANCH  10  11
HETATM   11  C   UNL     1      42.916 -10.651  11.564  1.00  0.00    -0.054 A 
HETATM   12  C   UNL     1      41.757 -11.434  11.661  1.00  0.00     0.043 A 
HETATM   13  C   UNL     1      41.020 -11.436  12.844  1.00  0.00     0.066 A 
HETATM   14  C   UNL     1      41.415 -10.669  13.934  1.00  0.00     0.036 A 
HETATM   15  C   UNL     1      42.564  -9.886  13.844  1.00  0.00     0.003 A 
HETATM   16  C   UNL     1      43.311  -9.874  12.664  1.00  0.00     0.007 A 
BRANCH  13  17
HETATM   17  O   UNL     1      39.887 -12.183  12.975  1.00  0.00    -0.361 OA
HETATM   18  H   UNL     1      39.592 -12.458  12.093  1.00  0.00     0.217 HD
ENDBRANCH  13  17
ENDBRANCH  10  11
ENDBRANCH   9  10
ENDBRANCH   6   9
ENDBRANCH   2   5
BRANCH   1  19
HETATM   19  C   UNL     1      43.548 -15.582   6.783  1.00  0.00     0.158 A 
HETATM   20  C   UNL     1      43.261 -16.882   7.263  1.00  0.00     0.003 A 
HETATM   21  C   UNL     1      43.525 -17.466   8.599  1.00  0.00     0.054 C 
HETATM   22  C   UNL     1      42.626 -17.501   6.206  1.00  0.00     0.129 A 
HETATM   23  N   UNL     1      42.593 -16.612   5.156  1.00  0.00    -0.241 N 
HETATM   24  N   UNL     1      43.122 -15.421   5.535  1.00  0.00    -0.149 NA
BRANCH  23  25
HETATM   25  C   UNL     1      42.048 -16.759   3.844  1.00  0.00     0.079 A 
HETATM   26  C   UNL     1      42.518 -17.658   2.875  1.00  0.00     0.062 A 
HETATM   27 CL   UNL     1      43.954 -18.615   3.000  1.00  0.00    -0.082 Cl
HETATM   28  C   UNL     1      41.861 -17.754   1.635  1.00  0.00     0.026 A 
HETATM   29  C   UNL     1      40.756 -16.956   1.342  1.00  0.00     0.002 A 
HETATM   30  C   UNL     1      40.304 -16.039   2.280  1.00  0.00     0.002 A 
HETATM   31  C   UNL     1      40.947 -15.935   3.515  1.00  0.00     0.033 A 
ENDBRANCH  23  25
ENDBRANCH   1  19
TORSDOF 7
ENDMDL
MODEL 6
REMARK VINA RESULT:      -8.8      3.014      9.733
REMARK  7 active torsions:
REMARK  status: ('A' for Active; 'I' for Inactive)
REMARK    1  A    between atoms: C_3  and  N_4 
REMARK       I    between atoms: N_4  and  C_5 
REMARK    2  A    between atoms: C_5  and  C_6 
REMARK       I    between atoms: C_6  and  N_7 
REMARK    3  A    between atoms: N_7  and  C_8 
REMARK    4  A    between atoms: C_8  and  C_9 
REMARK    5  A    between atoms: C_9  and  C_10 
REMARK    6  A    between atoms: C_12  and  O_13 
REMARK    7  A    between atoms: N_20  and  C_21 
ROOT
HETATM    1  N   UNL     1      43.354 -12.087   8.231  1.00  0.00    -0.302 N 
HETATM    2  C   UNL     1      44.492 -12.829   8.429  1.00  0.00     0.315 C 
HETATM    3  O   UNL     1      45.282 -12.857   9.361  1.00  0.00    -0.262 OA
HETATM    4  H   UNL     1      42.878 -12.233   7.349  1.00  0.00     0.171 HD
ENDROOT
BRANCH   2   5
HETATM    5  C   UNL     1      44.755 -13.753   7.222  1.00  0.00     0.309 C 
HETATM    6  N   UNL     1      43.734 -14.638   6.955  1.00  0.00    -0.353 N 
HETATM    7  H   UNL     1      42.983 -14.669   7.643  1.00  0.00     0.162 HD
HETATM    8  O   UNL     1      45.809 -13.658   6.607  1.00  0.00    -0.262 OA
BRANCH   6   9
HETATM    9  C   UNL     1      43.858 -15.651   5.930  1.00  0.00     0.128 C 
BRANCH   9  10
HETATM   10  C   UNL     1      44.235 -17.013   6.510  1.00  0.00     0.058 C 
BRANCH  10  11
HETATM   11  C   UNL     1      44.249 -18.085   5.448  1.00  0.00    -0.054 A 
HETATM   12  C   UNL     1      44.693 -19.382   5.745  1.00  0.00     0.043 A 
HETATM   13  C   UNL     1      44.726 -20.349   4.742  1.00  0.00     0.066 A 
HETATM   14  C   UNL     1      44.326 -20.048   3.445  1.00  0.00     0.036 A 
HETATM   15  C   UNL     1      43.886 -18.761   3.142  1.00  0.00     0.003 A 
HETATM   16  C   UNL     1      43.850 -17.782   4.137  1.00  0.00     0.007 A 
BRANCH  13  17
HETATM   17  O   UNL     1      45.153 -21.620   4.993  1.00  0.00    -0.361 OA
HETATM   18  H   UNL     1      45.645 -21.941   4.222  1.00  0.00     0.217 HD
ENDBRANCH  13  17
ENDBRANCH  10  11
ENDBRANCH   9  10
ENDBRANCH   6   9
ENDBRANCH   2   5
BRANCH   1  19
HETATM   19  C   UNL     1      42.818 -11.181   9.113  1.00  0.00     0.158 A 
HETATM   20  C   UNL     1      42.038 -10.063   8.732  1.00  0.00     0.003 A 
HETATM   21  C   UNL     1      41.624  -9.628   7.377  1.00  0.00     0.054 C 
HETATM   22  C   UNL     1      41.698  -9.463   9.928  1.00  0.00     0.129 A 
HETATM   23  N   UNL     1      42.294 -10.178  10.941  1.00  0.00    -0.241 N 
HETATM   24  N   UNL     1      42.943 -11.257  10.433  1.00  0.00    -0.149 NA
BRANCH  23  25
HETATM   25  C   UNL     1      42.254  -9.977  12.354  1.00  0.00     0.079 A 
HETATM   26  C   UNL     1      41.406 -10.661  13.239  1.00  0.00     0.062 A 
HETATM   27 CL   UNL     1      40.119 -11.724  12.783  1.00  0.00    -0.082 Cl
HETATM   28  C   UNL     1      41.499 -10.419  14.621  1.00  0.00     0.026 A 
HETATM   29  C   UNL     1      42.410  -9.496  15.132  1.00  0.00     0.002 A 
HETATM   30  C   UNL     1      43.230  -8.790  14.263  1.00  0.00     0.002 A 
HETATM   31  C   UNL     1      43.148  -9.021  12.889  1.00  0.00     0.033 A 
ENDBRANCH  23  25
ENDBRANCH   1  19
TORSDOF 7
ENDMDL
MODEL 7
REMARK VINA RESULT:      -8.7      6.232     10.349
REMARK  7 active torsions:
REMARK  status: ('A' for Active; 'I' for Inactive)
REMARK    1  A    between atoms: C_3  and  N_4 
REMARK       I    between atoms: N_4  and  C_5 
REMARK    2  A    between atoms: C_5  and  C_6 
REMARK       I    between atoms: C_6  and  N_7 
REMARK    3  A    between atoms: N_7  and  C_8 
REMARK    4  A    between atoms: C_8  and  C_9 
REMARK    5  A    between atoms: C_9  and  C_10 
REMARK    6  A    between atoms: C_12  and  O_13 
REMARK    7  A    between atoms: N_20  and  C_21 
ROOT
HETATM    1  N   UNL     1      40.077 -15.598   2.994  1.00  0.00    -0.302 N 
HETATM    2  C   UNL     1      40.308 -14.265   2.756  1.00  0.00     0.315 C 
HETATM    3  O   UNL     1      41.270 -13.557   3.017  1.00  0.00    -0.262 OA
HETATM    4  H   UNL     1      39.175 -15.951   2.695  1.00  0.00     0.171 HD
ENDROOT
BRANCH   2   5
HETATM    5  C   UNL     1      39.100 -13.622   2.043  1.00  0.00     0.309 C 
HETATM    6  N   UNL     1      38.556 -14.398   1.044  1.00  0.00    -0.353 N 
HETATM    7  H   UNL     1      39.074 -15.241   0.805  1.00  0.00     0.162 HD
HETATM    8  O   UNL     1      38.721 -12.510   2.385  1.00  0.00    -0.262 OA
BRANCH   6   9
HETATM    9  C   UNL     1      37.490 -13.904   0.199  1.00  0.00     0.128 C 
BRANCH   9  10
HETATM   10  C   UNL     1      38.023 -13.166  -1.028  1.00  0.00     0.058 C 
BRANCH  10  11
HETATM   11  C   UNL     1      38.542 -14.123  -2.072  1.00  0.00    -0.054 A 
HETATM   12  C   UNL     1      39.916 -14.379  -2.190  1.00  0.00     0.043 A 
HETATM   13  C   UNL     1      40.376 -15.244  -3.181  1.00  0.00     0.066 A 
HETATM   14  C   UNL     1      39.493 -15.859  -4.060  1.00  0.00     0.036 A 
HETATM   15  C   UNL     1      38.127 -15.607  -3.951  1.00  0.00     0.003 A 
HETATM   16  C   UNL     1      37.652 -14.742  -2.964  1.00  0.00     0.007 A 
BRANCH  13  17
HETATM   17  O   UNL     1      41.705 -15.516  -3.326  1.00  0.00    -0.361 OA
HETATM   18  H   UNL     1      42.200 -14.684  -3.269  1.00  0.00     0.217 HD
ENDBRANCH  13  17
ENDBRANCH  10  11
ENDBRANCH   9  10
ENDBRANCH   6   9
ENDBRANCH   2   5
BRANCH   1  19
HETATM   19  C   UNL     1      40.949 -16.475   3.590  1.00  0.00     0.158 A 
HETATM   20  C   UNL     1      41.200 -16.527   4.982  1.00  0.00     0.003 A 
HETATM   21  C   UNL     1      40.614 -15.709   6.071  1.00  0.00     0.054 C 
HETATM   22  C   UNL     1      42.105 -17.559   5.125  1.00  0.00     0.129 A 
HETATM   23  N   UNL     1      42.392 -18.043   3.870  1.00  0.00    -0.241 N 
HETATM   24  N   UNL     1      41.643 -17.400   2.938  1.00  0.00    -0.149 NA
BRANCH  23  25
HETATM   25  C   UNL     1      43.261 -19.104   3.470  1.00  0.00     0.079 A 
HETATM   26  C   UNL     1      44.353 -19.573   4.217  1.00  0.00     0.062 A 
HETATM   27 CL   UNL     1      44.978 -18.842   5.655  1.00  0.00    -0.082 Cl
HETATM   28  C   UNL     1      45.102 -20.666   3.746  1.00  0.00     0.026 A 
HETATM   29  C   UNL     1      44.791 -21.286   2.537  1.00  0.00     0.002 A 
HETATM   30  C   UNL     1      43.734 -20.809   1.774  1.00  0.00     0.002 A 
HETATM   31  C   UNL     1      42.982 -19.725   2.231  1.00  0.00     0.033 A 
ENDBRANCH  23  25
ENDBRANCH   1  19
TORSDOF 7
ENDMDL
MODEL 8
REMARK VINA RESULT:      -8.6      6.641     10.390
REMARK  7 active torsions:
REMARK  status: ('A' for Active; 'I' for Inactive)
REMARK    1  A    between atoms: C_3  and  N_4 
REMARK       I    between atoms: N_4  and  C_5 
REMARK    2  A    between atoms: C_5  and  C_6 
REMARK       I    between atoms: C_6  and  N_7 
REMARK    3  A    between atoms: N_7  and  C_8 
REMARK    4  A    between atoms: C_8  and  C_9 
REMARK    5  A    between atoms: C_9  and  C_10 
REMARK    6  A    between atoms: C_12  and  O_13 
REMARK    7  A    between atoms: N_20  and  C_21 
ROOT
HETATM    1  N   UNL     1      41.765 -14.999   1.753  1.00  0.00    -0.302 N 
HETATM    2  C   UNL     1      42.363 -13.770   1.883  1.00  0.00     0.315 C 
HETATM    3  O   UNL     1      43.183 -13.356   2.690  1.00  0.00    -0.262 OA
HETATM    4  H   UNL     1      41.089 -15.085   1.002  1.00  0.00     0.171 HD
ENDROOT
BRANCH   2   5
HETATM    5  C   UNL     1      41.855 -12.800   0.796  1.00  0.00     0.309 C 
HETATM    6  N   UNL     1      40.705 -13.215   0.162  1.00  0.00    -0.353 N 
HETATM    7  H   UNL     1      40.388 -14.155   0.390  1.00  0.00     0.162 HD
HETATM    8  O   UNL     1      42.480 -11.774   0.564  1.00  0.00    -0.262 OA
BRANCH   6   9
HETATM    9  C   UNL     1      40.153 -12.484  -0.958  1.00  0.00     0.128 C 
BRANCH   9  10
HETATM   10  C   UNL     1      40.783 -12.902  -2.285  1.00  0.00     0.058 C 
BRANCH  10  11
HETATM   11  C   UNL     1      40.052 -14.066  -2.907  1.00  0.00    -0.054 A 
HETATM   12  C   UNL     1      38.737 -13.921  -3.372  1.00  0.00     0.043 A 
HETATM   13  C   UNL     1      38.070 -15.018  -3.915  1.00  0.00     0.066 A 
HETATM   14  C   UNL     1      38.688 -16.259  -4.002  1.00  0.00     0.036 A 
HETATM   15  C   UNL     1      39.994 -16.412  -3.539  1.00  0.00     0.003 A 
HETATM   16  C   UNL     1      40.673 -15.322  -2.991  1.00  0.00     0.007 A 
BRANCH  13  17
HETATM   17  O   UNL     1      36.791 -14.914  -4.376  1.00  0.00    -0.361 OA
HETATM   18  H   UNL     1      36.607 -13.984  -4.578  1.00  0.00     0.217 HD
ENDBRANCH  13  17
ENDBRANCH  10  11
ENDBRANCH   9  10
ENDBRANCH   6   9
ENDBRANCH   2   5
BRANCH   1  19
HETATM   19  C   UNL     1      42.001 -16.099   2.540  1.00  0.00     0.158 A 
HETATM   20  C   UNL     1      41.512 -16.258   3.858  1.00  0.00     0.003 A 
HETATM   21  C   UNL     1      40.667 -15.340   4.660  1.00  0.00     0.054 C 
HETATM   22  C   UNL     1      41.965 -17.503   4.241  1.00  0.00     0.129 A 
HETATM   23  N   UNL     1      42.717 -18.013   3.208  1.00  0.00    -0.241 N 
HETATM   24  N   UNL     1      42.697 -17.162   2.151  1.00  0.00    -0.149 NA
BRANCH  23  25
HETATM   25  C   UNL     1      43.403 -19.261   3.099  1.00  0.00     0.079 A 
HETATM   26  C   UNL     1      44.313 -19.764   4.042  1.00  0.00     0.062 A 
HETATM   27 CL   UNL     1      44.930 -18.899   5.407  1.00  0.00    -0.082 Cl
HETATM   28  C   UNL     1      44.881 -21.035   3.853  1.00  0.00     0.026 A 
HETATM   29  C   UNL     1      44.571 -21.805   2.733  1.00  0.00     0.002 A 
HETATM   30  C   UNL     1      43.699 -21.303   1.777  1.00  0.00     0.002 A 
HETATM   31  C   UNL     1      43.126 -20.043   1.953  1.00  0.00     0.033 A 
ENDBRANCH  23  25
ENDBRANCH   1  19
TORSDOF 7
ENDMDL
MODEL 9
REMARK VINA RESULT:      -8.6      3.246      4.931
REMARK  7 active torsions:
REMARK  status: ('A' for Active; 'I' for Inactive)
REMARK    1  A    between atoms: C_3  and  N_4 
REMARK       I    between atoms: N_4  and  C_5 
REMARK    2  A    between atoms: C_5  and  C_6 
REMARK       I    between atoms: C_6  and  N_7 
REMARK    3  A    between atoms: N_7  and  C_8 
REMARK    4  A    between atoms: C_8  and  C_9 
REMARK    5  A    between atoms: C_9  and  C_10 
REMARK    6  A    between atoms: C_12  and  O_13 
REMARK    7  A    between atoms: N_20  and  C_21 
ROOT
HETATM    1  N   UNL     1      42.085 -15.921   5.110  1.00  0.00    -0.302 N 
HETATM    2  C   UNL     1      40.863 -15.883   5.736  1.00  0.00     0.315 C 
HETATM    3  O   UNL     1      40.314 -16.687   6.475  1.00  0.00    -0.262 OA
HETATM    4  H   UNL     1      42.305 -15.126   4.520  1.00  0.00     0.171 HD
ENDROOT
BRANCH   2   5
HETATM    5  C   UNL     1      40.116 -14.579   5.391  1.00  0.00     0.309 C 
HETATM    6  N   UNL     1      39.897 -13.751   6.469  1.00  0.00    -0.353 N 
HETATM    7  H   UNL     1      40.139 -14.136   7.380  1.00  0.00     0.162 HD
HETATM    8  O   UNL     1      39.768 -14.370   4.236  1.00  0.00    -0.262 OA
BRANCH   6   9
HETATM    9  C   UNL     1      39.114 -12.540   6.347  1.00  0.00     0.128 C 
BRANCH   9  10
HETATM   10  C   UNL     1      39.989 -11.288   6.329  1.00  0.00     0.058 C 
BRANCH  10  11
HETATM   11  C   UNL     1      40.623 -11.033   7.674  1.00  0.00    -0.054 A 
HETATM   12  C   UNL     1      42.013 -10.882   7.794  1.00  0.00     0.043 A 
HETATM   13  C   UNL     1      42.581 -10.677   9.050  1.00  0.00     0.066 A 
HETATM   14  C   UNL     1      41.791 -10.623  10.192  1.00  0.00     0.036 A 
HETATM   15  C   UNL     1      40.410 -10.775  10.081  1.00  0.00     0.003 A 
HETATM   16  C   UNL     1      39.828 -10.982   8.829  1.00  0.00     0.007 A 
BRANCH  13  17
HETATM   17  O   UNL     1      43.928 -10.527   9.205  1.00  0.00    -0.361 OA
HETATM   18  H   UNL     1      44.247 -11.203   9.822  1.00  0.00     0.217 HD
ENDBRANCH  13  17
ENDBRANCH  10  11
ENDBRANCH   9  10
ENDBRANCH   6   9
ENDBRANCH   2   5
BRANCH   1  19
HETATM   19  C   UNL     1      43.015 -16.925   5.215  1.00  0.00     0.158 A 
HETATM   20  C   UNL     1      44.156 -16.872   6.051  1.00  0.00     0.003 A 
HETATM   21  C   UNL     1      44.594 -15.794   6.970  1.00  0.00     0.054 C 
HETATM   22  C   UNL     1      44.775 -18.090   5.858  1.00  0.00     0.129 A 
HETATM   23  N   UNL     1      44.049 -18.787   4.921  1.00  0.00    -0.241 N 
HETATM   24  N   UNL     1      42.945 -18.082   4.565  1.00  0.00    -0.149 NA
BRANCH  23  25
HETATM   25  C   UNL     1      44.262 -20.090   4.376  1.00  0.00     0.079 A 
HETATM   26  C   UNL     1      44.180 -20.414   3.012  1.00  0.00     0.062 A 
HETATM   27 CL   UNL     1      43.619 -19.362   1.759  1.00  0.00    -0.082 Cl
HETATM   28  C   UNL     1      44.469 -21.722   2.588  1.00  0.00     0.026 A 
HETATM   29  C   UNL     1      44.820 -22.715   3.501  1.00  0.00     0.002 A 
HETATM   30  C   UNL     1      44.871 -22.415   4.855  1.00  0.00     0.002 A 
HETATM   31  C   UNL     1      44.588 -21.119   5.289  1.00  0.00     0.033 A 
ENDBRANCH  23  25
ENDBRANCH   1  19
TORSDOF 7
ENDMDL
MODEL 10
REMARK VINA RESULT:      -8.5      6.922     10.250
REMARK  7 active torsions:
REMARK  status: ('A' for Active; 'I' for Inactive)
REMARK    1  A    between atoms: C_3  and  N_4 
REMARK       I    between atoms: N_4  and  C_5 
REMARK    2  A    between atoms: C_5  and  C_6 
REMARK       I    between atoms: C_6  and  N_7 
REMARK    3  A    between atoms: N_7  and  C_8 
REMARK    4  A    between atoms: C_8  and  C_9 
REMARK    5  A    between atoms: C_9  and  C_10 
REMARK    6  A    between atoms: C_12  and  O_13 
REMARK    7  A    between atoms: N_20  and  C_21 
ROOT
HETATM    1  N   UNL     1      41.979 -15.741   0.980  1.00  0.00    -0.302 N 
HETATM    2  C   UNL     1      40.646 -15.411   0.976  1.00  0.00     0.315 C 
HETATM    3  O   UNL     1      39.735 -15.736   1.722  1.00  0.00    -0.262 OA
HETATM    4  H   UNL     1      42.534 -15.352   0.226  1.00  0.00     0.171 HD
ENDROOT
BRANCH   2   5
HETATM    5  C   UNL     1      40.322 -14.474  -0.207  1.00  0.00     0.309 C 
HETATM    6  N   UNL     1      40.380 -15.082  -1.441  1.00  0.00    -0.353 N 
HETATM    7  H   UNL     1      40.743 -16.033  -1.450  1.00  0.00     0.162 HD
HETATM    8  O   UNL     1      40.054 -13.300   0.009  1.00  0.00    -0.262 OA
BRANCH   6   9
HETATM    9  C   UNL     1      40.215 -14.329  -2.665  1.00  0.00     0.128 C 
BRANCH   9  10
HETATM   10  C   UNL     1      41.546 -14.075  -3.370  1.00  0.00     0.058 C 
BRANCH  10  11
HETATM   11  C   UNL     1      42.031 -12.663  -3.154  1.00  0.00    -0.054 A 
HETATM   12  C   UNL     1      42.701 -12.308  -1.975  1.00  0.00     0.043 A 
HETATM   13  C   UNL     1      43.114 -10.990  -1.783  1.00  0.00     0.066 A 
HETATM   14  C   UNL     1      42.868 -10.018  -2.744  1.00  0.00     0.036 A 
HETATM   15  C   UNL     1      42.201 -10.362  -3.918  1.00  0.00     0.003 A 
HETATM   16  C   UNL     1      41.780 -11.677  -4.122  1.00  0.00     0.007 A 
BRANCH  13  17
HETATM   17  O   UNL     1      43.766 -10.608  -0.648  1.00  0.00    -0.361 OA
HETATM   18  H   UNL     1      44.526 -10.059  -0.896  1.00  0.00     0.217 HD
ENDBRANCH  13  17
ENDBRANCH  10  11
ENDBRANCH   9  10
ENDBRANCH   6   9
ENDBRANCH   2   5
BRANCH   1  19
HETATM   19  C   UNL     1      42.611 -16.537   1.903  1.00  0.00     0.158 A 
HETATM   20  C   UNL     1      43.067 -16.088   3.165  1.00  0.00     0.003 A 
HETATM   21  C   UNL     1      42.970 -14.738   3.769  1.00  0.00     0.054 C 
HETATM   22  C   UNL     1      43.601 -17.216   3.753  1.00  0.00     0.129 A 
HETATM   23  N   UNL     1      43.497 -18.250   2.852  1.00  0.00    -0.241 N 
HETATM   24  N   UNL     1      42.847 -17.833   1.736  1.00  0.00    -0.149 NA
BRANCH  23  25
HETATM   25  C   UNL     1      43.896 -19.617   2.971  1.00  0.00     0.079 A 
HETATM   26  C   UNL     1      44.522 -20.176   4.096  1.00  0.00     0.062 A 
HETATM   27 CL   UNL     1      45.109 -19.296   5.464  1.00  0.00    -0.082 Cl
HETATM   28  C   UNL     1      44.814 -21.551   4.119  1.00  0.00     0.026 A 
HETATM   29  C   UNL     1      44.509 -22.371   3.034  1.00  0.00     0.002 A 
HETATM   30  C   UNL     1      43.921 -21.822   1.903  1.00  0.00     0.002 A 
HETATM   31  C   UNL     1      43.624 -20.459   1.868  1.00  0.00     0.033 A 
ENDBRANCH  23  25
ENDBRANCH   1  19
TORSDOF 7
ENDMDL
