MODEL 1
REMARK VINA RESULT:      -8.0      0.000      0.000
REMARK  7 active torsions:
REMARK  status: ('A' for Active; 'I' for Inactive)
REMARK    1  A    between atoms: C_2  and  O_3 
REMARK    2  A    between atoms: O_3  and  C_4 
REMARK    3  A    between atoms: C_4  and  C_5 
REMARK    4  A    between atoms: C_6  and  C_7 
REMARK    5  A    between atoms: C_18  and  S_19 
REMARK    6  A    between atoms: S_19  and  C_20 
REMARK    7  A    between atoms: C_20  and  C_21 
ROOT
HETATM    1  C   UNL     1      40.923 -15.447   1.608  1.00  0.00     0.070 C 
HETATM    2  C   UNL     1      41.362 -16.349   2.764  1.00  0.00     0.203 C 
HETATM    3  N   UNL     1      42.242 -17.418   2.289  1.00  0.00    -0.082 N 
HETATM    4  C   UNL     1      42.884 -17.394   1.083  1.00  0.00     0.726 A 
HETATM    5  N   UNL     1      42.651 -16.366   0.242  1.00  0.00    -0.192 N 
HETATM    6  N   UNL     1      42.474 -18.567   2.949  1.00  0.00    -0.128 NA
HETATM    7  C   UNL     1      43.324 -19.167   2.108  1.00  0.00     0.226 A 
HETATM    8  N   UNL     1      43.620 -18.469   0.961  1.00  0.00    -0.035 NA
HETATM    9  C   UNL     1      41.608 -15.456   0.432  1.00  0.00     0.037 C 
HETATM   10  C   UNL     1      41.342 -14.531  -0.730  1.00  0.00     0.070 C 
HETATM   11  H   UNL     1      43.051 -16.418  -0.693  1.00  0.00     0.184 HD
ENDROOT
BRANCH   7  12
HETATM   12  S   UNL     1      43.960 -20.745   2.455  1.00  0.00    -0.083 SA
BRANCH  12  13
HETATM   13  C   UNL     1      45.204 -20.282   3.686  1.00  0.00     0.121 C 
BRANCH  13  14
HETATM   14  C   UNL     1      44.623 -20.294   5.079  1.00  0.00    -0.047 A 
HETATM   15  C   UNL     1      44.430 -19.096   5.783  1.00  0.00     0.031 A 
HETATM   16  C   UNL     1      43.920 -19.120   7.081  1.00  0.00     0.034 A 
HETATM   17 CL   UNL     1      43.685 -17.643   7.934  1.00  0.00    -0.084 Cl
HETATM   18  C   UNL     1      43.602 -20.329   7.696  1.00  0.00     0.024 A 
HETATM   19  C   UNL     1      43.796 -21.526   7.007  1.00  0.00     0.002 A 
HETATM   20  C   UNL     1      44.304 -21.509   5.707  1.00  0.00     0.008 A 
ENDBRANCH  13  14
ENDBRANCH  12  13
ENDBRANCH   7  12
BRANCH   2  21
HETATM   21  C   UNL     1      42.069 -15.575   3.881  1.00  0.00    -0.028 A 
HETATM   22  C   UNL     1      43.152 -14.736   3.570  1.00  0.00     0.011 A 
HETATM   23  C   UNL     1      43.817 -14.026   4.574  1.00  0.00     0.024 A 
HETATM   24  C   UNL     1      43.404 -14.146   5.898  1.00  0.00     0.034 A 
HETATM   25 CL   UNL     1      44.226 -13.276   7.133  1.00  0.00    -0.084 Cl
HETATM   26  C   UNL     1      42.332 -14.970   6.228  1.00  0.00     0.024 A 
HETATM   27  C   UNL     1      41.666 -15.680   5.227  1.00  0.00     0.011 A 
ENDBRANCH   2  21
BRANCH   1  28
HETATM   28  C   UNL     1      39.691 -14.679   1.931  1.00  0.00     0.293 C 
HETATM   29  O   UNL     1      38.569 -15.140   1.785  1.00  0.00    -0.259 OA
BRANCH  28  30
HETATM   30  O   UNL     1      39.963 -13.403   2.292  1.00  0.00    -0.318 OA
BRANCH  30  31
HETATM   31  C   UNL     1      39.470 -12.995   3.578  1.00  0.00     0.174 C 
HETATM   32  C   UNL     1      40.506 -12.162   4.309  1.00  0.00     0.034 C 
ENDBRANCH  30  31
ENDBRANCH  28  30
ENDBRANCH   1  28
TORSDOF 7
ENDMDL
MODEL 2
REMARK VINA RESULT:      -7.8      3.205      4.972
REMARK  7 active torsions:
REMARK  status: ('A' for Active; 'I' for Inactive)
REMARK    1  A    between atoms: C_2  and  O_3 
REMARK    2  A    between atoms: O_3  and  C_4 
REMARK    3  A    between atoms: C_4  and  C_5 
REMARK    4  A    between atoms: C_6  and  C_7 
REMARK    5  A    between atoms: C_18  and  S_19 
REMARK    6  A    between atoms: S_19  and  C_20 
REMARK    7  A    between atoms: C_20  and  C_21 
ROOT
HETATM    1  C   UNL     1      39.849 -14.045  -1.329  1.00  0.00     0.070 C 
HETATM    2  C   UNL     1      39.468 -14.227   0.142  1.00  0.00     0.203 C 
HETATM    3  N   UNL     1      40.451 -15.060   0.838  1.00  0.00    -0.082 N 
HETATM    4  C   UNL     1      41.705 -15.315   0.360  1.00  0.00     0.726 A 
HETATM    5  N   UNL     1      42.050 -14.835  -0.852  1.00  0.00    -0.192 N 
HETATM    6  N   UNL     1      40.217 -15.717   1.989  1.00  0.00    -0.128 NA
HETATM    7  C   UNL     1      41.405 -16.300   2.184  1.00  0.00     0.226 A 
HETATM    8  N   UNL     1      42.354 -16.059   1.219  1.00  0.00    -0.035 NA
HETATM    9  C   UNL     1      41.118 -14.303  -1.746  1.00  0.00     0.037 C 
HETATM   10  C   UNL     1      41.638 -14.050  -3.140  1.00  0.00     0.070 C 
HETATM   11  H   UNL     1      42.946 -15.125  -1.239  1.00  0.00     0.184 HD
ENDROOT
BRANCH   7  12
HETATM   12  S   UNL     1      41.682 -17.323   3.560  1.00  0.00    -0.083 SA
BRANCH  12  13
HETATM   13  C   UNL     1      43.453 -17.625   3.334  1.00  0.00     0.121 C 
BRANCH  13  14
HETATM   14  C   UNL     1      43.732 -19.093   3.122  1.00  0.00    -0.047 A 
HETATM   15  C   UNL     1      44.337 -19.859   4.130  1.00  0.00     0.031 A 
HETATM   16  C   UNL     1      44.618 -21.208   3.913  1.00  0.00     0.034 A 
HETATM   17 CL   UNL     1      45.358 -22.138   5.158  1.00  0.00    -0.084 Cl
HETATM   18  C   UNL     1      44.308 -21.810   2.694  1.00  0.00     0.024 A 
HETATM   19  C   UNL     1      43.713 -21.056   1.684  1.00  0.00     0.002 A 
HETATM   20  C   UNL     1      43.427 -19.706   1.895  1.00  0.00     0.008 A 
ENDBRANCH  13  14
ENDBRANCH  12  13
ENDBRANCH   7  12
BRANCH   2  21
HETATM   21  C   UNL     1      39.324 -12.894   0.883  1.00  0.00    -0.028 A 
HETATM   22  C   UNL     1      38.077 -12.518   1.409  1.00  0.00     0.011 A 
HETATM   23  C   UNL     1      37.921 -11.304   2.081  1.00  0.00     0.024 A 
HETATM   24  C   UNL     1      39.011 -10.452   2.237  1.00  0.00     0.034 A 
HETATM   25 CL   UNL     1      38.817  -8.954   3.060  1.00  0.00    -0.084 Cl
HETATM   26  C   UNL     1      40.256 -10.805   1.726  1.00  0.00     0.024 A 
HETATM   27  C   UNL     1      40.415 -12.018   1.053  1.00  0.00     0.011 A 
ENDBRANCH   2  21
BRANCH   1  28
HETATM   28  C   UNL     1      38.687 -13.642  -2.165  1.00  0.00     0.293 C 
HETATM   29  O   UNL     1      38.542 -12.506  -2.592  1.00  0.00    -0.259 OA
BRANCH  28  30
HETATM   30  O   UNL     1      37.779 -14.638  -2.295  1.00  0.00    -0.318 OA
BRANCH  30  31
HETATM   31  C   UNL     1      37.512 -15.074  -3.637  1.00  0.00     0.174 C 
HETATM   32  C   UNL     1      38.627 -15.969  -4.142  1.00  0.00     0.034 C 
ENDBRANCH  30  31
ENDBRANCH  28  30
ENDBRANCH   1  28
TORSDOF 7
ENDMDL
MODEL 3
REMARK VINA RESULT:      -7.8      4.077      7.751
REMARK  7 active torsions:
REMARK  status: ('A' for Active; 'I' for Inactive)
REMARK    1  A    between atoms: C_2  and  O_3 
REMARK    2  A    between atoms: O_3  and  C_4 
REMARK    3  A    between atoms: C_4  and  C_5 
REMARK    4  A    between atoms: C_6  and  C_7 
REMARK    5  A    between atoms: C_18  and  S_19 
REMARK    6  A    between atoms: S_19  and  C_20 
REMARK    7  A    between atoms: C_20  and  C_21 
ROOT
HETATM    1  C   UNL     1      42.462 -15.839   5.498  1.00  0.00     0.070 C 
HETATM    2  C   UNL     1      41.924 -16.126   4.093  1.00  0.00     0.203 C 
HETATM    3  N   UNL     1      42.176 -14.996   3.196  1.00  0.00    -0.082 N 
HETATM    4  C   UNL     1      43.083 -14.008   3.455  1.00  0.00     0.726 A 
HETATM    5  N   UNL     1      43.743 -14.021   4.631  1.00  0.00    -0.192 N 
HETATM    6  N   UNL     1      41.509 -14.768   2.051  1.00  0.00    -0.128 NA
HETATM    7  C   UNL     1      42.114 -13.651   1.633  1.00  0.00     0.226 A 
HETATM    8  N   UNL     1      43.103 -13.164   2.455  1.00  0.00    -0.035 NA
HETATM    9  C   UNL     1      43.373 -14.848   5.695  1.00  0.00     0.037 C 
HETATM   10  C   UNL     1      44.058 -14.551   7.006  1.00  0.00     0.070 C 
HETATM   11  H   UNL     1      44.332 -13.221   4.853  1.00  0.00     0.184 HD
ENDROOT
BRANCH   7  12
HETATM   12  S   UNL     1      41.627 -12.868   0.161  1.00  0.00    -0.083 SA
BRANCH  12  13
HETATM   13  C   UNL     1      39.966 -13.571   0.005  1.00  0.00     0.121 C 
BRANCH  13  14
HETATM   14  C   UNL     1      39.798 -14.284  -1.315  1.00  0.00    -0.047 A 
HETATM   15  C   UNL     1      38.599 -14.180  -2.036  1.00  0.00     0.031 A 
HETATM   16  C   UNL     1      38.443 -14.867  -3.241  1.00  0.00     0.034 A 
HETATM   17 CL   UNL     1      36.968 -14.729  -4.118  1.00  0.00    -0.084 Cl
HETATM   18  C   UNL     1      39.470 -15.667  -3.739  1.00  0.00     0.024 A 
HETATM   19  C   UNL     1      40.662 -15.782  -3.026  1.00  0.00     0.002 A 
HETATM   20  C   UNL     1      40.826 -15.096  -1.822  1.00  0.00     0.008 A 
ENDBRANCH  13  14
ENDBRANCH  12  13
ENDBRANCH   7  12
BRANCH   2  21
HETATM   21  C   UNL     1      42.521 -17.397   3.482  1.00  0.00    -0.028 A 
HETATM   22  C   UNL     1      41.860 -18.038   2.421  1.00  0.00     0.011 A 
HETATM   23  C   UNL     1      42.382 -19.203   1.854  1.00  0.00     0.024 A 
HETATM   24  C   UNL     1      43.571 -19.738   2.340  1.00  0.00     0.034 A 
HETATM   25 CL   UNL     1      44.211 -21.176   1.644  1.00  0.00    -0.084 Cl
HETATM   26  C   UNL     1      44.244 -19.119   3.388  1.00  0.00     0.024 A 
HETATM   27  C   UNL     1      43.724 -17.955   3.957  1.00  0.00     0.011 A 
ENDBRANCH   2  21
BRANCH   1  28
HETATM   28  C   UNL     1      41.826 -16.700   6.530  1.00  0.00     0.293 C 
HETATM   29  O   UNL     1      40.633 -16.969   6.522  1.00  0.00    -0.259 OA
BRANCH  28  30
HETATM   30  O   UNL     1      42.690 -17.048   7.511  1.00  0.00    -0.318 OA
BRANCH  30  31
HETATM   31  C   UNL     1      43.293 -18.346   7.388  1.00  0.00     0.174 C 
HETATM   32  C   UNL     1      44.805 -18.234   7.362  1.00  0.00     0.034 C 
ENDBRANCH  30  31
ENDBRANCH  28  30
ENDBRANCH   1  28
TORSDOF 7
ENDMDL
MODEL 4
REMARK VINA RESULT:      -7.8      3.778      5.929
REMARK  7 active torsions:
REMARK  status: ('A' for Active; 'I' for Inactive)
REMARK    1  A    between atoms: C_2  and  O_3 
REMARK    2  A    between atoms: O_3  and  C_4 
REMARK    3  A    between atoms: C_4  and  C_5 
REMARK    4  A    between atoms: C_6  and  C_7 
REMARK    5  A    between atoms: C_18  and  S_19 
REMARK    6  A    between atoms: S_19  and  C_20 
REMARK    7  A    between atoms: C_20  and  C_21 
ROOT
HETATM    1  C   UNL     1      41.732 -12.136   0.324  1.00  0.00     0.070 C 
HETATM    2  C   UNL     1      41.803 -13.643   0.064  1.00  0.00     0.203 C 
HETATM    3  N   UNL     1      41.554 -14.398   1.294  1.00  0.00    -0.082 N 
HETATM    4  C   UNL     1      40.970 -13.865   2.408  1.00  0.00     0.726 A 
HETATM    5  N   UNL     1      40.662 -12.553   2.416  1.00  0.00    -0.192 N 
HETATM    6  N   UNL     1      41.921 -15.677   1.492  1.00  0.00    -0.128 NA
HETATM    7  C   UNL     1      41.465 -15.874   2.734  1.00  0.00     0.226 A 
HETATM    8  N   UNL     1      40.854 -14.793   3.324  1.00  0.00    -0.035 NA
HETATM    9  C   UNL     1      41.127 -11.661   1.446  1.00  0.00     0.037 C 
HETATM   10  C   UNL     1      40.895 -10.202   1.751  1.00  0.00     0.070 C 
HETATM   11  H   UNL     1      40.329 -12.149   3.290  1.00  0.00     0.184 HD
ENDROOT
BRANCH   7  12
HETATM   12  S   UNL     1      41.687 -17.398   3.536  1.00  0.00    -0.083 SA
BRANCH  12  13
HETATM   13  C   UNL     1      43.432 -17.674   3.138  1.00  0.00     0.121 C 
BRANCH  13  14
HETATM   14  C   UNL     1      43.732 -19.147   3.000  1.00  0.00    -0.047 A 
HETATM   15  C   UNL     1      44.310 -19.861   4.061  1.00  0.00     0.031 A 
HETATM   16  C   UNL     1      44.612 -21.215   3.912  1.00  0.00     0.034 A 
HETATM   17 CL   UNL     1      45.317 -22.082   5.221  1.00  0.00    -0.084 Cl
HETATM   18  C   UNL     1      44.349 -21.873   2.711  1.00  0.00     0.024 A 
HETATM   19  C   UNL     1      43.781 -21.170   1.649  1.00  0.00     0.002 A 
HETATM   20  C   UNL     1      43.475 -19.816   1.792  1.00  0.00     0.008 A 
ENDBRANCH  13  14
ENDBRANCH  12  13
ENDBRANCH   7  12
BRANCH   2  21
HETATM   21  C   UNL     1      40.819 -14.102  -1.016  1.00  0.00    -0.028 A 
HETATM   22  C   UNL     1      41.254 -14.967  -2.034  1.00  0.00     0.011 A 
HETATM   23  C   UNL     1      40.375 -15.392  -3.034  1.00  0.00     0.024 A 
HETATM   24  C   UNL     1      39.053 -14.958  -3.026  1.00  0.00     0.034 A 
HETATM   25 CL   UNL     1      37.973 -15.478  -4.260  1.00  0.00    -0.084 Cl
HETATM   26  C   UNL     1      38.600 -14.103  -2.026  1.00  0.00     0.024 A 
HETATM   27  C   UNL     1      39.476 -13.677  -1.026  1.00  0.00     0.011 A 
ENDBRANCH   2  21
BRANCH   1  28
HETATM   28  C   UNL     1      42.433 -11.351  -0.727  1.00  0.00     0.293 C 
HETATM   29  O   UNL     1      43.611 -11.038  -0.641  1.00  0.00    -0.259 OA
BRANCH  28  30
HETATM   30  O   UNL     1      41.595 -10.947  -1.710  1.00  0.00    -0.318 OA
BRANCH  30  31
HETATM   31  C   UNL     1      42.069 -11.127  -3.054  1.00  0.00     0.174 C 
HETATM   32  C   UNL     1      40.987 -11.735  -3.926  1.00  0.00     0.034 C 
ENDBRANCH  30  31
ENDBRANCH  28  30
ENDBRANCH   1  28
TORSDOF 7
ENDMDL
MODEL 5
REMARK VINA RESULT:      -7.5      4.909      7.530
REMARK  7 active torsions:
REMARK  status: ('A' for Active; 'I' for Inactive)
REMARK    1  A    between atoms: C_2  and  O_3 
REMARK    2  A    between atoms: O_3  and  C_4 
REMARK    3  A    between atoms: C_4  and  C_5 
REMARK    4  A    between atoms: C_6  and  C_7 
REMARK    5  A    between atoms: C_18  and  S_19 
REMARK    6  A    between atoms: S_19  and  C_20 
REMARK    7  A    between atoms: C_20  and  C_21 
ROOT
HETATM    1  C   UNL     1      41.247 -13.363   3.590  1.00  0.00     0.070 C 
HETATM    2  C   UNL     1      41.913 -13.008   4.923  1.00  0.00     0.203 C 
HETATM    3  N   UNL     1      41.026 -12.186   5.748  1.00  0.00    -0.082 N 
HETATM    4  C   UNL     1      39.680 -12.075   5.538  1.00  0.00     0.726 A 
HETATM    5  N   UNL     1      39.133 -12.696   4.474  1.00  0.00    -0.192 N 
HETATM    6  N   UNL     1      41.434 -11.403   6.763  1.00  0.00    -0.128 NA
HETATM    7  C   UNL     1      40.265 -10.894   7.167  1.00  0.00     0.226 A 
HETATM    8  N   UNL     1      39.161 -11.299   6.456  1.00  0.00    -0.035 NA
HETATM    9  C   UNL     1      39.900 -13.243   3.443  1.00  0.00     0.037 C 
HETATM   10  C   UNL     1      39.123 -13.671   2.222  1.00  0.00     0.070 C 
HETATM   11  H   UNL     1      38.152 -12.514   4.271  1.00  0.00     0.184 HD
ENDROOT
BRANCH   7  12
HETATM   12  S   UNL     1      40.191  -9.763   8.482  1.00  0.00    -0.083 SA
BRANCH  12  13
HETATM   13  C   UNL     1      40.372 -10.923   9.861  1.00  0.00     0.121 C 
BRANCH  13  14
HETATM   14  C   UNL     1      41.655 -10.673  10.617  1.00  0.00    -0.047 A 
HETATM   15  C   UNL     1      42.898 -10.824   9.984  1.00  0.00     0.031 A 
HETATM   16  C   UNL     1      44.078 -10.621  10.700  1.00  0.00     0.034 A 
HETATM   17 CL   UNL     1      45.598 -10.806   9.913  1.00  0.00    -0.084 Cl
HETATM   18  C   UNL     1      44.038 -10.271  12.049  1.00  0.00     0.024 A 
HETATM   19  C   UNL     1      42.808 -10.125  12.688  1.00  0.00     0.002 A 
HETATM   20  C   UNL     1      41.623 -10.325  11.977  1.00  0.00     0.008 A 
ENDBRANCH  13  14
ENDBRANCH  12  13
ENDBRANCH   7  12
BRANCH   2  21
HETATM   21  C   UNL     1      42.335 -14.247   5.719  1.00  0.00    -0.028 A 
HETATM   22  C   UNL     1      43.621 -14.310   6.281  1.00  0.00     0.011 A 
HETATM   23  C   UNL     1      44.031 -15.433   7.004  1.00  0.00     0.024 A 
HETATM   24  C   UNL     1      43.158 -16.504   7.175  1.00  0.00     0.034 A 
HETATM   25 CL   UNL     1      43.665 -17.889   8.061  1.00  0.00    -0.084 Cl
HETATM   26  C   UNL     1      41.879 -16.463   6.628  1.00  0.00     0.024 A 
HETATM   27  C   UNL     1      41.468 -15.341   5.905  1.00  0.00     0.011 A 
ENDBRANCH   2  21
BRANCH   1  28
HETATM   28  C   UNL     1      42.239 -13.759   2.555  1.00  0.00     0.293 C 
HETATM   29  O   UNL     1      42.857 -12.943   1.887  1.00  0.00    -0.259 OA
BRANCH  28  30
HETATM   30  O   UNL     1      42.286 -15.100   2.377  1.00  0.00    -0.318 OA
BRANCH  30  31
HETATM   31  C   UNL     1      43.543 -15.730   2.674  1.00  0.00     0.174 C 
HETATM   32  C   UNL     1      43.324 -17.127   3.223  1.00  0.00     0.034 C 
ENDBRANCH  30  31
ENDBRANCH  28  30
ENDBRANCH   1  28
TORSDOF 7
ENDMDL
MODEL 6
REMARK VINA RESULT:      -7.5      3.732      5.301
REMARK  7 active torsions:
REMARK  status: ('A' for Active; 'I' for Inactive)
REMARK    1  A    between atoms: C_2  and  O_3 
REMARK    2  A    between atoms: O_3  and  C_4 
REMARK    3  A    between atoms: C_4  and  C_5 
REMARK    4  A    between atoms: C_6  and  C_7 
REMARK    5  A    between atoms: C_18  and  S_19 
REMARK    6  A    between atoms: S_19  and  C_20 
REMARK    7  A    between atoms: C_20  and  C_21 
ROOT
HETATM    1  C   UNL     1      39.982 -13.866  -1.606  1.00  0.00     0.070 C 
HETATM    2  C   UNL     1      40.548 -13.305  -0.298  1.00  0.00     0.203 C 
HETATM    3  N   UNL     1      41.253 -14.344   0.454  1.00  0.00    -0.082 N 
HETATM    4  C   UNL     1      41.677 -15.523  -0.092  1.00  0.00     0.726 A 
HETATM    5  N   UNL     1      41.376 -15.790  -1.378  1.00  0.00    -0.192 N 
HETATM    6  N   UNL     1      41.513 -14.289   1.773  1.00  0.00    -0.128 NA
HETATM    7  C   UNL     1      42.158 -15.447   1.946  1.00  0.00     0.226 A 
HETATM    8  N   UNL     1      42.301 -16.224   0.820  1.00  0.00    -0.035 NA
HETATM    9  C   UNL     1      40.450 -15.040  -2.108  1.00  0.00     0.037 C 
HETATM   10  C   UNL     1      40.054 -15.629  -3.440  1.00  0.00     0.070 C 
HETATM   11  H   UNL     1      41.603 -16.715  -1.737  1.00  0.00     0.184 HD
ENDROOT
BRANCH   7  12
HETATM   12  S   UNL     1      42.729 -15.926   3.514  1.00  0.00    -0.083 SA
BRANCH  12  13
HETATM   13  C   UNL     1      41.999 -17.582   3.586  1.00  0.00     0.121 C 
BRANCH  13  14
HETATM   14  C   UNL     1      43.068 -18.645   3.659  1.00  0.00    -0.047 A 
HETATM   15  C   UNL     1      43.193 -19.604   2.641  1.00  0.00     0.031 A 
HETATM   16  C   UNL     1      44.165 -20.601   2.733  1.00  0.00     0.034 A 
HETATM   17 CL   UNL     1      44.310 -21.770   1.478  1.00  0.00    -0.084 Cl
HETATM   18  C   UNL     1      45.017 -20.661   3.834  1.00  0.00     0.024 A 
HETATM   19  C   UNL     1      44.897 -19.717   4.853  1.00  0.00     0.002 A 
HETATM   20  C   UNL     1      43.928 -18.716   4.767  1.00  0.00     0.008 A 
ENDBRANCH  13  14
ENDBRANCH  12  13
ENDBRANCH   7  12
BRANCH   2  21
HETATM   21  C   UNL     1      41.492 -12.120  -0.526  1.00  0.00    -0.028 A 
HETATM   22  C   UNL     1      41.343 -10.953   0.243  1.00  0.00     0.011 A 
HETATM   23  C   UNL     1      42.188  -9.857   0.047  1.00  0.00     0.024 A 
HETATM   24  C   UNL     1      43.190  -9.917  -0.917  1.00  0.00     0.034 A 
HETATM   25 CL   UNL     1      44.226  -8.565  -1.161  1.00  0.00    -0.084 Cl
HETATM   26  C   UNL     1      43.356 -11.063  -1.688  1.00  0.00     0.024 A 
HETATM   27  C   UNL     1      42.513 -12.160  -1.494  1.00  0.00     0.011 A 
ENDBRANCH   2  21
BRANCH   1  28
HETATM   28  C   UNL     1      38.883 -13.023  -2.149  1.00  0.00     0.293 C 
HETATM   29  O   UNL     1      37.753 -13.032  -1.684  1.00  0.00    -0.259 OA
BRANCH  28  30
HETATM   30  O   UNL     1      39.257 -12.348  -3.261  1.00  0.00    -0.318 OA
BRANCH  30  31
HETATM   31  C   UNL     1      38.754 -11.008  -3.382  1.00  0.00     0.174 C 
HETATM   32  C   UNL     1      39.831  -9.999  -3.030  1.00  0.00     0.034 C 
ENDBRANCH  30  31
ENDBRANCH  28  30
ENDBRANCH   1  28
TORSDOF 7
ENDMDL
MODEL 7
REMARK VINA RESULT:      -7.4      3.905      8.098
REMARK  7 active torsions:
REMARK  status: ('A' for Active; 'I' for Inactive)
REMARK    1  A    between atoms: C_2  and  O_3 
REMARK    2  A    between atoms: O_3  and  C_4 
REMARK    3  A    between atoms: C_4  and  C_5 
REMARK    4  A    between atoms: C_6  and  C_7 
REMARK    5  A    between atoms: C_18  and  S_19 
REMARK    6  A    between atoms: S_19  and  C_20 
REMARK    7  A    between atoms: C_20  and  C_21 
ROOT
HETATM    1  C   UNL     1      42.779 -15.493   5.243  1.00  0.00     0.070 C 
HETATM    2  C   UNL     1      42.018 -16.039   4.032  1.00  0.00     0.203 C 
HETATM    3  N   UNL     1      41.979 -15.052   2.951  1.00  0.00    -0.082 N 
HETATM    4  C   UNL     1      42.812 -13.972   2.877  1.00  0.00     0.726 A 
HETATM    5  N   UNL     1      43.680 -13.749   3.884  1.00  0.00    -0.192 N 
HETATM    6  N   UNL     1      41.087 -15.059   1.943  1.00  0.00    -0.128 NA
HETATM    7  C   UNL     1      41.485 -13.982   1.256  1.00  0.00     0.226 A 
HETATM    8  N   UNL     1      42.556 -13.300   1.784  1.00  0.00    -0.035 NA
HETATM    9  C   UNL     1      43.605 -14.420   5.108  1.00  0.00     0.037 C 
HETATM   10  C   UNL     1      44.491 -13.868   6.198  1.00  0.00     0.070 C 
HETATM   11  H   UNL     1      44.215 -12.883   3.867  1.00  0.00     0.184 HD
ENDROOT
BRANCH   7  12
HETATM   12  S   UNL     1      40.651 -13.483  -0.183  1.00  0.00    -0.083 SA
BRANCH  12  13
HETATM   13  C   UNL     1      42.000 -13.685  -1.374  1.00  0.00     0.121 C 
BRANCH  13  14
HETATM   14  C   UNL     1      42.307 -12.383  -2.074  1.00  0.00    -0.047 A 
HETATM   15  C   UNL     1      42.964 -11.344  -1.396  1.00  0.00     0.031 A 
HETATM   16  C   UNL     1      43.216 -10.134  -2.043  1.00  0.00     0.034 A 
HETATM   17 CL   UNL     1      44.026  -8.869  -1.202  1.00  0.00    -0.084 Cl
HETATM   18  C   UNL     1      42.815  -9.939  -3.363  1.00  0.00     0.024 A 
HETATM   19  C   UNL     1      42.155 -10.962  -4.043  1.00  0.00     0.002 A 
HETATM   20  C   UNL     1      41.902 -12.176  -3.402  1.00  0.00     0.008 A 
ENDBRANCH  13  14
ENDBRANCH  12  13
ENDBRANCH   7  12
BRANCH   2  21
HETATM   21  C   UNL     1      42.617 -17.345   3.500  1.00  0.00    -0.028 A 
HETATM   22  C   UNL     1      42.087 -17.933   2.339  1.00  0.00     0.011 A 
HETATM   23  C   UNL     1      42.612 -19.128   1.841  1.00  0.00     0.024 A 
HETATM   24  C   UNL     1      43.672 -19.747   2.496  1.00  0.00     0.034 A 
HETATM   25 CL   UNL     1      44.315 -21.221   1.885  1.00  0.00    -0.084 Cl
HETATM   26  C   UNL     1      44.214 -19.181   3.646  1.00  0.00     0.024 A 
HETATM   27  C   UNL     1      43.691 -17.987   4.147  1.00  0.00     0.011 A 
ENDBRANCH   2  21
BRANCH   1  28
HETATM   28  C   UNL     1      42.441 -16.222   6.494  1.00  0.00     0.293 C 
HETATM   29  O   UNL     1      41.297 -16.533   6.789  1.00  0.00    -0.259 OA
BRANCH  28  30
HETATM   30  O   UNL     1      43.520 -16.394   7.294  1.00  0.00    -0.318 OA
BRANCH  30  31
HETATM   31  C   UNL     1      43.398 -17.410   8.303  1.00  0.00     0.174 C 
HETATM   32  C   UNL     1      44.056 -18.699   7.846  1.00  0.00     0.034 C 
ENDBRANCH  30  31
ENDBRANCH  28  30
ENDBRANCH   1  28
TORSDOF 7
ENDMDL
MODEL 8
REMARK VINA RESULT:      -7.2      2.879      4.033
REMARK  7 active torsions:
REMARK  status: ('A' for Active; 'I' for Inactive)
REMARK    1  A    between atoms: C_2  and  O_3 
REMARK    2  A    between atoms: O_3  and  C_4 
REMARK    3  A    between atoms: C_4  and  C_5 
REMARK    4  A    between atoms: C_6  and  C_7 
REMARK    5  A    between atoms: C_18  and  S_19 
REMARK    6  A    between atoms: S_19  and  C_20 
REMARK    7  A    between atoms: C_20  and  C_21 
ROOT
HETATM    1  C   UNL     1      40.224 -12.110   2.746  1.00  0.00     0.070 C 
HETATM    2  C   UNL     1      40.211 -13.086   3.926  1.00  0.00     0.203 C 
HETATM    3  N   UNL     1      41.302 -14.057   3.813  1.00  0.00    -0.082 N 
HETATM    4  C   UNL     1      42.389 -13.887   3.003  1.00  0.00     0.726 A 
HETATM    5  N   UNL     1      42.443 -12.803   2.204  1.00  0.00    -0.192 N 
HETATM    6  N   UNL     1      41.335 -15.245   4.442  1.00  0.00    -0.128 NA
HETATM    7  C   UNL     1      42.511 -15.718   4.014  1.00  0.00     0.226 A 
HETATM    8  N   UNL     1      43.201 -14.904   3.147  1.00  0.00    -0.035 NA
HETATM    9  C   UNL     1      41.340 -11.974   1.980  1.00  0.00     0.037 C 
HETATM   10  C   UNL     1      41.510 -10.966   0.871  1.00  0.00     0.070 C 
HETATM   11  H   UNL     1      43.204 -12.748   1.529  1.00  0.00     0.184 HD
ENDROOT
BRANCH   7  12
HETATM   12  S   UNL     1      43.078 -17.282   4.510  1.00  0.00    -0.083 SA
BRANCH  12  13
HETATM   13  C   UNL     1      43.792 -17.833   2.940  1.00  0.00     0.121 C 
BRANCH  13  14
HETATM   14  C   UNL     1      43.945 -19.334   2.909  1.00  0.00    -0.047 A 
HETATM   15  C   UNL     1      44.496 -20.020   4.003  1.00  0.00     0.031 A 
HETATM   16  C   UNL     1      44.661 -21.404   3.952  1.00  0.00     0.034 A 
HETATM   17 CL   UNL     1      45.335 -22.234   5.301  1.00  0.00    -0.084 Cl
HETATM   18  C   UNL     1      44.287 -22.122   2.817  1.00  0.00     0.024 A 
HETATM   19  C   UNL     1      43.744 -21.449   1.723  1.00  0.00     0.002 A 
HETATM   20  C   UNL     1      43.575 -20.064   1.767  1.00  0.00     0.008 A 
ENDBRANCH  13  14
ENDBRANCH  12  13
ENDBRANCH   7  12
BRANCH   2  21
HETATM   21  C   UNL     1      40.306 -12.376   5.280  1.00  0.00    -0.028 A 
HETATM   22  C   UNL     1      41.371 -11.495   5.532  1.00  0.00     0.011 A 
HETATM   23  C   UNL     1      41.482 -10.843   6.763  1.00  0.00     0.024 A 
HETATM   24  C   UNL     1      40.529 -11.063   7.753  1.00  0.00     0.034 A 
HETATM   25 CL   UNL     1      40.669 -10.264   9.270  1.00  0.00    -0.084 Cl
HETATM   26  C   UNL     1      39.464 -11.930   7.524  1.00  0.00     0.024 A 
HETATM   27  C   UNL     1      39.352 -12.584   6.295  1.00  0.00     0.011 A 
ENDBRANCH   2  21
BRANCH   1  28
HETATM   28  C   UNL     1      38.908 -11.445   2.553  1.00  0.00     0.293 C 
HETATM   29  O   UNL     1      37.961 -12.000   2.016  1.00  0.00    -0.259 OA
BRANCH  28  30
HETATM   30  O   UNL     1      38.928 -10.147   2.937  1.00  0.00    -0.318 OA
BRANCH  30  31
HETATM   31  C   UNL     1      37.901  -9.749   3.859  1.00  0.00     0.174 C 
HETATM   32  C   UNL     1      38.509  -9.097   5.087  1.00  0.00     0.034 C 
ENDBRANCH  30  31
ENDBRANCH  28  30
ENDBRANCH   1  28
TORSDOF 7
ENDMDL
MODEL 9
REMARK VINA RESULT:      -7.1      3.431      5.391
REMARK  7 active torsions:
REMARK  status: ('A' for Active; 'I' for Inactive)
REMARK    1  A    between atoms: C_2  and  O_3 
REMARK    2  A    between atoms: O_3  and  C_4 
REMARK    3  A    between atoms: C_4  and  C_5 
REMARK    4  A    between atoms: C_6  and  C_7 
REMARK    5  A    between atoms: C_18  and  S_19 
REMARK    6  A    between atoms: S_19  and  C_20 
REMARK    7  A    between atoms: C_20  and  C_21 
ROOT
HETATM    1  C   UNL     1      41.538 -12.599   0.650  1.00  0.00     0.070 C 
HETATM    2  C   UNL     1      41.679 -13.916  -0.119  1.00  0.00     0.203 C 
HETATM    3  N   UNL     1      41.706 -15.057   0.799  1.00  0.00    -0.082 N 
HETATM    4  C   UNL     1      41.285 -14.998   2.097  1.00  0.00     0.726 A 
HETATM    5  N   UNL     1      40.882 -13.813   2.598  1.00  0.00    -0.192 N 
HETATM    6  N   UNL     1      42.200 -16.271   0.494  1.00  0.00    -0.128 NA
HETATM    7  C   UNL     1      41.983 -16.920   1.643  1.00  0.00     0.226 A 
HETATM    8  N   UNL     1      41.402 -16.181   2.645  1.00  0.00    -0.035 NA
HETATM    9  C   UNL     1      41.102 -12.601   1.939  1.00  0.00     0.037 C 
HETATM   10  C   UNL     1      40.814 -11.365   2.755  1.00  0.00     0.070 C 
HETATM   11  H   UNL     1      40.676 -13.764   3.594  1.00  0.00     0.184 HD
ENDROOT
BRANCH   7  12
HETATM   12  S   UNL     1      42.458 -18.579   1.834  1.00  0.00    -0.083 SA
BRANCH  12  13
HETATM   13  C   UNL     1      44.022 -18.325   2.711  1.00  0.00     0.121 C 
BRANCH  13  14
HETATM   14  C   UNL     1      43.938 -18.832   4.130  1.00  0.00    -0.047 A 
HETATM   15  C   UNL     1      43.409 -18.022   5.148  1.00  0.00     0.031 A 
HETATM   16  C   UNL     1      43.364 -18.488   6.462  1.00  0.00     0.034 A 
HETATM   17 CL   UNL     1      42.710 -17.488   7.701  1.00  0.00    -0.084 Cl
HETATM   18  C   UNL     1      43.846 -19.756   6.782  1.00  0.00     0.024 A 
HETATM   19  C   UNL     1      44.379 -20.565   5.780  1.00  0.00     0.002 A 
HETATM   20  C   UNL     1      44.426 -20.106   4.462  1.00  0.00     0.008 A 
ENDBRANCH  13  14
ENDBRANCH  12  13
ENDBRANCH   7  12
BRANCH   2  21
HETATM   21  C   UNL     1      40.561 -14.122  -1.145  1.00  0.00    -0.028 A 
HETATM   22  C   UNL     1      39.226 -13.880  -0.780  1.00  0.00     0.011 A 
HETATM   23  C   UNL     1      38.189 -14.069  -1.698  1.00  0.00     0.024 A 
HETATM   24  C   UNL     1      38.477 -14.500  -2.990  1.00  0.00     0.034 A 
HETATM   25 CL   UNL     1      37.199 -14.737  -4.118  1.00  0.00    -0.084 Cl
HETATM   26  C   UNL     1      39.792 -14.743  -3.374  1.00  0.00     0.024 A 
HETATM   27  C   UNL     1      40.830 -14.555  -2.458  1.00  0.00     0.011 A 
ENDBRANCH   2  21
BRANCH   1  28
HETATM   28  C   UNL     1      41.983 -11.430  -0.153  1.00  0.00     0.293 C 
HETATM   29  O   UNL     1      43.148 -11.063  -0.195  1.00  0.00    -0.259 OA
BRANCH  28  30
HETATM   30  O   UNL     1      40.946 -10.776  -0.726  1.00  0.00    -0.318 OA
BRANCH  30  31
HETATM   31  C   UNL     1      41.079 -10.493  -2.129  1.00  0.00     0.174 C 
HETATM   32  C   UNL     1      39.803 -10.847  -2.869  1.00  0.00     0.034 C 
ENDBRANCH  30  31
ENDBRANCH  28  30
ENDBRANCH   1  28
TORSDOF 7
ENDMDL
MODEL 10
REMARK VINA RESULT:      -6.8      4.234      8.111
REMARK  7 active torsions:
REMARK  status: ('A' for Active; 'I' for Inactive)
REMARK    1  A    between atoms: C_2  and  O_3 
REMARK    2  A    between atoms: O_3  and  C_4 
REMARK    3  A    between atoms: C_4  and  C_5 
REMARK    4  A    between atoms: C_6  and  C_7 
REMARK    5  A    between atoms: C_18  and  S_19 
REMARK    6  A    between atoms: S_19  and  C_20 
REMARK    7  A    between atoms: C_20  and  C_21 
ROOT
HETATM    1  C   UNL     1      42.613 -15.702   5.445  1.00  0.00     0.070 C 
HETATM    2  C   UNL     1      41.968 -16.088   4.111  1.00  0.00     0.203 C 
HETATM    3  N   UNL     1      42.099 -15.005   3.134  1.00  0.00    -0.082 N 
HETATM    4  C   UNL     1      42.986 -13.973   3.258  1.00  0.00     0.726 A 
HETATM    5  N   UNL     1      43.743 -13.895   4.370  1.00  0.00    -0.192 N 
HETATM    6  N   UNL     1      41.328 -14.866   2.040  1.00  0.00    -0.128 NA
HETATM    7  C   UNL     1      41.852 -13.755   1.510  1.00  0.00     0.226 A 
HETATM    8  N   UNL     1      42.887 -13.188   2.215  1.00  0.00    -0.035 NA
HETATM    9  C   UNL     1      43.498 -14.671   5.506  1.00  0.00     0.037 C 
HETATM   10  C   UNL     1      44.280 -14.275   6.735  1.00  0.00     0.070 C 
HETATM   11  H   UNL     1      44.317 -13.064   4.496  1.00  0.00     0.184 HD
ENDROOT
BRANCH   7  12
HETATM   12  S   UNL     1      41.211 -13.077   0.045  1.00  0.00    -0.083 SA
BRANCH  12  13
HETATM   13  C   UNL     1      39.670 -14.023  -0.052  1.00  0.00     0.121 C 
BRANCH  13  14
HETATM   14  C   UNL     1      38.488 -13.114  -0.287  1.00  0.00    -0.047 A 
HETATM   15  C   UNL     1      38.268 -12.539  -1.549  1.00  0.00     0.031 A 
HETATM   16  C   UNL     1      37.190 -11.676  -1.747  1.00  0.00     0.034 A 
HETATM   17 CL   UNL     1      36.928 -10.980  -3.300  1.00  0.00    -0.084 Cl
HETATM   18  C   UNL     1      36.323 -11.371  -0.699  1.00  0.00     0.024 A 
HETATM   19  C   UNL     1      36.537 -11.932   0.559  1.00  0.00     0.002 A 
HETATM   20  C   UNL     1      37.613 -12.797   0.765  1.00  0.00     0.008 A 
ENDBRANCH  13  14
ENDBRANCH  12  13
ENDBRANCH   7  12
BRANCH   2  21
HETATM   21  C   UNL     1      42.560 -17.372   3.520  1.00  0.00    -0.028 A 
HETATM   22  C   UNL     1      41.942 -17.982   2.416  1.00  0.00     0.011 A 
HETATM   23  C   UNL     1      42.459 -19.157   1.867  1.00  0.00     0.024 A 
HETATM   24  C   UNL     1      43.602 -19.734   2.414  1.00  0.00     0.034 A 
HETATM   25 CL   UNL     1      44.236 -21.184   1.740  1.00  0.00    -0.084 Cl
HETATM   26  C   UNL     1      44.232 -19.146   3.506  1.00  0.00     0.024 A 
HETATM   27  C   UNL     1      43.716 -17.971   4.058  1.00  0.00     0.011 A 
ENDBRANCH   2  21
BRANCH   1  28
HETATM   28  C   UNL     1      42.101 -16.523   6.574  1.00  0.00     0.293 C 
HETATM   29  O   UNL     1      40.938 -16.891   6.649  1.00  0.00    -0.259 OA
BRANCH  28  30
HETATM   30  O   UNL     1      43.035 -16.711   7.535  1.00  0.00    -0.318 OA
BRANCH  30  31
HETATM   31  C   UNL     1      43.464 -18.068   7.737  1.00  0.00     0.174 C 
HETATM   32  C   UNL     1      44.868 -18.270   7.200  1.00  0.00     0.034 C 
ENDBRANCH  30  31
ENDBRANCH  28  30
ENDBRANCH   1  28
TORSDOF 7
ENDMDL
