MODEL 1
REMARK VINA RESULT:      -9.5      0.000      0.000
REMARK  7 active torsions:
REMARK  status: ('A' for Active; 'I' for Inactive)
REMARK    1  A    between atoms: C_7  and  C_8 
REMARK    2  A    between atoms: C_8  and  N_9 
REMARK    3  A    between atoms: C_13  and  C_14 
REMARK    4  A    between atoms: C_14  and  C_15 
REMARK    5  A    between atoms: C_15  and  C_16 
REMARK    6  A    between atoms: N_26  and  C_27 
REMARK    7  A    between atoms: C_27  and  C_28 
ROOT
HETATM    1  C   UNL     1      41.972 -15.971   3.977  1.00  0.00     0.123 C 
HETATM    2  N   UNL     1      41.136 -17.062   3.501  1.00  0.00    -0.324 N 
HETATM    3  C   UNL     1      40.594 -16.830   2.258  1.00  0.00     0.326 C 
HETATM    4  O   UNL     1      39.951 -17.656   1.639  1.00  0.00    -0.247 OA
HETATM    5  N   UNL     1      40.868 -15.546   1.913  1.00  0.00    -0.268 N 
HETATM    6  C   UNL     1      41.589 -14.936   2.897  1.00  0.00     0.257 C 
HETATM    7  O   UNL     1      41.896 -13.752   2.930  1.00  0.00    -0.270 OA
HETATM    8  H   UNL     1      41.102 -17.999   3.892  1.00  0.00     0.165 HD
ENDROOT
BRANCH   1   9
HETATM    9  C   UNL     1      41.563 -15.576   5.435  1.00  0.00     0.027 C 
HETATM   10  C   UNL     1      41.585 -14.063   5.735  1.00  0.00     0.035 C 
HETATM   11  C   UNL     1      42.965 -13.505   6.041  1.00  0.00     0.235 C 
HETATM   12  N   UNL     1      43.584 -14.236   7.202  1.00  0.00    -0.067 N 
HETATM   13  H   UNL     1      43.036 -13.991   8.035  1.00  0.00     0.280 HD
HETATM   14  C   UNL     1      43.596 -15.734   7.074  1.00  0.00     0.235 C 
HETATM   15  C   UNL     1      42.267 -16.300   6.597  1.00  0.00     0.035 C 
BRANCH  12  16
HETATM   16  C   UNL     1      45.003 -13.757   7.487  1.00  0.00     0.277 C 
BRANCH  16  17
HETATM   17  C   UNL     1      45.081 -12.605   8.415  1.00  0.00     0.011 A 
HETATM   18  C   UNL     1      46.173 -11.706   8.581  1.00  0.00     0.060 A 
HETATM   19  C   UNL     1      47.492 -11.706   7.894  1.00  0.00     0.073 C 
HETATM   20  N   UNL     1      45.890 -10.754   9.469  1.00  0.00    -0.178 NA
HETATM   21  N   UNL     1      44.673 -11.069   9.935  1.00  0.00    -0.284 N 
HETATM   22  C   UNL     1      44.075 -10.267  10.976  1.00  0.00     0.179 C 
HETATM   23  C   UNL     1      44.129 -12.156   9.311  1.00  0.00     0.122 A 
ENDBRANCH  16  17
ENDBRANCH  12  16
ENDBRANCH   1   9
BRANCH   1  24
HETATM   24  C   UNL     1      43.483 -16.290   3.750  1.00  0.00     0.082 C 
BRANCH  24  25
HETATM   25  C   UNL     1      43.854 -17.753   3.589  1.00  0.00    -0.034 A 
HETATM   26  C   UNL     1      43.977 -18.401   2.347  1.00  0.00     0.040 A 
HETATM   27 CL   UNL     1      43.692 -17.600   0.846  1.00  0.00    -0.084 Cl
HETATM   28  C   UNL     1      44.311 -19.759   2.275  1.00  0.00     0.024 A 
HETATM   29  C   UNL     1      44.516 -20.498   3.437  1.00  0.00     0.002 A 
HETATM   30  C   UNL     1      44.371 -19.885   4.676  1.00  0.00     0.001 A 
HETATM   31  C   UNL     1      44.032 -18.532   4.750  1.00  0.00     0.009 A 
ENDBRANCH  24  25
ENDBRANCH   1  24
BRANCH   5  32
HETATM   32  C   UNL     1      40.400 -14.904   0.702  1.00  0.00     0.141 C 
BRANCH  32  33
HETATM   33  C   UNL     1      41.417 -15.063  -0.387  1.00  0.00     0.004 A 
HETATM   34  C   UNL     1      41.016 -15.591  -1.742  1.00  0.00     0.007 A 
HETATM   35  C   UNL     1      41.403 -14.146  -1.582  1.00  0.00     0.007 A 
ENDBRANCH  32  33
ENDBRANCH   5  32
TORSDOF 7
ENDMDL
MODEL 2
REMARK VINA RESULT:      -9.3      3.479      7.882
REMARK  7 active torsions:
REMARK  status: ('A' for Active; 'I' for Inactive)
REMARK    1  A    between atoms: C_7  and  C_8 
REMARK    2  A    between atoms: C_8  and  N_9 
REMARK    3  A    between atoms: C_13  and  C_14 
REMARK    4  A    between atoms: C_14  and  C_15 
REMARK    5  A    between atoms: C_15  and  C_16 
REMARK    6  A    between atoms: N_26  and  C_27 
REMARK    7  A    between atoms: C_27  and  C_28 
ROOT
HETATM    1  C   UNL     1      42.564 -17.051   2.878  1.00  0.00     0.123 C 
HETATM    2  N   UNL     1      42.689 -15.611   3.043  1.00  0.00    -0.324 N 
HETATM    3  C   UNL     1      42.692 -15.212   4.359  1.00  0.00     0.326 C 
HETATM    4  O   UNL     1      42.889 -14.066   4.714  1.00  0.00    -0.247 OA
HETATM    5  N   UNL     1      42.395 -16.291   5.127  1.00  0.00    -0.268 N 
HETATM    6  C   UNL     1      42.211 -17.392   4.343  1.00  0.00     0.257 C 
HETATM    7  O   UNL     1      41.829 -18.489   4.728  1.00  0.00    -0.270 OA
HETATM    8  H   UNL     1      42.971 -14.954   2.321  1.00  0.00     0.165 HD
ENDROOT
BRANCH   1   9
HETATM    9  C   UNL     1      41.438 -17.379   1.841  1.00  0.00     0.027 C 
HETATM   10  C   UNL     1      41.776 -17.031   0.377  1.00  0.00     0.035 C 
HETATM   11  C   UNL     1      41.588 -15.566   0.020  1.00  0.00     0.235 C 
HETATM   12  N   UNL     1      40.176 -15.130   0.306  1.00  0.00    -0.067 N 
HETATM   13  H   UNL     1      39.572 -15.620  -0.364  1.00  0.00     0.280 HD
HETATM   14  C   UNL     1      39.684 -15.443   1.692  1.00  0.00     0.235 C 
HETATM   15  C   UNL     1      40.020 -16.859   2.137  1.00  0.00     0.035 C 
BRANCH  12  16
HETATM   16  C   UNL     1      39.971 -13.644   0.036  1.00  0.00     0.277 C 
BRANCH  16  17
HETATM   17  C   UNL     1      40.291 -13.228  -1.349  1.00  0.00     0.011 A 
HETATM   18  C   UNL     1      39.558 -13.535  -2.530  1.00  0.00     0.060 A 
HETATM   19  C   UNL     1      38.322 -14.351  -2.674  1.00  0.00     0.073 C 
HETATM   20  N   UNL     1      40.100 -12.961  -3.604  1.00  0.00    -0.178 NA
HETATM   21  N   UNL     1      41.208 -12.360  -3.149  1.00  0.00    -0.284 N 
HETATM   22  C   UNL     1      42.086 -11.681  -4.073  1.00  0.00     0.179 C 
HETATM   23  C   UNL     1      41.353 -12.464  -1.794  1.00  0.00     0.122 A 
ENDBRANCH  16  17
ENDBRANCH  12  16
ENDBRANCH   1   9
BRANCH   1  24
HETATM   24  C   UNL     1      43.957 -17.703   2.609  1.00  0.00     0.082 C 
BRANCH  24  25
HETATM   25  C   UNL     1      44.036 -19.214   2.725  1.00  0.00    -0.034 A 
HETATM   26  C   UNL     1      44.624 -19.890   3.809  1.00  0.00     0.040 A 
HETATM   27 CL   UNL     1      45.353 -19.065   5.137  1.00  0.00    -0.084 Cl
HETATM   28  C   UNL     1      44.672 -21.290   3.842  1.00  0.00     0.024 A 
HETATM   29  C   UNL     1      44.147 -22.039   2.792  1.00  0.00     0.002 A 
HETATM   30  C   UNL     1      43.588 -21.390   1.698  1.00  0.00     0.001 A 
HETATM   31  C   UNL     1      43.545 -19.995   1.659  1.00  0.00     0.009 A 
ENDBRANCH  24  25
ENDBRANCH   1  24
BRANCH   5  32
HETATM   32  C   UNL     1      42.233 -16.255   6.565  1.00  0.00     0.141 C 
BRANCH  32  33
HETATM   33  C   UNL     1      43.458 -16.802   7.232  1.00  0.00     0.004 A 
HETATM   34  C   UNL     1      43.471 -17.067   8.717  1.00  0.00     0.007 A 
HETATM   35  C   UNL     1      43.477 -18.217   7.748  1.00  0.00     0.007 A 
ENDBRANCH  32  33
ENDBRANCH   5  32
TORSDOF 7
ENDMDL
MODEL 3
REMARK VINA RESULT:      -9.0      3.251      8.716
REMARK  7 active torsions:
REMARK  status: ('A' for Active; 'I' for Inactive)
REMARK    1  A    between atoms: C_7  and  C_8 
REMARK    2  A    between atoms: C_8  and  N_9 
REMARK    3  A    between atoms: C_13  and  C_14 
REMARK    4  A    between atoms: C_14  and  C_15 
REMARK    5  A    between atoms: C_15  and  C_16 
REMARK    6  A    between atoms: N_26  and  C_27 
REMARK    7  A    between atoms: C_27  and  C_28 
ROOT
HETATM    1  C   UNL     1      40.550 -14.585   2.826  1.00  0.00     0.123 C 
HETATM    2  N   UNL     1      41.856 -14.108   2.396  1.00  0.00    -0.324 N 
HETATM    3  C   UNL     1      42.789 -14.094   3.406  1.00  0.00     0.326 C 
HETATM    4  O   UNL     1      43.963 -13.828   3.234  1.00  0.00    -0.247 OA
HETATM    5  N   UNL     1      42.152 -14.371   4.572  1.00  0.00    -0.268 N 
HETATM    6  C   UNL     1      40.823 -14.580   4.345  1.00  0.00     0.257 C 
HETATM    7  O   UNL     1      39.968 -14.744   5.205  1.00  0.00    -0.270 OA
HETATM    8  H   UNL     1      42.161 -14.001   1.433  1.00  0.00     0.165 HD
ENDROOT
BRANCH   1   9
HETATM    9  C   UNL     1      39.434 -13.592   2.358  1.00  0.00     0.027 C 
HETATM   10  C   UNL     1      38.338 -14.210   1.467  1.00  0.00     0.035 C 
HETATM   11  C   UNL     1      38.728 -14.357   0.005  1.00  0.00     0.235 C 
HETATM   12  N   UNL     1      39.125 -13.025  -0.572  1.00  0.00    -0.067 N 
HETATM   13  H   UNL     1      38.274 -12.451  -0.607  1.00  0.00     0.280 HD
HETATM   14  C   UNL     1      40.162 -12.276   0.217  1.00  0.00     0.235 C 
HETATM   15  C   UNL     1      39.880 -12.267   1.712  1.00  0.00     0.035 C 
BRANCH  12  16
HETATM   16  C   UNL     1      39.600 -13.146  -2.015  1.00  0.00     0.277 C 
BRANCH  16  17
HETATM   17  C   UNL     1      38.613 -13.766  -2.930  1.00  0.00     0.011 A 
HETATM   18  C   UNL     1      38.720 -15.027  -3.584  1.00  0.00     0.060 A 
HETATM   19  C   UNL     1      39.834 -16.011  -3.532  1.00  0.00     0.073 C 
HETATM   20  N   UNL     1      37.629 -15.299  -4.300  1.00  0.00    -0.178 NA
HETATM   21  N   UNL     1      36.861 -14.207  -4.184  1.00  0.00    -0.284 N 
HETATM   22  C   UNL     1      35.607 -14.134  -4.896  1.00  0.00     0.179 C 
HETATM   23  C   UNL     1      37.393 -13.268  -3.346  1.00  0.00     0.122 A 
ENDBRANCH  16  17
ENDBRANCH  12  16
ENDBRANCH   1   9
BRANCH   1  24
HETATM   24  C   UNL     1      40.348 -16.082   2.430  1.00  0.00     0.082 C 
BRANCH  24  25
HETATM   25  C   UNL     1      41.605 -16.903   2.206  1.00  0.00    -0.034 A 
HETATM   26  C   UNL     1      42.289 -16.972   0.979  1.00  0.00     0.040 A 
HETATM   27 CL   UNL     1      41.756 -16.140  -0.434  1.00  0.00    -0.084 Cl
HETATM   28  C   UNL     1      43.438 -17.763   0.842  1.00  0.00     0.024 A 
HETATM   29  C   UNL     1      43.916 -18.505   1.918  1.00  0.00     0.002 A 
HETATM   30  C   UNL     1      43.238 -18.474   3.131  1.00  0.00     0.001 A 
HETATM   31  C   UNL     1      42.089 -17.692   3.268  1.00  0.00     0.009 A 
ENDBRANCH  24  25
ENDBRANCH   1  24
BRANCH   5  32
HETATM   32  C   UNL     1      42.787 -14.375   5.873  1.00  0.00     0.141 C 
BRANCH  32  33
HETATM   33  C   UNL     1      43.340 -15.736   6.168  1.00  0.00     0.004 A 
HETATM   34  C   UNL     1      43.674 -16.141   7.582  1.00  0.00     0.007 A 
HETATM   35  C   UNL     1      42.499 -16.763   6.880  1.00  0.00     0.007 A 
ENDBRANCH  32  33
ENDBRANCH   5  32
TORSDOF 7
ENDMDL
MODEL 4
REMARK VINA RESULT:      -8.9      2.739      6.688
REMARK  7 active torsions:
REMARK  status: ('A' for Active; 'I' for Inactive)
REMARK    1  A    between atoms: C_7  and  C_8 
REMARK    2  A    between atoms: C_8  and  N_9 
REMARK    3  A    between atoms: C_13  and  C_14 
REMARK    4  A    between atoms: C_14  and  C_15 
REMARK    5  A    between atoms: C_15  and  C_16 
REMARK    6  A    between atoms: N_26  and  C_27 
REMARK    7  A    between atoms: C_27  and  C_28 
ROOT
HETATM    1  C   UNL     1      42.927 -16.717   2.752  1.00  0.00     0.123 C 
HETATM    2  N   UNL     1      43.145 -15.323   2.397  1.00  0.00    -0.324 N 
HETATM    3  C   UNL     1      43.265 -14.496   3.489  1.00  0.00     0.326 C 
HETATM    4  O   UNL     1      43.553 -13.317   3.411  1.00  0.00    -0.247 OA
HETATM    5  N   UNL     1      42.964 -15.217   4.599  1.00  0.00    -0.268 N 
HETATM    6  C   UNL     1      42.662 -16.503   4.258  1.00  0.00     0.257 C 
HETATM    7  O   UNL     1      42.247 -17.366   5.020  1.00  0.00    -0.270 OA
HETATM    8  H   UNL     1      43.411 -14.980   1.479  1.00  0.00     0.165 HD
ENDROOT
BRANCH   1   9
HETATM    9  C   UNL     1      41.712 -17.293   1.950  1.00  0.00     0.027 C 
HETATM   10  C   UNL     1      41.779 -17.087   0.423  1.00  0.00     0.035 C 
HETATM   11  C   UNL     1      41.348 -15.706  -0.043  1.00  0.00     0.235 C 
HETATM   12  N   UNL     1      39.949 -15.404   0.424  1.00  0.00    -0.067 N 
HETATM   13  H   UNL     1      39.322 -16.037  -0.087  1.00  0.00     0.280 HD
HETATM   14  C   UNL     1      39.716 -15.603   1.896  1.00  0.00     0.235 C 
HETATM   15  C   UNL     1      40.297 -16.908   2.419  1.00  0.00     0.035 C 
BRANCH  12  16
HETATM   16  C   UNL     1      39.512 -13.994   0.044  1.00  0.00     0.277 C 
BRANCH  16  17
HETATM   17  C   UNL     1      40.617 -13.009  -0.014  1.00  0.00     0.011 A 
HETATM   18  C   UNL     1      41.098 -12.192   1.048  1.00  0.00     0.060 A 
HETATM   19  C   UNL     1      40.610 -12.106   2.451  1.00  0.00     0.073 C 
HETATM   20  N   UNL     1      42.136 -11.451   0.662  1.00  0.00    -0.178 NA
HETATM   21  N   UNL     1      42.280 -11.716  -0.644  1.00  0.00    -0.284 N 
HETATM   22  C   UNL     1      43.294 -11.027  -1.407  1.00  0.00     0.179 C 
HETATM   23  C   UNL     1      41.412 -12.670  -1.094  1.00  0.00     0.122 A 
ENDBRANCH  16  17
ENDBRANCH  12  16
ENDBRANCH   1   9
BRANCH   1  24
HETATM   24  C   UNL     1      44.258 -17.528   2.661  1.00  0.00     0.082 C 
BRANCH  24  25
HETATM   25  C   UNL     1      44.148 -19.036   2.802  1.00  0.00    -0.034 A 
HETATM   26  C   UNL     1      44.511 -19.745   3.961  1.00  0.00     0.040 A 
HETATM   27 CL   UNL     1      45.154 -18.973   5.363  1.00  0.00    -0.084 Cl
HETATM   28  C   UNL     1      44.394 -21.140   4.015  1.00  0.00     0.024 A 
HETATM   29  C   UNL     1      43.926 -21.852   2.915  1.00  0.00     0.002 A 
HETATM   30  C   UNL     1      43.589 -21.174   1.749  1.00  0.00     0.001 A 
HETATM   31  C   UNL     1      43.711 -19.784   1.690  1.00  0.00     0.009 A 
ENDBRANCH  24  25
ENDBRANCH   1  24
BRANCH   5  32
HETATM   32  C   UNL     1      42.909 -14.674   5.939  1.00  0.00     0.141 C 
BRANCH  32  33
HETATM   33  C   UNL     1      44.231 -14.856   6.621  1.00  0.00     0.004 A 
HETATM   34  C   UNL     1      45.316 -13.817   6.484  1.00  0.00     0.007 A 
HETATM   35  C   UNL     1      44.606 -13.995   7.799  1.00  0.00     0.007 A 
ENDBRANCH  32  33
ENDBRANCH   5  32
TORSDOF 7
ENDMDL
MODEL 5
REMARK VINA RESULT:      -8.8      3.381      6.505
REMARK  7 active torsions:
REMARK  status: ('A' for Active; 'I' for Inactive)
REMARK    1  A    between atoms: C_7  and  C_8 
REMARK    2  A    between atoms: C_8  and  N_9 
REMARK    3  A    between atoms: C_13  and  C_14 
REMARK    4  A    between atoms: C_14  and  C_15 
REMARK    5  A    between atoms: C_15  and  C_16 
REMARK    6  A    between atoms: N_26  and  C_27 
REMARK    7  A    between atoms: C_27  and  C_28 
ROOT
HETATM    1  C   UNL     1      42.598 -17.045   2.978  1.00  0.00     0.123 C 
HETATM    2  N   UNL     1      42.711 -15.601   3.116  1.00  0.00    -0.324 N 
HETATM    3  C   UNL     1      42.593 -15.168   4.416  1.00  0.00     0.326 C 
HETATM    4  O   UNL     1      42.759 -14.013   4.759  1.00  0.00    -0.247 OA
HETATM    5  N   UNL     1      42.224 -16.227   5.181  1.00  0.00    -0.268 N 
HETATM    6  C   UNL     1      42.112 -17.348   4.412  1.00  0.00     0.257 C 
HETATM    7  O   UNL     1      41.693 -18.434   4.789  1.00  0.00    -0.270 OA
HETATM    8  H   UNL     1      43.060 -14.963   2.407  1.00  0.00     0.165 HD
ENDROOT
BRANCH   1   9
HETATM    9  C   UNL     1      41.572 -17.399   1.851  1.00  0.00     0.027 C 
HETATM   10  C   UNL     1      41.982 -16.958   0.430  1.00  0.00     0.035 C 
HETATM   11  C   UNL     1      41.711 -15.494   0.126  1.00  0.00     0.235 C 
HETATM   12  N   UNL     1      40.255 -15.173   0.330  1.00  0.00    -0.067 N 
HETATM   13  H   UNL     1      39.735 -15.671  -0.402  1.00  0.00     0.280 HD
HETATM   14  C   UNL     1      39.695 -15.587   1.663  1.00  0.00     0.235 C 
HETATM   15  C   UNL     1      40.103 -16.996   2.067  1.00  0.00     0.035 C 
BRANCH  12  16
HETATM   16  C   UNL     1      39.960 -13.694   0.112  1.00  0.00     0.277 C 
BRANCH  16  17
HETATM   17  C   UNL     1      39.678 -12.940   1.356  1.00  0.00     0.011 A 
HETATM   18  C   UNL     1      38.448 -12.327   1.730  1.00  0.00     0.060 A 
HETATM   19  C   UNL     1      37.167 -12.272   0.976  1.00  0.00     0.073 C 
HETATM   20  N   UNL     1      38.528 -11.770   2.939  1.00  0.00    -0.178 NA
HETATM   21  N   UNL     1      39.804 -11.943   3.311  1.00  0.00    -0.284 N 
HETATM   22  C   UNL     1      40.263 -11.398   4.568  1.00  0.00     0.179 C 
HETATM   23  C   UNL     1      40.531 -12.667   2.409  1.00  0.00     0.122 A 
ENDBRANCH  16  17
ENDBRANCH  12  16
ENDBRANCH   1   9
BRANCH   1  24
HETATM   24  C   UNL     1      44.009 -17.703   2.856  1.00  0.00     0.082 C 
BRANCH  24  25
HETATM   25  C   UNL     1      44.055 -19.220   2.848  1.00  0.00    -0.034 A 
HETATM   26  C   UNL     1      44.600 -19.995   3.886  1.00  0.00     0.040 A 
HETATM   27 CL   UNL     1      45.311 -19.299   5.295  1.00  0.00    -0.084 Cl
HETATM   28  C   UNL     1      44.620 -21.394   3.805  1.00  0.00     0.024 A 
HETATM   29  C   UNL     1      44.108 -22.042   2.684  1.00  0.00     0.002 A 
HETATM   30  C   UNL     1      43.591 -21.294   1.633  1.00  0.00     0.001 A 
HETATM   31  C   UNL     1      43.576 -19.900   1.709  1.00  0.00     0.009 A 
ENDBRANCH  24  25
ENDBRANCH   1  24
BRANCH   5  32
HETATM   32  C   UNL     1      41.930 -16.153   6.597  1.00  0.00     0.141 C 
BRANCH  32  33
HETATM   33  C   UNL     1      43.205 -16.150   7.385  1.00  0.00     0.004 A 
HETATM   34  C   UNL     1      43.553 -17.305   8.290  1.00  0.00     0.007 A 
HETATM   35  C   UNL     1      44.329 -17.083   7.020  1.00  0.00     0.007 A 
ENDBRANCH  32  33
ENDBRANCH   5  32
TORSDOF 7
ENDMDL
MODEL 6
REMARK VINA RESULT:      -8.7      2.910      4.213
REMARK  7 active torsions:
REMARK  status: ('A' for Active; 'I' for Inactive)
REMARK    1  A    between atoms: C_7  and  C_8 
REMARK    2  A    between atoms: C_8  and  N_9 
REMARK    3  A    between atoms: C_13  and  C_14 
REMARK    4  A    between atoms: C_14  and  C_15 
REMARK    5  A    between atoms: C_15  and  C_16 
REMARK    6  A    between atoms: N_26  and  C_27 
REMARK    7  A    between atoms: C_27  and  C_28 
ROOT
HETATM    1  C   UNL     1      42.781 -17.292   3.367  1.00  0.00     0.123 C 
HETATM    2  N   UNL     1      41.680 -18.010   2.743  1.00  0.00    -0.324 N 
HETATM    3  C   UNL     1      41.205 -17.395   1.608  1.00  0.00     0.326 C 
HETATM    4  O   UNL     1      40.359 -17.883   0.882  1.00  0.00    -0.247 OA
HETATM    5  N   UNL     1      41.805 -16.182   1.503  1.00  0.00    -0.268 N 
HETATM    6  C   UNL     1      42.673 -15.995   2.537  1.00  0.00     0.257 C 
HETATM    7  O   UNL     1      43.283 -14.962   2.781  1.00  0.00    -0.270 OA
HETATM    8  H   UNL     1      41.404 -18.966   2.945  1.00  0.00     0.165 HD
ENDROOT
BRANCH   1   9
HETATM    9  C   UNL     1      42.508 -17.115   4.898  1.00  0.00     0.027 C 
HETATM   10  C   UNL     1      41.116 -16.555   5.254  1.00  0.00     0.035 C 
HETATM   11  C   UNL     1      40.995 -15.045   5.124  1.00  0.00     0.235 C 
HETATM   12  N   UNL     1      42.025 -14.357   5.979  1.00  0.00    -0.067 N 
HETATM   13  H   UNL     1      41.767 -14.536   6.957  1.00  0.00     0.280 HD
HETATM   14  C   UNL     1      43.437 -14.831   5.775  1.00  0.00     0.235 C 
HETATM   15  C   UNL     1      43.554 -16.348   5.727  1.00  0.00     0.035 C 
BRANCH  12  16
HETATM   16  C   UNL     1      41.987 -12.843   5.812  1.00  0.00     0.277 C 
BRANCH  16  17
HETATM   17  C   UNL     1      40.706 -12.321   5.282  1.00  0.00     0.011 A 
HETATM   18  C   UNL     1      39.522 -12.035   6.019  1.00  0.00     0.060 A 
HETATM   19  C   UNL     1      39.269 -12.202   7.476  1.00  0.00     0.073 C 
HETATM   20  N   UNL     1      38.568 -11.534   5.236  1.00  0.00    -0.178 NA
HETATM   21  N   UNL     1      39.086 -11.568   4.000  1.00  0.00    -0.284 N 
HETATM   22  C   UNL     1      38.285 -11.146   2.875  1.00  0.00     0.179 C 
HETATM   23  C   UNL     1      40.381 -12.004   3.976  1.00  0.00     0.122 A 
ENDBRANCH  16  17
ENDBRANCH  12  16
ENDBRANCH   1   9
BRANCH   1  24
HETATM   24  C   UNL     1      44.151 -17.935   2.983  1.00  0.00     0.082 C 
BRANCH  24  25
HETATM   25  C   UNL     1      44.231 -19.450   3.032  1.00  0.00    -0.034 A 
HETATM   26  C   UNL     1      44.648 -20.179   4.159  1.00  0.00     0.040 A 
HETATM   27 CL   UNL     1      45.148 -19.422   5.626  1.00  0.00    -0.084 Cl
HETATM   28  C   UNL     1      44.709 -21.579   4.127  1.00  0.00     0.024 A 
HETATM   29  C   UNL     1      44.367 -22.273   2.970  1.00  0.00     0.002 A 
HETATM   30  C   UNL     1      43.979 -21.571   1.835  1.00  0.00     0.001 A 
HETATM   31  C   UNL     1      43.924 -20.176   1.863  1.00  0.00     0.009 A 
ENDBRANCH  24  25
ENDBRANCH   1  24
BRANCH   5  32
HETATM   32  C   UNL     1      41.509 -15.207   0.474  1.00  0.00     0.141 C 
BRANCH  32  33
HETATM   33  C   UNL     1      40.549 -14.184   0.999  1.00  0.00     0.004 A 
HETATM   34  C   UNL     1      39.338 -13.782   0.194  1.00  0.00     0.007 A 
HETATM   35  C   UNL     1      39.171 -14.593   1.450  1.00  0.00     0.007 A 
ENDBRANCH  32  33
ENDBRANCH   5  32
TORSDOF 7
ENDMDL
MODEL 7
REMARK VINA RESULT:      -8.6      2.573      3.418
REMARK  7 active torsions:
REMARK  status: ('A' for Active; 'I' for Inactive)
REMARK    1  A    between atoms: C_7  and  C_8 
REMARK    2  A    between atoms: C_8  and  N_9 
REMARK    3  A    between atoms: C_13  and  C_14 
REMARK    4  A    between atoms: C_14  and  C_15 
REMARK    5  A    between atoms: C_15  and  C_16 
REMARK    6  A    between atoms: N_26  and  C_27 
REMARK    7  A    between atoms: C_27  and  C_28 
ROOT
HETATM    1  C   UNL     1      42.436 -16.342   3.898  1.00  0.00     0.123 C 
HETATM    2  N   UNL     1      41.369 -17.224   3.450  1.00  0.00    -0.324 N 
HETATM    3  C   UNL     1      40.718 -16.765   2.329  1.00  0.00     0.326 C 
HETATM    4  O   UNL     1      39.867 -17.401   1.737  1.00  0.00    -0.247 OA
HETATM    5  N   UNL     1      41.162 -15.508   2.069  1.00  0.00    -0.268 N 
HETATM    6  C   UNL     1      42.100 -15.140   2.988  1.00  0.00     0.257 C 
HETATM    7  O   UNL     1      42.608 -14.032   3.087  1.00  0.00    -0.270 OA
HETATM    8  H   UNL     1      41.226 -18.183   3.753  1.00  0.00     0.165 HD
ENDROOT
BRANCH   1   9
HETATM    9  C   UNL     1      42.295 -16.062   5.431  1.00  0.00     0.027 C 
HETATM   10  C   UNL     1      40.926 -15.505   5.872  1.00  0.00     0.035 C 
HETATM   11  C   UNL     1      40.756 -14.011   5.649  1.00  0.00     0.235 C 
HETATM   12  N   UNL     1      41.839 -13.245   6.359  1.00  0.00    -0.067 N 
HETATM   13  H   UNL     1      41.673 -13.358   7.366  1.00  0.00     0.280 HD
HETATM   14  C   UNL     1      43.239 -13.705   6.062  1.00  0.00     0.235 C 
HETATM   15  C   UNL     1      43.390 -15.218   6.108  1.00  0.00     0.035 C 
BRANCH  12  16
HETATM   16  C   UNL     1      41.748 -11.747   6.092  1.00  0.00     0.277 C 
BRANCH  16  17
HETATM   17  C   UNL     1      40.662 -11.062   6.832  1.00  0.00     0.011 A 
HETATM   18  C   UNL     1      39.546 -10.374   6.277  1.00  0.00     0.060 A 
HETATM   19  C   UNL     1      39.203 -10.154   4.846  1.00  0.00     0.073 C 
HETATM   20  N   UNL     1      38.734  -9.914   7.229  1.00  0.00    -0.178 NA
HETATM   21  N   UNL     1      39.347 -10.222   8.381  1.00  0.00    -0.284 N 
HETATM   22  C   UNL     1      38.763  -9.810   9.636  1.00  0.00     0.179 C 
HETATM   23  C   UNL     1      40.495 -10.941   8.198  1.00  0.00     0.122 A 
ENDBRANCH  16  17
ENDBRANCH  12  16
ENDBRANCH   1   9
BRANCH   1  24
HETATM   24  C   UNL     1      43.827 -16.867   3.420  1.00  0.00     0.082 C 
BRANCH  24  25
HETATM   25  C   UNL     1      43.994 -18.373   3.332  1.00  0.00    -0.034 A 
HETATM   26  C   UNL     1      44.487 -19.172   4.379  1.00  0.00     0.040 A 
HETATM   27 CL   UNL     1      44.988 -18.517   5.894  1.00  0.00    -0.084 Cl
HETATM   28  C   UNL     1      44.626 -20.557   4.221  1.00  0.00     0.024 A 
HETATM   29  C   UNL     1      44.287 -21.167   3.017  1.00  0.00     0.002 A 
HETATM   30  C   UNL     1      43.825 -20.393   1.959  1.00  0.00     0.001 A 
HETATM   31  C   UNL     1      43.692 -19.011   2.112  1.00  0.00     0.009 A 
ENDBRANCH  24  25
ENDBRANCH   1  24
BRANCH   5  32
HETATM   32  C   UNL     1      40.659 -14.664   1.007  1.00  0.00     0.141 C 
BRANCH  32  33
HETATM   33  C   UNL     1      41.469 -14.867  -0.237  1.00  0.00     0.004 A 
HETATM   34  C   UNL     1      40.804 -14.906  -1.590  1.00  0.00     0.007 A 
HETATM   35  C   UNL     1      41.668 -13.734  -1.210  1.00  0.00     0.007 A 
ENDBRANCH  32  33
ENDBRANCH   5  32
TORSDOF 7
ENDMDL
MODEL 8
REMARK VINA RESULT:      -8.5      3.302      7.931
REMARK  7 active torsions:
REMARK  status: ('A' for Active; 'I' for Inactive)
REMARK    1  A    between atoms: C_7  and  C_8 
REMARK    2  A    between atoms: C_8  and  N_9 
REMARK    3  A    between atoms: C_13  and  C_14 
REMARK    4  A    between atoms: C_14  and  C_15 
REMARK    5  A    between atoms: C_15  and  C_16 
REMARK    6  A    between atoms: N_26  and  C_27 
REMARK    7  A    between atoms: C_27  and  C_28 
ROOT
HETATM    1  C   UNL     1      41.370 -15.881   3.904  1.00  0.00     0.123 C 
HETATM    2  N   UNL     1      42.673 -15.442   3.427  1.00  0.00    -0.324 N 
HETATM    3  C   UNL     1      42.958 -14.136   3.751  1.00  0.00     0.326 C 
HETATM    4  O   UNL     1      44.033 -13.609   3.535  1.00  0.00    -0.247 OA
HETATM    5  N   UNL     1      41.839 -13.579   4.281  1.00  0.00    -0.268 N 
HETATM    6  C   UNL     1      40.831 -14.496   4.324  1.00  0.00     0.257 C 
HETATM    7  O   UNL     1      39.672 -14.271   4.647  1.00  0.00    -0.270 OA
HETATM    8  H   UNL     1      43.416 -16.047   3.091  1.00  0.00     0.165 HD
ENDROOT
BRANCH   1   9
HETATM    9  C   UNL     1      40.575 -16.567   2.743  1.00  0.00     0.027 C 
HETATM   10  C   UNL     1      41.446 -17.224   1.652  1.00  0.00     0.035 C 
HETATM   11  C   UNL     1      41.992 -16.253   0.617  1.00  0.00     0.235 C 
HETATM   12  N   UNL     1      40.869 -15.504  -0.048  1.00  0.00    -0.067 N 
HETATM   13  H   UNL     1      40.347 -16.187  -0.610  1.00  0.00     0.280 HD
HETATM   14  C   UNL     1      39.903 -14.842   0.895  1.00  0.00     0.235 C 
HETATM   15  C   UNL     1      39.478 -15.745   2.043  1.00  0.00     0.035 C 
BRANCH  12  16
HETATM   16  C   UNL     1      41.382 -14.463  -1.036  1.00  0.00     0.277 C 
BRANCH  16  17
HETATM   17  C   UNL     1      40.340 -13.906  -1.928  1.00  0.00     0.011 A 
HETATM   18  C   UNL     1      39.673 -14.573  -2.995  1.00  0.00     0.060 A 
HETATM   19  C   UNL     1      39.864 -15.964  -3.486  1.00  0.00     0.073 C 
HETATM   20  N   UNL     1      38.756 -13.791  -3.564  1.00  0.00    -0.178 NA
HETATM   21  N   UNL     1      38.877 -12.611  -2.938  1.00  0.00    -0.284 N 
HETATM   22  C   UNL     1      38.061 -11.494  -3.353  1.00  0.00     0.179 C 
HETATM   23  C   UNL     1      39.794 -12.636  -1.925  1.00  0.00     0.122 A 
ENDBRANCH  16  17
ENDBRANCH  12  16
ENDBRANCH   1   9
BRANCH   1  24
HETATM   24  C   UNL     1      41.510 -16.705   5.222  1.00  0.00     0.082 C 
BRANCH  24  25
HETATM   25  C   UNL     1      42.795 -17.495   5.399  1.00  0.00    -0.034 A 
HETATM   26  C   UNL     1      43.865 -17.083   6.213  1.00  0.00     0.040 A 
HETATM   27 CL   UNL     1      43.848 -15.601   7.095  1.00  0.00    -0.084 Cl
HETATM   28  C   UNL     1      45.027 -17.858   6.318  1.00  0.00     0.024 A 
HETATM   29  C   UNL     1      45.147 -19.049   5.607  1.00  0.00     0.002 A 
HETATM   30  C   UNL     1      44.113 -19.460   4.774  1.00  0.00     0.001 A 
HETATM   31  C   UNL     1      42.957 -18.686   4.662  1.00  0.00     0.009 A 
ENDBRANCH  24  25
ENDBRANCH   1  24
BRANCH   5  32
HETATM   32  C   UNL     1      41.723 -12.192   4.678  1.00  0.00     0.141 C 
BRANCH  32  33
HETATM   33  C   UNL     1      41.669 -12.089   6.172  1.00  0.00     0.004 A 
HETATM   34  C   UNL     1      41.638 -10.742   6.849  1.00  0.00     0.007 A 
HETATM   35  C   UNL     1      40.414 -11.617   6.858  1.00  0.00     0.007 A 
ENDBRANCH  32  33
ENDBRANCH   5  32
TORSDOF 7
ENDMDL
MODEL 9
REMARK VINA RESULT:      -8.4      2.719      7.847
REMARK  7 active torsions:
REMARK  status: ('A' for Active; 'I' for Inactive)
REMARK    1  A    between atoms: C_7  and  C_8 
REMARK    2  A    between atoms: C_8  and  N_9 
REMARK    3  A    between atoms: C_13  and  C_14 
REMARK    4  A    between atoms: C_14  and  C_15 
REMARK    5  A    between atoms: C_15  and  C_16 
REMARK    6  A    between atoms: N_26  and  C_27 
REMARK    7  A    between atoms: C_27  and  C_28 
ROOT
HETATM    1  C   UNL     1      41.551 -16.541   3.536  1.00  0.00     0.123 C 
HETATM    2  N   UNL     1      42.743 -16.074   2.845  1.00  0.00    -0.324 N 
HETATM    3  C   UNL     1      43.385 -15.049   3.501  1.00  0.00     0.326 C 
HETATM    4  O   UNL     1      44.452 -14.587   3.145  1.00  0.00    -0.247 OA
HETATM    5  N   UNL     1      42.600 -14.653   4.535  1.00  0.00    -0.268 N 
HETATM    6  C   UNL     1      41.463 -15.405   4.579  1.00  0.00     0.257 C 
HETATM    7  O   UNL     1      40.512 -15.220   5.327  1.00  0.00    -0.270 OA
HETATM    8  H   UNL     1      43.217 -16.557   2.088  1.00  0.00     0.165 HD
ENDROOT
BRANCH   1   9
HETATM    9  C   UNL     1      40.344 -16.611   2.542  1.00  0.00     0.027 C 
HETATM   10  C   UNL     1      40.629 -17.350   1.218  1.00  0.00     0.035 C 
HETATM   11  C   UNL     1      41.354 -16.513   0.177  1.00  0.00     0.235 C 
HETATM   12  N   UNL     1      40.579 -15.260  -0.127  1.00  0.00    -0.067 N 
HETATM   13  H   UNL     1      39.720 -15.551  -0.609  1.00  0.00     0.280 HD
HETATM   14  C   UNL     1      40.188 -14.449   1.077  1.00  0.00     0.235 C 
HETATM   15  C   UNL     1      39.618 -15.296   2.204  1.00  0.00     0.035 C 
BRANCH  12  16
HETATM   16  C   UNL     1      41.316 -14.357  -1.109  1.00  0.00     0.277 C 
BRANCH  16  17
HETATM   17  C   UNL     1      40.428 -13.536  -1.965  1.00  0.00     0.011 A 
HETATM   18  C   UNL     1      39.658 -13.979  -3.078  1.00  0.00     0.060 A 
HETATM   19  C   UNL     1      39.566 -15.343  -3.665  1.00  0.00     0.073 C 
HETATM   20  N   UNL     1      38.933 -12.987  -3.595  1.00  0.00    -0.178 NA
HETATM   21  N   UNL     1      39.283 -11.902  -2.889  1.00  0.00    -0.284 N 
HETATM   22  C   UNL     1      38.723 -10.615  -3.229  1.00  0.00     0.179 C 
HETATM   23  C   UNL     1      40.156 -12.184  -1.876  1.00  0.00     0.122 A 
ENDBRANCH  16  17
ENDBRANCH  12  16
ENDBRANCH   1   9
BRANCH   1  24
HETATM   24  C   UNL     1      41.852 -17.842   4.345  1.00  0.00     0.082 C 
BRANCH  24  25
HETATM   25  C   UNL     1      42.935 -18.752   3.793  1.00  0.00    -0.034 A 
HETATM   26  C   UNL     1      44.139 -19.036   4.461  1.00  0.00     0.040 A 
HETATM   27 CL   UNL     1      44.537 -18.353   5.994  1.00  0.00    -0.084 Cl
HETATM   28  C   UNL     1      45.100 -19.876   3.884  1.00  0.00     0.024 A 
HETATM   29  C   UNL     1      44.883 -20.437   2.628  1.00  0.00     0.002 A 
HETATM   30  C   UNL     1      43.713 -20.146   1.937  1.00  0.00     0.001 A 
HETATM   31  C   UNL     1      42.757 -19.304   2.508  1.00  0.00     0.009 A 
ENDBRANCH  24  25
ENDBRANCH   1  24
BRANCH   5  32
HETATM   32  C   UNL     1      42.903 -13.546   5.417  1.00  0.00     0.141 C 
BRANCH  32  33
HETATM   33  C   UNL     1      44.199 -13.796   6.126  1.00  0.00     0.004 A 
HETATM   34  C   UNL     1      44.345 -13.483   7.594  1.00  0.00     0.007 A 
HETATM   35  C   UNL     1      44.315 -14.914   7.129  1.00  0.00     0.007 A 
ENDBRANCH  32  33
ENDBRANCH   5  32
TORSDOF 7
ENDMDL
MODEL 10
REMARK VINA RESULT:      -8.3      4.323      6.790
REMARK  7 active torsions:
REMARK  status: ('A' for Active; 'I' for Inactive)
REMARK    1  A    between atoms: C_7  and  C_8 
REMARK    2  A    between atoms: C_8  and  N_9 
REMARK    3  A    between atoms: C_13  and  C_14 
REMARK    4  A    between atoms: C_14  and  C_15 
REMARK    5  A    between atoms: C_15  and  C_16 
REMARK    6  A    between atoms: N_26  and  C_27 
REMARK    7  A    between atoms: C_27  and  C_28 
ROOT
HETATM    1  C   UNL     1      40.496 -14.893   1.041  1.00  0.00     0.123 C 
HETATM    2  N   UNL     1      41.630 -14.132   1.545  1.00  0.00    -0.324 N 
HETATM    3  C   UNL     1      41.859 -12.970   0.845  1.00  0.00     0.326 C 
HETATM    4  O   UNL     1      42.691 -12.144   1.167  1.00  0.00    -0.247 OA
HETATM    5  N   UNL     1      41.047 -12.966  -0.242  1.00  0.00    -0.268 N 
HETATM    6  C   UNL     1      40.280 -14.093  -0.263  1.00  0.00     0.257 C 
HETATM    7  O   UNL     1      39.529 -14.431  -1.168  1.00  0.00    -0.270 OA
HETATM    8  H   UNL     1      42.091 -14.276   2.438  1.00  0.00     0.165 HD
ENDROOT
BRANCH   1   9
HETATM    9  C   UNL     1      40.903 -16.389   0.831  1.00  0.00     0.027 C 
HETATM   10  C   UNL     1      40.505 -17.343   1.976  1.00  0.00     0.035 C 
HETATM   11  C   UNL     1      41.449 -17.322   3.167  1.00  0.00     0.235 C 
HETATM   12  N   UNL     1      42.852 -17.648   2.734  1.00  0.00    -0.067 N 
HETATM   13  H   UNL     1      42.853 -18.633   2.444  1.00  0.00     0.280 HD
HETATM   14  C   UNL     1      43.370 -16.824   1.587  1.00  0.00     0.235 C 
HETATM   15  C   UNL     1      42.366 -16.687   0.453  1.00  0.00     0.035 C 
BRANCH  12  16
HETATM   16  C   UNL     1      43.842 -17.557   3.889  1.00  0.00     0.277 C 
BRANCH  16  17
HETATM   17  C   UNL     1      44.059 -18.835   4.606  1.00  0.00     0.011 A 
HETATM   18  C   UNL     1      43.759 -19.118   5.969  1.00  0.00     0.060 A 
HETATM   19  C   UNL     1      43.182 -18.217   7.002  1.00  0.00     0.073 C 
HETATM   20  N   UNL     1      44.038 -20.385   6.277  1.00  0.00    -0.178 NA
HETATM   21  N   UNL     1      44.585 -20.895   5.165  1.00  0.00    -0.284 N 
HETATM   22  C   UNL     1      45.069 -22.256   5.165  1.00  0.00     0.179 C 
HETATM   23  C   UNL     1      44.593 -20.014   4.121  1.00  0.00     0.122 A 
ENDBRANCH  16  17
ENDBRANCH  12  16
ENDBRANCH   1   9
BRANCH   1  24
HETATM   24  C   UNL     1      39.227 -14.641   1.914  1.00  0.00     0.082 C 
BRANCH  24  25
HETATM   25  C   UNL     1      39.416 -13.804   3.166  1.00  0.00    -0.034 A 
HETATM   26  C   UNL     1      39.172 -12.421   3.231  1.00  0.00     0.040 A 
HETATM   27 CL   UNL     1      38.646 -11.502   1.869  1.00  0.00    -0.084 Cl
HETATM   28  C   UNL     1      39.381 -11.709   4.419  1.00  0.00     0.024 A 
HETATM   29  C   UNL     1      39.847 -12.360   5.559  1.00  0.00     0.002 A 
HETATM   30  C   UNL     1      40.122 -13.721   5.508  1.00  0.00     0.001 A 
HETATM   31  C   UNL     1      39.921 -14.431   4.323  1.00  0.00     0.009 A 
ENDBRANCH  24  25
ENDBRANCH   1  24
BRANCH   5  32
HETATM   32  C   UNL     1      41.049 -11.940  -1.263  1.00  0.00     0.141 C 
BRANCH  32  33
HETATM   33  C   UNL     1      42.104 -12.236  -2.285  1.00  0.00     0.004 A 
HETATM   34  C   UNL     1      41.752 -12.327  -3.749  1.00  0.00     0.007 A 
HETATM   35  C   UNL     1      42.562 -11.165  -3.241  1.00  0.00     0.007 A 
ENDBRANCH  32  33
ENDBRANCH   5  32
TORSDOF 7
ENDMDL
