MODEL 1
REMARK VINA RESULT:      -9.6      0.000      0.000
REMARK  6 active torsions:
REMARK  status: ('A' for Active; 'I' for Inactive)
REMARK    1  A    between atoms: C_4  and  C_5 
REMARK    2  A    between atoms: C_5  and  O_6 
REMARK    3  A    between atoms: O_6  and  C_7 
REMARK    4  A    between atoms: C_10  and  C_11 
REMARK    5  A    between atoms: C_17  and  C_18 
REMARK    6  A    between atoms: C_27  and  N_28 
ROOT
HETATM    1  C   UNL     1      40.922 -14.524   5.733  1.00  0.00     0.072 A 
HETATM    2  N   UNL     1      39.950 -14.032   6.577  1.00  0.00    -0.274 N 
HETATM    3  H   UNL     1      39.659 -14.410   7.473  1.00  0.00     0.189 HD
HETATM    4  N   UNL     1      39.337 -12.920   6.119  1.00  0.00    -0.148 NA
HETATM    5  C   UNL     1      39.951 -12.715   4.960  1.00  0.00     0.199 A 
HETATM    6  C   UNL     1      40.931 -13.659   4.651  1.00  0.00     0.040 A 
HETATM    7  C   UNL     1      41.689 -13.581   3.372  1.00  0.00     0.107 A 
HETATM    8  C   UNL     1      41.241 -12.378   2.548  1.00  0.00     0.081 A 
HETATM    9  C   UNL     1      41.938 -12.148   1.324  1.00  0.00     0.100 C 
HETATM   10  N   UNL     1      42.503 -11.966   0.328  1.00  0.00    -0.191 NA
HETATM   11  C   UNL     1      40.269 -11.521   2.959  1.00  0.00     0.140 A 
HETATM   12  O   UNL     1      39.592 -11.684   4.175  1.00  0.00    -0.277 OA
ENDROOT
BRANCH   7  13
HETATM   13  C   UNL     1      41.483 -14.910   2.671  1.00  0.00    -0.027 A 
HETATM   14  C   UNL     1      40.190 -15.351   2.388  1.00  0.00     0.124 A 
HETATM   15  N   UNL     1      39.894 -16.510   1.758  1.00  0.00    -0.273 NA
HETATM   16  C   UNL     1      40.937 -17.282   1.391  1.00  0.00     0.116 A 
HETATM   17  C   UNL     1      42.260 -16.950   1.629  1.00  0.00     0.020 A 
HETATM   18  C   UNL     1      42.535 -15.751   2.280  1.00  0.00     0.011 A 
ENDBRANCH   7  13
BRANCH  11  19
HETATM   19  N   UNL     1      39.841 -10.414   2.257  1.00  0.00    -0.282 NA
HETATM   20  H   UNL     1      40.561  -9.749   1.988  1.00  0.00     0.126 HD
HETATM   21  H   UNL     1      39.218 -10.665   1.492  1.00  0.00     0.126 HD
ENDBRANCH  11  19
BRANCH   1  22
HETATM   22  C   UNL     1      41.659 -15.753   5.981  1.00  0.00    -0.007 A 
HETATM   23  C   UNL     1      41.129 -16.984   5.576  1.00  0.00     0.016 A 
HETATM   24  C   UNL     1      41.897 -18.144   5.673  1.00  0.00     0.037 A 
HETATM   25  C   UNL     1      43.203 -18.074   6.152  1.00  0.00     0.069 A 
HETATM   26  C   UNL     1      43.715 -16.868   6.628  1.00  0.00     0.037 A 
HETATM   27  C   UNL     1      42.943 -15.707   6.538  1.00  0.00     0.016 A 
BRANCH  25  28
HETATM   28  O   UNL     1      43.925 -19.236   6.136  1.00  0.00    -0.347 OA
BRANCH  28  29
HETATM   29  C   UNL     1      44.986 -19.211   5.171  1.00  0.00     0.214 C 
BRANCH  29  30
HETATM   30  C   UNL     1      44.639 -20.128   4.022  1.00  0.00    -0.034 A 
HETATM   31  C   UNL     1      44.840 -21.512   4.138  1.00  0.00     0.009 A 
HETATM   32  C   UNL     1      44.479 -22.372   3.099  1.00  0.00     0.001 A 
HETATM   33  C   UNL     1      43.906 -21.858   1.938  1.00  0.00     0.000 A 
HETATM   34  C   UNL     1      43.694 -20.486   1.814  1.00  0.00     0.001 A 
HETATM   35  C   UNL     1      44.057 -19.624   2.851  1.00  0.00     0.009 A 
ENDBRANCH  29  30
ENDBRANCH  28  29
ENDBRANCH  25  28
ENDBRANCH   1  22
TORSDOF 6
ENDMDL
MODEL 2
REMARK VINA RESULT:      -8.7      1.278      1.814
REMARK  6 active torsions:
REMARK  status: ('A' for Active; 'I' for Inactive)
REMARK    1  A    between atoms: C_4  and  C_5 
REMARK    2  A    between atoms: C_5  and  O_6 
REMARK    3  A    between atoms: O_6  and  C_7 
REMARK    4  A    between atoms: C_10  and  C_11 
REMARK    5  A    between atoms: C_17  and  C_18 
REMARK    6  A    between atoms: C_27  and  N_28 
ROOT
HETATM    1  C   UNL     1      40.595 -13.679   5.883  1.00  0.00     0.072 A 
HETATM    2  N   UNL     1      39.723 -13.438   6.922  1.00  0.00    -0.274 N 
HETATM    3  H   UNL     1      39.641 -13.952   7.793  1.00  0.00     0.189 HD
HETATM    4  N   UNL     1      38.897 -12.391   6.713  1.00  0.00    -0.148 NA
HETATM    5  C   UNL     1      39.273 -11.968   5.513  1.00  0.00     0.199 A 
HETATM    6  C   UNL     1      40.305 -12.711   4.936  1.00  0.00     0.040 A 
HETATM    7  C   UNL     1      40.818 -12.378   3.579  1.00  0.00     0.107 A 
HETATM    8  C   UNL     1      40.080 -11.176   2.999  1.00  0.00     0.081 A 
HETATM    9  C   UNL     1      40.522 -10.709   1.726  1.00  0.00     0.100 C 
HETATM   10  N   UNL     1      40.882 -10.335   0.688  1.00  0.00    -0.191 NA
HETATM   11  C   UNL     1      39.085 -10.528   3.662  1.00  0.00     0.140 A 
HETATM   12  O   UNL     1      38.652 -10.925   4.935  1.00  0.00    -0.277 OA
ENDROOT
BRANCH   7  13
HETATM   13  C   UNL     1      40.677 -13.638   2.747  1.00  0.00    -0.027 A 
HETATM   14  C   UNL     1      41.806 -14.211   2.160  1.00  0.00     0.124 A 
HETATM   15  N   UNL     1      41.794 -15.336   1.412  1.00  0.00    -0.273 NA
HETATM   16  C   UNL     1      40.597 -15.927   1.225  1.00  0.00     0.116 A 
HETATM   17  C   UNL     1      39.411 -15.442   1.749  1.00  0.00     0.020 A 
HETATM   18  C   UNL     1      39.452 -14.280   2.516  1.00  0.00     0.011 A 
ENDBRANCH   7  13
BRANCH  11  19
HETATM   19  N   UNL     1      38.400  -9.431   3.187  1.00  0.00    -0.282 NA
HETATM   20  H   UNL     1      38.810  -8.960   2.384  1.00  0.00     0.126 HD
HETATM   21  H   UNL     1      37.406  -9.619   3.077  1.00  0.00     0.126 HD
ENDBRANCH  11  19
BRANCH   1  22
HETATM   22  C   UNL     1      41.522 -14.800   5.851  1.00  0.00    -0.007 A 
HETATM   23  C   UNL     1      41.056 -16.090   5.570  1.00  0.00     0.016 A 
HETATM   24  C   UNL     1      41.958 -17.138   5.387  1.00  0.00     0.037 A 
HETATM   25  C   UNL     1      43.327 -16.895   5.463  1.00  0.00     0.069 A 
HETATM   26  C   UNL     1      43.800 -15.632   5.817  1.00  0.00     0.037 A 
HETATM   27  C   UNL     1      42.896 -14.585   6.006  1.00  0.00     0.016 A 
BRANCH  25  28
HETATM   28  O   UNL     1      44.152 -17.950   5.187  1.00  0.00    -0.347 OA
BRANCH  28  29
HETATM   29  C   UNL     1      44.064 -18.374   3.819  1.00  0.00     0.214 C 
BRANCH  29  30
HETATM   30  C   UNL     1      44.254 -19.871   3.745  1.00  0.00    -0.034 A 
HETATM   31  C   UNL     1      44.079 -20.546   2.527  1.00  0.00     0.009 A 
HETATM   32  C   UNL     1      44.298 -21.921   2.439  1.00  0.00     0.001 A 
HETATM   33  C   UNL     1      44.702 -22.635   3.565  1.00  0.00     0.000 A 
HETATM   34  C   UNL     1      44.887 -21.975   4.779  1.00  0.00     0.001 A 
HETATM   35  C   UNL     1      44.666 -20.599   4.870  1.00  0.00     0.009 A 
ENDBRANCH  29  30
ENDBRANCH  28  29
ENDBRANCH  25  28
ENDBRANCH   1  22
TORSDOF 6
ENDMDL
MODEL 3
REMARK VINA RESULT:      -8.6      1.923      4.285
REMARK  6 active torsions:
REMARK  status: ('A' for Active; 'I' for Inactive)
REMARK    1  A    between atoms: C_4  and  C_5 
REMARK    2  A    between atoms: C_5  and  O_6 
REMARK    3  A    between atoms: O_6  and  C_7 
REMARK    4  A    between atoms: C_10  and  C_11 
REMARK    5  A    between atoms: C_17  and  C_18 
REMARK    6  A    between atoms: C_27  and  N_28 
ROOT
HETATM    1  C   UNL     1      41.884 -15.451   0.950  1.00  0.00     0.072 A 
HETATM    2  N   UNL     1      42.095 -15.031  -0.346  1.00  0.00    -0.274 N 
HETATM    3  H   UNL     1      42.591 -15.522  -1.082  1.00  0.00     0.189 HD
HETATM    4  N   UNL     1      41.567 -13.820  -0.623  1.00  0.00    -0.148 NA
HETATM    5  C   UNL     1      41.008 -13.483   0.533  1.00  0.00     0.199 A 
HETATM    6  C   UNL     1      41.165 -14.429   1.548  1.00  0.00     0.040 A 
HETATM    7  C   UNL     1      40.620 -14.183   2.911  1.00  0.00     0.107 A 
HETATM    8  C   UNL     1      39.912 -12.834   2.977  1.00  0.00     0.081 A 
HETATM    9  C   UNL     1      39.283 -12.503   4.214  1.00  0.00     0.100 C 
HETATM   10  N   UNL     1      38.776 -12.236   5.222  1.00  0.00    -0.191 NA
HETATM   11  C   UNL     1      39.821 -11.993   1.912  1.00  0.00     0.140 A 
HETATM   12  O   UNL     1      40.385 -12.299   0.666  1.00  0.00    -0.277 OA
ENDROOT
BRANCH   7  13
HETATM   13  C   UNL     1      41.789 -14.304   3.868  1.00  0.00    -0.027 A 
HETATM   14  C   UNL     1      42.888 -13.454   3.732  1.00  0.00     0.124 A 
HETATM   15  N   UNL     1      43.974 -13.468   4.536  1.00  0.00    -0.273 NA
HETATM   16  C   UNL     1      43.980 -14.380   5.529  1.00  0.00     0.116 A 
HETATM   17  C   UNL     1      42.952 -15.280   5.752  1.00  0.00     0.020 A 
HETATM   18  C   UNL     1      41.845 -15.243   4.908  1.00  0.00     0.011 A 
ENDBRANCH   7  13
BRANCH  11  19
HETATM   19  N   UNL     1      39.181 -10.772   1.919  1.00  0.00    -0.282 NA
HETATM   20  H   UNL     1      39.028 -10.352   2.833  1.00  0.00     0.126 HD
HETATM   21  H   UNL     1      39.582 -10.126   1.243  1.00  0.00     0.126 HD
ENDBRANCH  11  19
BRANCH   1  22
HETATM   22  C   UNL     1      42.427 -16.685   1.497  1.00  0.00    -0.007 A 
HETATM   23  C   UNL     1      41.568 -17.657   2.025  1.00  0.00     0.016 A 
HETATM   24  C   UNL     1      42.068 -18.901   2.408  1.00  0.00     0.037 A 
HETATM   25  C   UNL     1      43.422 -19.185   2.244  1.00  0.00     0.069 A 
HETATM   26  C   UNL     1      44.298 -18.200   1.790  1.00  0.00     0.037 A 
HETATM   27  C   UNL     1      43.798 -16.952   1.413  1.00  0.00     0.016 A 
BRANCH  25  28
HETATM   28  O   UNL     1      43.824 -20.454   2.558  1.00  0.00    -0.347 OA
BRANCH  28  29
HETATM   29  C   UNL     1      45.004 -20.470   3.375  1.00  0.00     0.214 C 
BRANCH  29  30
HETATM   30  C   UNL     1      44.618 -20.246   4.818  1.00  0.00    -0.034 A 
HETATM   31  C   UNL     1      44.611 -18.949   5.354  1.00  0.00     0.009 A 
HETATM   32  C   UNL     1      44.211 -18.727   6.672  1.00  0.00     0.001 A 
HETATM   33  C   UNL     1      43.806 -19.798   7.466  1.00  0.00     0.000 A 
HETATM   34  C   UNL     1      43.800 -21.090   6.943  1.00  0.00     0.001 A 
HETATM   35  C   UNL     1      44.203 -21.315   5.624  1.00  0.00     0.009 A 
ENDBRANCH  29  30
ENDBRANCH  28  29
ENDBRANCH  25  28
ENDBRANCH   1  22
TORSDOF 6
ENDMDL
MODEL 4
REMARK VINA RESULT:      -8.5      1.641      4.150
REMARK  6 active torsions:
REMARK  status: ('A' for Active; 'I' for Inactive)
REMARK    1  A    between atoms: C_4  and  C_5 
REMARK    2  A    between atoms: C_5  and  O_6 
REMARK    3  A    between atoms: O_6  and  C_7 
REMARK    4  A    between atoms: C_10  and  C_11 
REMARK    5  A    between atoms: C_17  and  C_18 
REMARK    6  A    between atoms: C_27  and  N_28 
ROOT
HETATM    1  C   UNL     1      41.438 -13.655   1.975  1.00  0.00     0.072 A 
HETATM    2  N   UNL     1      41.738 -12.707   1.020  1.00  0.00    -0.274 N 
HETATM    3  H   UNL     1      42.125 -12.862   0.095  1.00  0.00     0.189 HD
HETATM    4  N   UNL     1      41.476 -11.440   1.403  1.00  0.00    -0.148 NA
HETATM    5  C   UNL     1      40.993 -11.608   2.628  1.00  0.00     0.199 A 
HETATM    6  C   UNL     1      40.945 -12.937   3.052  1.00  0.00     0.040 A 
HETATM    7  C   UNL     1      40.455 -13.286   4.414  1.00  0.00     0.107 A 
HETATM    8  C   UNL     1      40.043 -12.034   5.180  1.00  0.00     0.081 A 
HETATM    9  C   UNL     1      39.490 -12.234   6.480  1.00  0.00     0.100 C 
HETATM   10  N   UNL     1      39.045 -12.400   7.538  1.00  0.00    -0.191 NA
HETATM   11  C   UNL     1      40.136 -10.782   4.657  1.00  0.00     0.140 A 
HETATM   12  O   UNL     1      40.630 -10.545   3.367  1.00  0.00    -0.277 OA
ENDROOT
BRANCH   7  13
HETATM   13  C   UNL     1      41.569 -14.069   5.082  1.00  0.00    -0.027 A 
HETATM   14  C   UNL     1      42.797 -13.455   5.329  1.00  0.00     0.124 A 
HETATM   15  N   UNL     1      43.850 -14.055   5.927  1.00  0.00    -0.273 NA
HETATM   16  C   UNL     1      43.683 -15.341   6.298  1.00  0.00     0.116 A 
HETATM   17  C   UNL     1      42.514 -16.054   6.093  1.00  0.00     0.020 A 
HETATM   18  C   UNL     1      41.446 -15.410   5.474  1.00  0.00     0.011 A 
ENDBRANCH   7  13
BRANCH  11  19
HETATM   19  N   UNL     1      39.764  -9.623   5.304  1.00  0.00    -0.282 NA
HETATM   20  H   UNL     1      39.170  -8.987   4.777  1.00  0.00     0.126 HD
HETATM   21  H   UNL     1      39.423  -9.804   6.245  1.00  0.00     0.126 HD
ENDBRANCH  11  19
BRANCH   1  22
HETATM   22  C   UNL     1      41.709 -15.075   1.815  1.00  0.00    -0.007 A 
HETATM   23  C   UNL     1      42.998 -15.574   2.037  1.00  0.00     0.016 A 
HETATM   24  C   UNL     1      43.228 -16.949   2.036  1.00  0.00     0.037 A 
HETATM   25  C   UNL     1      42.167 -17.830   1.835  1.00  0.00     0.069 A 
HETATM   26  C   UNL     1      40.895 -17.344   1.538  1.00  0.00     0.037 A 
HETATM   27  C   UNL     1      40.667 -15.966   1.532  1.00  0.00     0.016 A 
BRANCH  25  28
HETATM   28  O   UNL     1      42.451 -19.164   1.934  1.00  0.00    -0.347 OA
BRANCH  28  29
HETATM   29  C   UNL     1      43.858 -19.435   1.853  1.00  0.00     0.214 C 
BRANCH  29  30
HETATM   30  C   UNL     1      44.240 -20.422   2.931  1.00  0.00    -0.034 A 
HETATM   31  C   UNL     1      44.404 -19.991   4.257  1.00  0.00     0.009 A 
HETATM   32  C   UNL     1      44.712 -20.904   5.267  1.00  0.00     0.001 A 
HETATM   33  C   UNL     1      44.850 -22.257   4.964  1.00  0.00     0.000 A 
HETATM   34  C   UNL     1      44.682 -22.698   3.652  1.00  0.00     0.001 A 
HETATM   35  C   UNL     1      44.377 -21.786   2.639  1.00  0.00     0.009 A 
ENDBRANCH  29  30
ENDBRANCH  28  29
ENDBRANCH  25  28
ENDBRANCH   1  22
TORSDOF 6
ENDMDL
MODEL 5
REMARK VINA RESULT:      -8.3      2.929      4.744
REMARK  6 active torsions:
REMARK  status: ('A' for Active; 'I' for Inactive)
REMARK    1  A    between atoms: C_4  and  C_5 
REMARK    2  A    between atoms: C_5  and  O_6 
REMARK    3  A    between atoms: O_6  and  C_7 
REMARK    4  A    between atoms: C_10  and  C_11 
REMARK    5  A    between atoms: C_17  and  C_18 
REMARK    6  A    between atoms: C_27  and  N_28 
ROOT
HETATM    1  C   UNL     1      40.975 -15.527  -0.196  1.00  0.00     0.072 A 
HETATM    2  N   UNL     1      41.578 -15.763  -1.413  1.00  0.00    -0.274 N 
HETATM    3  H   UNL     1      42.368 -16.370  -1.605  1.00  0.00     0.189 HD
HETATM    4  N   UNL     1      41.025 -15.083  -2.439  1.00  0.00    -0.148 NA
HETATM    5  C   UNL     1      40.048 -14.412  -1.842  1.00  0.00     0.199 A 
HETATM    6  C   UNL     1      39.957 -14.627  -0.466  1.00  0.00     0.040 A 
HETATM    7  C   UNL     1      38.930 -13.924   0.350  1.00  0.00     0.107 A 
HETATM    8  C   UNL     1      38.069 -13.018  -0.524  1.00  0.00     0.081 A 
HETATM    9  C   UNL     1      36.999 -12.334   0.126  1.00  0.00     0.100 C 
HETATM   10  N   UNL     1      36.132 -11.777   0.658  1.00  0.00    -0.191 NA
HETATM   11  C   UNL     1      38.254 -12.891  -1.865  1.00  0.00     0.140 A 
HETATM   12  O   UNL     1      39.264 -13.581  -2.550  1.00  0.00    -0.277 OA
ENDROOT
BRANCH   7  13
HETATM   13  C   UNL     1      39.682 -13.182   1.439  1.00  0.00    -0.027 A 
HETATM   14  C   UNL     1      40.600 -12.189   1.094  1.00  0.00     0.124 A 
HETATM   15  N   UNL     1      41.313 -11.461   1.982  1.00  0.00    -0.273 NA
HETATM   16  C   UNL     1      41.114 -11.734   3.287  1.00  0.00     0.116 A 
HETATM   17  C   UNL     1      40.238 -12.704   3.744  1.00  0.00     0.020 A 
HETATM   18  C   UNL     1      39.517 -13.439   2.807  1.00  0.00     0.011 A 
ENDBRANCH   7  13
BRANCH  11  19
HETATM   19  N   UNL     1      37.494 -12.098  -2.698  1.00  0.00    -0.282 NA
HETATM   20  H   UNL     1      36.499 -12.055  -2.490  1.00  0.00     0.126 HD
HETATM   21  H   UNL     1      37.915 -11.183  -2.842  1.00  0.00     0.126 HD
ENDBRANCH  11  19
BRANCH   1  22
HETATM   22  C   UNL     1      41.447 -16.088   1.060  1.00  0.00    -0.007 A 
HETATM   23  C   UNL     1      40.554 -16.742   1.919  1.00  0.00     0.016 A 
HETATM   24  C   UNL     1      41.028 -17.412   3.046  1.00  0.00     0.037 A 
HETATM   25  C   UNL     1      42.396 -17.450   3.307  1.00  0.00     0.069 A 
HETATM   26  C   UNL     1      43.286 -16.740   2.503  1.00  0.00     0.037 A 
HETATM   27  C   UNL     1      42.810 -16.062   1.378  1.00  0.00     0.016 A 
BRANCH  25  28
HETATM   28  O   UNL     1      42.794 -18.199   4.380  1.00  0.00    -0.347 OA
BRANCH  28  29
HETATM   29  C   UNL     1      44.198 -18.494   4.354  1.00  0.00     0.214 C 
BRANCH  29  30
HETATM   30  C   UNL     1      44.395 -19.966   4.079  1.00  0.00    -0.034 A 
HETATM   31  C   UNL     1      44.682 -20.849   5.132  1.00  0.00     0.009 A 
HETATM   32  C   UNL     1      44.819 -22.217   4.895  1.00  0.00     0.001 A 
HETATM   33  C   UNL     1      44.663 -22.719   3.604  1.00  0.00     0.000 A 
HETATM   34  C   UNL     1      44.370 -21.853   2.551  1.00  0.00     0.001 A 
HETATM   35  C   UNL     1      44.235 -20.483   2.786  1.00  0.00     0.009 A 
ENDBRANCH  29  30
ENDBRANCH  28  29
ENDBRANCH  25  28
ENDBRANCH   1  22
TORSDOF 6
ENDMDL
MODEL 6
REMARK VINA RESULT:      -8.2      2.179      4.636
REMARK  6 active torsions:
REMARK  status: ('A' for Active; 'I' for Inactive)
REMARK    1  A    between atoms: C_4  and  C_5 
REMARK    2  A    between atoms: C_5  and  O_6 
REMARK    3  A    between atoms: O_6  and  C_7 
REMARK    4  A    between atoms: C_10  and  C_11 
REMARK    5  A    between atoms: C_17  and  C_18 
REMARK    6  A    between atoms: C_27  and  N_28 
ROOT
HETATM    1  C   UNL     1      41.468 -15.603   0.044  1.00  0.00     0.072 A 
HETATM    2  N   UNL     1      41.678 -15.330  -1.291  1.00  0.00    -0.274 N 
HETATM    3  H   UNL     1      42.132 -15.921  -1.979  1.00  0.00     0.189 HD
HETATM    4  N   UNL     1      41.215 -14.125  -1.683  1.00  0.00    -0.148 NA
HETATM    5  C   UNL     1      40.697 -13.640  -0.561  1.00  0.00     0.199 A 
HETATM    6  C   UNL     1      40.820 -14.486   0.543  1.00  0.00     0.040 A 
HETATM    7  C   UNL     1      40.314 -14.072   1.880  1.00  0.00     0.107 A 
HETATM    8  C   UNL     1      39.685 -12.684   1.817  1.00  0.00     0.081 A 
HETATM    9  C   UNL     1      39.098 -12.194   3.022  1.00  0.00     0.100 C 
HETATM   10  N   UNL     1      38.626 -11.797   4.004  1.00  0.00    -0.191 NA
HETATM   11  C   UNL     1      39.622 -11.952   0.674  1.00  0.00     0.140 A 
HETATM   12  O   UNL     1      40.145 -12.415  -0.541  1.00  0.00    -0.277 OA
ENDROOT
BRANCH   7  13
HETATM   13  C   UNL     1      41.493 -14.163   2.831  1.00  0.00    -0.027 A 
HETATM   14  C   UNL     1      42.589 -13.317   2.658  1.00  0.00     0.124 A 
HETATM   15  N   UNL     1      43.683 -13.306   3.452  1.00  0.00    -0.273 NA
HETATM   16  C   UNL     1      43.699 -14.187   4.473  1.00  0.00     0.116 A 
HETATM   17  C   UNL     1      42.674 -15.080   4.733  1.00  0.00     0.020 A 
HETATM   18  C   UNL     1      41.559 -15.070   3.898  1.00  0.00     0.011 A 
ENDBRANCH   7  13
BRANCH  11  19
HETATM   19  N   UNL     1      39.052 -10.701   0.564  1.00  0.00    -0.282 NA
HETATM   20  H   UNL     1      38.143 -10.663   0.110  1.00  0.00     0.126 HD
HETATM   21  H   UNL     1      39.085 -10.188   1.442  1.00  0.00     0.126 HD
ENDBRANCH  11  19
BRANCH   1  22
HETATM   22  C   UNL     1      41.950 -16.805   0.707  1.00  0.00    -0.007 A 
HETATM   23  C   UNL     1      43.326 -17.052   0.802  1.00  0.00     0.016 A 
HETATM   24  C   UNL     1      43.796 -18.118   1.567  1.00  0.00     0.037 A 
HETATM   25  C   UNL     1      42.896 -18.928   2.256  1.00  0.00     0.069 A 
HETATM   26  C   UNL     1      41.522 -18.738   2.108  1.00  0.00     0.037 A 
HETATM   27  C   UNL     1      41.052 -17.674   1.336  1.00  0.00     0.016 A 
BRANCH  25  28
HETATM   28  O   UNL     1      43.433 -19.899   3.055  1.00  0.00    -0.347 OA
BRANCH  28  29
HETATM   29  C   UNL     1      44.622 -19.463   3.728  1.00  0.00     0.214 C 
BRANCH  29  30
HETATM   30  C   UNL     1      44.251 -18.861   5.063  1.00  0.00    -0.034 A 
HETATM   31  C   UNL     1      45.248 -18.357   5.912  1.00  0.00     0.009 A 
HETATM   32  C   UNL     1      44.910 -17.757   7.126  1.00  0.00     0.001 A 
HETATM   33  C   UNL     1      43.572 -17.648   7.500  1.00  0.00     0.000 A 
HETATM   34  C   UNL     1      42.572 -18.138   6.662  1.00  0.00     0.001 A 
HETATM   35  C   UNL     1      42.908 -18.741   5.447  1.00  0.00     0.009 A 
ENDBRANCH  29  30
ENDBRANCH  28  29
ENDBRANCH  25  28
ENDBRANCH   1  22
TORSDOF 6
ENDMDL
MODEL 7
REMARK VINA RESULT:      -7.9      2.409      4.292
REMARK  6 active torsions:
REMARK  status: ('A' for Active; 'I' for Inactive)
REMARK    1  A    between atoms: C_4  and  C_5 
REMARK    2  A    between atoms: C_5  and  O_6 
REMARK    3  A    between atoms: O_6  and  C_7 
REMARK    4  A    between atoms: C_10  and  C_11 
REMARK    5  A    between atoms: C_17  and  C_18 
REMARK    6  A    between atoms: C_27  and  N_28 
ROOT
HETATM    1  C   UNL     1      41.523 -16.044   2.032  1.00  0.00     0.072 A 
HETATM    2  N   UNL     1      42.380 -16.571   1.089  1.00  0.00    -0.274 N 
HETATM    3  H   UNL     1      43.177 -17.179   1.249  1.00  0.00     0.189 HD
HETATM    4  N   UNL     1      42.091 -16.208  -0.178  1.00  0.00    -0.148 NA
HETATM    5  C   UNL     1      41.022 -15.438  -0.016  1.00  0.00     0.199 A 
HETATM    6  C   UNL     1      40.616 -15.285   1.311  1.00  0.00     0.040 A 
HETATM    7  C   UNL     1      39.450 -14.428   1.658  1.00  0.00     0.107 A 
HETATM    8  C   UNL     1      38.832 -13.818   0.404  1.00  0.00     0.081 A 
HETATM    9  C   UNL     1      37.660 -13.026   0.590  1.00  0.00     0.100 C 
HETATM   10  N   UNL     1      36.710 -12.379   0.746  1.00  0.00    -0.191 NA
HETATM   11  C   UNL     1      39.318 -14.044  -0.845  1.00  0.00     0.140 A 
HETATM   12  O   UNL     1      40.439 -14.853  -1.077  1.00  0.00    -0.277 OA
ENDROOT
BRANCH   7  13
HETATM   13  C   UNL     1      39.955 -13.398   2.650  1.00  0.00    -0.027 A 
HETATM   14  C   UNL     1      40.853 -12.416   2.233  1.00  0.00     0.124 A 
HETATM   15  N   UNL     1      41.356 -11.446   3.029  1.00  0.00    -0.273 NA
HETATM   16  C   UNL     1      40.952 -11.450   4.315  1.00  0.00     0.116 A 
HETATM   17  C   UNL     1      40.073 -12.381   4.842  1.00  0.00     0.020 A 
HETATM   18  C   UNL     1      39.572 -13.369   3.998  1.00  0.00     0.011 A 
ENDBRANCH   7  13
BRANCH  11  19
HETATM   19  N   UNL     1      38.787 -13.528  -2.008  1.00  0.00    -0.282 NA
HETATM   20  H   UNL     1      38.130 -14.125  -2.504  1.00  0.00     0.126 HD
HETATM   21  H   UNL     1      38.450 -12.576  -1.884  1.00  0.00     0.126 HD
ENDBRANCH  11  19
BRANCH   1  22
HETATM   22  C   UNL     1      41.685 -16.234   3.465  1.00  0.00    -0.007 A 
HETATM   23  C   UNL     1      41.006 -17.271   4.117  1.00  0.00     0.016 A 
HETATM   24  C   UNL     1      41.275 -17.553   5.456  1.00  0.00     0.037 A 
HETATM   25  C   UNL     1      42.238 -16.815   6.141  1.00  0.00     0.069 A 
HETATM   26  C   UNL     1      42.865 -15.732   5.524  1.00  0.00     0.037 A 
HETATM   27  C   UNL     1      42.590 -15.446   4.185  1.00  0.00     0.016 A 
BRANCH  25  28
HETATM   28  O   UNL     1      42.511 -17.203   7.423  1.00  0.00    -0.347 OA
BRANCH  28  29
HETATM   29  C   UNL     1      43.869 -17.634   7.590  1.00  0.00     0.214 C 
BRANCH  29  30
HETATM   30  C   UNL     1      44.091 -18.907   6.808  1.00  0.00    -0.034 A 
HETATM   31  C   UNL     1      44.820 -18.882   5.609  1.00  0.00     0.009 A 
HETATM   32  C   UNL     1      45.070 -20.061   4.905  1.00  0.00     0.001 A 
HETATM   33  C   UNL     1      44.599 -21.278   5.395  1.00  0.00     0.000 A 
HETATM   34  C   UNL     1      43.880 -21.317   6.589  1.00  0.00     0.001 A 
HETATM   35  C   UNL     1      43.628 -20.138   7.294  1.00  0.00     0.009 A 
ENDBRANCH  29  30
ENDBRANCH  28  29
ENDBRANCH  25  28
ENDBRANCH   1  22
TORSDOF 6
ENDMDL
MODEL 8
REMARK VINA RESULT:      -7.9      2.101      3.367
REMARK  6 active torsions:
REMARK  status: ('A' for Active; 'I' for Inactive)
REMARK    1  A    between atoms: C_4  and  C_5 
REMARK    2  A    between atoms: C_5  and  O_6 
REMARK    3  A    between atoms: O_6  and  C_7 
REMARK    4  A    between atoms: C_10  and  C_11 
REMARK    5  A    between atoms: C_17  and  C_18 
REMARK    6  A    between atoms: C_27  and  N_28 
ROOT
HETATM    1  C   UNL     1      40.495 -13.930   4.234  1.00  0.00     0.072 A 
HETATM    2  N   UNL     1      40.042 -14.272   5.490  1.00  0.00    -0.274 N 
HETATM    3  H   UNL     1      40.253 -15.113   6.017  1.00  0.00     0.189 HD
HETATM    4  N   UNL     1      39.221 -13.355   6.045  1.00  0.00    -0.148 NA
HETATM    5  C   UNL     1      39.169 -12.416   5.108  1.00  0.00     0.199 A 
HETATM    6  C   UNL     1      39.920 -12.700   3.966  1.00  0.00     0.040 A 
HETATM    7  C   UNL     1      39.940 -11.757   2.814  1.00  0.00     0.107 A 
HETATM    8  C   UNL     1      39.077 -10.532   3.099  1.00  0.00     0.081 A 
HETATM    9  C   UNL     1      39.063  -9.514   2.099  1.00  0.00     0.100 C 
HETATM   10  N   UNL     1      39.051  -8.691   1.283  1.00  0.00    -0.191 NA
HETATM   11  C   UNL     1      38.389 -10.366   4.260  1.00  0.00     0.140 A 
HETATM   12  O   UNL     1      38.412 -11.320   5.286  1.00  0.00    -0.277 OA
ENDROOT
BRANCH   7  13
HETATM   13  C   UNL     1      39.489 -12.550   1.603  1.00  0.00    -0.027 A 
HETATM   14  C   UNL     1      40.350 -12.706   0.516  1.00  0.00     0.124 A 
HETATM   15  N   UNL     1      40.055 -13.401  -0.605  1.00  0.00    -0.273 NA
HETATM   16  C   UNL     1      38.834 -13.971  -0.659  1.00  0.00     0.116 A 
HETATM   17  C   UNL     1      37.895 -13.874   0.353  1.00  0.00     0.020 A 
HETATM   18  C   UNL     1      38.226 -13.151   1.496  1.00  0.00     0.011 A 
ENDBRANCH   7  13
BRANCH  11  19
HETATM   19  N   UNL     1      37.608  -9.273   4.569  1.00  0.00    -0.282 NA
HETATM   20  H   UNL     1      38.102  -8.455   4.918  1.00  0.00     0.126 HD
HETATM   21  H   UNL     1      36.945  -9.056   3.829  1.00  0.00     0.126 HD
ENDBRANCH  11  19
BRANCH   1  22
HETATM   22  C   UNL     1      41.326 -14.797   3.413  1.00  0.00    -0.007 A 
HETATM   23  C   UNL     1      42.719 -14.661   3.434  1.00  0.00     0.016 A 
HETATM   24  C   UNL     1      43.525 -15.586   2.771  1.00  0.00     0.037 A 
HETATM   25  C   UNL     1      42.942 -16.661   2.103  1.00  0.00     0.069 A 
HETATM   26  C   UNL     1      41.555 -16.764   2.012  1.00  0.00     0.037 A 
HETATM   27  C   UNL     1      40.748 -15.834   2.671  1.00  0.00     0.016 A 
BRANCH  25  28
HETATM   28  O   UNL     1      43.796 -17.574   1.550  1.00  0.00    -0.347 OA
BRANCH  28  29
HETATM   29  C   UNL     1      43.173 -18.848   1.330  1.00  0.00     0.214 C 
BRANCH  29  30
HETATM   30  C   UNL     1      43.734 -19.855   2.305  1.00  0.00    -0.034 A 
HETATM   31  C   UNL     1      43.824 -21.210   1.948  1.00  0.00     0.009 A 
HETATM   32  C   UNL     1      44.384 -22.140   2.825  1.00  0.00     0.001 A 
HETATM   33  C   UNL     1      44.867 -21.725   4.064  1.00  0.00     0.000 A 
HETATM   34  C   UNL     1      44.791 -20.381   4.428  1.00  0.00     0.001 A 
HETATM   35  C   UNL     1      44.229 -19.449   3.552  1.00  0.00     0.009 A 
ENDBRANCH  29  30
ENDBRANCH  28  29
ENDBRANCH  25  28
ENDBRANCH   1  22
TORSDOF 6
ENDMDL
MODEL 9
REMARK VINA RESULT:      -7.8      3.263      7.070
REMARK  6 active torsions:
REMARK  status: ('A' for Active; 'I' for Inactive)
REMARK    1  A    between atoms: C_4  and  C_5 
REMARK    2  A    between atoms: C_5  and  O_6 
REMARK    3  A    between atoms: O_6  and  C_7 
REMARK    4  A    between atoms: C_10  and  C_11 
REMARK    5  A    between atoms: C_17  and  C_18 
REMARK    6  A    between atoms: C_27  and  N_28 
ROOT
HETATM    1  C   UNL     1      41.198 -16.345   3.611  1.00  0.00     0.072 A 
HETATM    2  N   UNL     1      40.620 -17.573   3.852  1.00  0.00    -0.274 N 
HETATM    3  H   UNL     1      39.994 -18.091   3.245  1.00  0.00     0.189 HD
HETATM    4  N   UNL     1      40.948 -18.108   5.046  1.00  0.00    -0.148 NA
HETATM    5  C   UNL     1      41.757 -17.189   5.557  1.00  0.00     0.199 A 
HETATM    6  C   UNL     1      41.955 -16.075   4.739  1.00  0.00     0.040 A 
HETATM    7  C   UNL     1      42.814 -14.944   5.185  1.00  0.00     0.107 A 
HETATM    8  C   UNL     1      43.392 -15.215   6.570  1.00  0.00     0.081 A 
HETATM    9  C   UNL     1      44.291 -14.236   7.088  1.00  0.00     0.100 C 
HETATM   10  N   UNL     1      45.019 -13.436   7.508  1.00  0.00    -0.191 NA
HETATM   11  C   UNL     1      43.126 -16.347   7.274  1.00  0.00     0.140 A 
HETATM   12  O   UNL     1      42.286 -17.355   6.782  1.00  0.00    -0.277 OA
ENDROOT
BRANCH   7  13
HETATM   13  C   UNL     1      41.951 -13.699   5.119  1.00  0.00    -0.027 A 
HETATM   14  C   UNL     1      40.807 -13.606   5.912  1.00  0.00     0.124 A 
HETATM   15  N   UNL     1      39.977 -12.540   5.940  1.00  0.00    -0.273 NA
HETATM   16  C   UNL     1      40.290 -11.507   5.131  1.00  0.00     0.116 A 
HETATM   17  C   UNL     1      41.393 -11.494   4.294  1.00  0.00     0.020 A 
HETATM   18  C   UNL     1      42.231 -12.606   4.286  1.00  0.00     0.011 A 
ENDBRANCH   7  13
BRANCH  11  19
HETATM   19  N   UNL     1      43.636 -16.643   8.521  1.00  0.00    -0.282 NA
HETATM   20  H   UNL     1      42.996 -17.095   9.169  1.00  0.00     0.126 HD
HETATM   21  H   UNL     1      44.542 -17.101   8.464  1.00  0.00     0.126 HD
ENDBRANCH  11  19
BRANCH   1  22
HETATM   22  C   UNL     1      40.929 -15.545   2.426  1.00  0.00    -0.007 A 
HETATM   23  C   UNL     1      39.631 -15.088   2.166  1.00  0.00     0.016 A 
HETATM   24  C   UNL     1      39.397 -14.197   1.120  1.00  0.00     0.037 A 
HETATM   25  C   UNL     1      40.461 -13.742   0.345  1.00  0.00     0.069 A 
HETATM   26  C   UNL     1      41.745 -14.247   0.546  1.00  0.00     0.037 A 
HETATM   27  C   UNL     1      41.978 -15.146   1.589  1.00  0.00     0.016 A 
BRANCH  25  28
HETATM   28  O   UNL     1      40.170 -12.803  -0.605  1.00  0.00    -0.347 OA
BRANCH  28  29
HETATM   29  C   UNL     1      40.814 -13.070  -1.859  1.00  0.00     0.214 C 
BRANCH  29  30
HETATM   30  C   UNL     1      39.981 -14.050  -2.651  1.00  0.00    -0.034 A 
HETATM   31  C   UNL     1      40.510 -15.301  -3.006  1.00  0.00     0.009 A 
HETATM   32  C   UNL     1      39.732 -16.230  -3.698  1.00  0.00     0.001 A 
HETATM   33  C   UNL     1      38.416 -15.923  -4.035  1.00  0.00     0.000 A 
HETATM   34  C   UNL     1      37.876 -14.687  -3.681  1.00  0.00     0.001 A 
HETATM   35  C   UNL     1      38.654 -13.754  -2.991  1.00  0.00     0.009 A 
ENDBRANCH  29  30
ENDBRANCH  28  29
ENDBRANCH  25  28
ENDBRANCH   1  22
TORSDOF 6
ENDMDL
MODEL 10
REMARK VINA RESULT:      -7.8      1.573      2.385
REMARK  6 active torsions:
REMARK  status: ('A' for Active; 'I' for Inactive)
REMARK    1  A    between atoms: C_4  and  C_5 
REMARK    2  A    between atoms: C_5  and  O_6 
REMARK    3  A    between atoms: O_6  and  C_7 
REMARK    4  A    between atoms: C_10  and  C_11 
REMARK    5  A    between atoms: C_17  and  C_18 
REMARK    6  A    between atoms: C_27  and  N_28 
ROOT
HETATM    1  C   UNL     1      40.430 -13.343   5.115  1.00  0.00     0.072 A 
HETATM    2  N   UNL     1      39.411 -12.811   5.876  1.00  0.00    -0.274 N 
HETATM    3  H   UNL     1      39.206 -12.997   6.852  1.00  0.00     0.189 HD
HETATM    4  N   UNL     1      38.615 -11.953   5.204  1.00  0.00    -0.148 NA
HETATM    5  C   UNL     1      39.161 -11.948   3.994  1.00  0.00     0.199 A 
HETATM    6  C   UNL     1      40.274 -12.780   3.859  1.00  0.00     0.040 A 
HETATM    7  C   UNL     1      40.979 -12.905   2.554  1.00  0.00     0.107 A 
HETATM    8  C   UNL     1      40.324 -12.024   1.496  1.00  0.00     0.081 A 
HETATM    9  C   UNL     1      40.945 -11.999   0.212  1.00  0.00     0.100 C 
HETATM   10  N   UNL     1      41.451 -11.984  -0.832  1.00  0.00    -0.191 NA
HETATM   11  C   UNL     1      39.235 -11.249   1.749  1.00  0.00     0.140 A 
HETATM   12  O   UNL     1      38.622 -11.209   3.008  1.00  0.00    -0.277 OA
ENDROOT
BRANCH   7  13
HETATM   13  C   UNL     1      40.975 -14.380   2.205  1.00  0.00    -0.027 A 
HETATM   14  C   UNL     1      42.175 -15.024   1.901  1.00  0.00     0.124 A 
HETATM   15  N   UNL     1      42.287 -16.334   1.589  1.00  0.00    -0.273 NA
HETATM   16  C   UNL     1      41.145 -17.051   1.569  1.00  0.00     0.116 A 
HETATM   17  C   UNL     1      39.897 -16.516   1.842  1.00  0.00     0.020 A 
HETATM   18  C   UNL     1      39.813 -15.163   2.160  1.00  0.00     0.011 A 
ENDBRANCH   7  13
BRANCH  11  19
HETATM   19  N   UNL     1      38.617 -10.427   0.831  1.00  0.00    -0.282 NA
HETATM   20  H   UNL     1      39.046  -9.517   0.685  1.00  0.00     0.126 HD
HETATM   21  H   UNL     1      38.405 -10.915  -0.036  1.00  0.00     0.126 HD
ENDBRANCH  11  19
BRANCH   1  22
HETATM   22  C   UNL     1      41.362 -14.346   5.603  1.00  0.00    -0.007 A 
HETATM   23  C   UNL     1      42.696 -14.003   5.859  1.00  0.00     0.016 A 
HETATM   24  C   UNL     1      43.552 -14.918   6.470  1.00  0.00     0.037 A 
HETATM   25  C   UNL     1      43.073 -16.171   6.848  1.00  0.00     0.069 A 
HETATM   26  C   UNL     1      41.770 -16.551   6.531  1.00  0.00     0.037 A 
HETATM   27  C   UNL     1      40.914 -15.636   5.912  1.00  0.00     0.016 A 
BRANCH  25  28
HETATM   28  O   UNL     1      43.944 -16.982   7.520  1.00  0.00    -0.347 OA
BRANCH  28  29
HETATM   29  C   UNL     1      44.966 -17.518   6.669  1.00  0.00     0.214 C 
BRANCH  29  30
HETATM   30  C   UNL     1      44.638 -18.955   6.336  1.00  0.00    -0.034 A 
HETATM   31  C   UNL     1      45.097 -19.524   5.137  1.00  0.00     0.009 A 
HETATM   32  C   UNL     1      44.838 -20.864   4.843  1.00  0.00     0.001 A 
HETATM   33  C   UNL     1      44.126 -21.650   5.746  1.00  0.00     0.000 A 
HETATM   34  C   UNL     1      43.673 -21.098   6.944  1.00  0.00     0.001 A 
HETATM   35  C   UNL     1      43.929 -19.757   7.239  1.00  0.00     0.009 A 
ENDBRANCH  29  30
ENDBRANCH  28  29
ENDBRANCH  25  28
ENDBRANCH   1  22
TORSDOF 6
ENDMDL
