MODEL 1
REMARK VINA RESULT:      -9.2      0.000      0.000
REMARK  7 active torsions:
REMARK  status: ('A' for Active; 'I' for Inactive)
REMARK    1  A    between atoms: C_2  and  C_3 
REMARK    2  A    between atoms: C_4  and  O_5 
REMARK    3  A    between atoms: N_10  and  N_11 
REMARK       I    between atoms: N_11  and  C_12 
REMARK    4  A    between atoms: C_12  and  C_13 
REMARK    5  A    between atoms: C_16  and  C_17 
REMARK    6  A    between atoms: C_17  and  S_18 
REMARK    7  A    between atoms: S_18  and  C_19 
ROOT
HETATM    1  C   UNL     1      41.429 -14.886   5.378  1.00  0.00     0.033 A 
HETATM    2  C   UNL     1      42.479 -13.984   5.177  1.00  0.00     0.017 A 
HETATM    3  C   UNL     1      42.265 -12.611   5.325  1.00  0.00     0.009 A 
HETATM    4  C   UNL     1      40.995 -12.122   5.665  1.00  0.00    -0.048 A 
HETATM    5  C   UNL     1      39.935 -13.029   5.816  1.00  0.00     0.009 A 
HETATM    6  C   UNL     1      40.148 -14.403   5.672  1.00  0.00     0.017 A 
ENDROOT
BRANCH   1   7
HETATM    7  C   UNL     1      41.720 -16.343   5.277  1.00  0.00     0.271 C 
HETATM    8  N   UNL     1      42.866 -16.668   4.565  1.00  0.00    -0.243 N 
HETATM    9  H   UNL     1      43.391 -15.946   4.090  1.00  0.00     0.192 HD
HETATM   10  O   UNL     1      40.938 -17.156   5.759  1.00  0.00    -0.266 OA
BRANCH   8  11
HETATM   11  N   UNL     1      43.174 -17.975   4.360  1.00  0.00    -0.176 NA
HETATM   12  C   UNL     1      43.697 -18.345   3.226  1.00  0.00     0.064 C 
HETATM   13  C   UNL     1      43.984 -17.399   2.078  1.00  0.00     0.073 C 
BRANCH  12  14
HETATM   14  C   UNL     1      44.004 -19.800   3.051  1.00  0.00     0.023 A 
HETATM   15  C   UNL     1      44.553 -20.539   4.109  1.00  0.00     0.077 A 
HETATM   16  C   UNL     1      44.798 -21.903   3.971  1.00  0.00     0.037 A 
HETATM   17  C   UNL     1      44.525 -22.540   2.762  1.00  0.00     0.003 A 
HETATM   18  C   UNL     1      44.011 -21.811   1.690  1.00  0.00     0.001 A 
HETATM   19  C   UNL     1      43.753 -20.444   1.831  1.00  0.00     0.016 A 
BRANCH  15  20
HETATM   20  O   UNL     1      44.872 -19.991   5.323  1.00  0.00    -0.360 OA
HETATM   21  H   UNL     1      45.076 -19.037   5.184  1.00  0.00     0.217 HD
ENDBRANCH  15  20
ENDBRANCH  12  14
ENDBRANCH   8  11
ENDBRANCH   1   7
BRANCH   4  22
HETATM   22  C   UNL     1      40.772 -10.643   5.869  1.00  0.00     0.121 C 
BRANCH  22  23
HETATM   23  S   UNL     1      39.775 -10.296   7.347  1.00  0.00    -0.087 SA
BRANCH  23  24
HETATM   24  C   UNL     1      40.990 -10.465   8.558  1.00  0.00     0.167 A 
HETATM   25  N   UNL     1      42.277 -10.263   8.426  1.00  0.00    -0.223 NA
HETATM   26  C   UNL     1      42.802 -10.535   9.667  1.00  0.00     0.086 A 
HETATM   27  C   UNL     1      41.802 -10.902  10.564  1.00  0.00     0.063 A 
HETATM   28  C   UNL     1      44.132 -10.486  10.107  1.00  0.00     0.034 A 
HETATM   29  N   UNL     1      40.650 -10.851   9.821  1.00  0.00    -0.333 N 
HETATM   30  C   UNL     1      42.051 -11.229  11.898  1.00  0.00     0.032 A 
HETATM   31  H   UNL     1      39.714 -11.055  10.136  1.00  0.00     0.168 HD
HETATM   32  C   UNL     1      43.386 -11.175  12.318  1.00  0.00     0.002 A 
HETATM   33  C   UNL     1      44.411 -10.811  11.440  1.00  0.00     0.002 A 
ENDBRANCH  23  24
ENDBRANCH  22  23
ENDBRANCH   4  22
TORSDOF 7
ENDMDL
MODEL 2
REMARK VINA RESULT:      -9.0      1.430      1.846
REMARK  7 active torsions:
REMARK  status: ('A' for Active; 'I' for Inactive)
REMARK    1  A    between atoms: C_2  and  C_3 
REMARK    2  A    between atoms: C_4  and  O_5 
REMARK    3  A    between atoms: N_10  and  N_11 
REMARK       I    between atoms: N_11  and  C_12 
REMARK    4  A    between atoms: C_12  and  C_13 
REMARK    5  A    between atoms: C_16  and  C_17 
REMARK    6  A    between atoms: C_17  and  S_18 
REMARK    7  A    between atoms: S_18  and  C_19 
ROOT
HETATM    1  C   UNL     1      41.177 -14.769   5.154  1.00  0.00     0.033 A 
HETATM    2  C   UNL     1      42.272 -13.944   5.433  1.00  0.00     0.017 A 
HETATM    3  C   UNL     1      42.080 -12.708   6.056  1.00  0.00     0.009 A 
HETATM    4  C   UNL     1      40.790 -12.278   6.400  1.00  0.00    -0.048 A 
HETATM    5  C   UNL     1      39.693 -13.088   6.072  1.00  0.00     0.009 A 
HETATM    6  C   UNL     1      39.883 -14.327   5.452  1.00  0.00     0.017 A 
ENDROOT
BRANCH   1   7
HETATM    7  C   UNL     1      41.437 -16.106   4.552  1.00  0.00     0.271 C 
HETATM    8  N   UNL     1      42.315 -16.913   5.262  1.00  0.00    -0.243 N 
HETATM    9  H   UNL     1      42.791 -16.552   6.077  1.00  0.00     0.192 HD
HETATM   10  O   UNL     1      40.928 -16.399   3.474  1.00  0.00    -0.266 OA
BRANCH   8  11
HETATM   11  N   UNL     1      42.667 -18.123   4.752  1.00  0.00    -0.176 NA
HETATM   12  C   UNL     1      43.781 -18.682   5.128  1.00  0.00     0.064 C 
HETATM   13  C   UNL     1      44.751 -18.058   6.111  1.00  0.00     0.073 C 
BRANCH  12  14
HETATM   14  C   UNL     1      44.125 -20.007   4.525  1.00  0.00     0.023 A 
HETATM   15  C   UNL     1      44.041 -20.195   3.137  1.00  0.00     0.077 A 
HETATM   16  C   UNL     1      44.403 -21.411   2.561  1.00  0.00     0.037 A 
HETATM   17  C   UNL     1      44.826 -22.465   3.369  1.00  0.00     0.003 A 
HETATM   18  C   UNL     1      44.880 -22.303   4.753  1.00  0.00     0.001 A 
HETATM   19  C   UNL     1      44.529 -21.080   5.331  1.00  0.00     0.016 A 
BRANCH  15  20
HETATM   20  O   UNL     1      43.618 -19.222   2.271  1.00  0.00    -0.360 OA
HETATM   21  H   UNL     1      43.411 -19.652   1.407  1.00  0.00     0.217 HD
ENDBRANCH  15  20
ENDBRANCH  12  14
ENDBRANCH   8  11
ENDBRANCH   1   7
BRANCH   4  22
HETATM   22  C   UNL     1      40.585 -10.963   7.114  1.00  0.00     0.121 C 
BRANCH  22  23
HETATM   23  S   UNL     1      39.378 -11.097   8.464  1.00  0.00    -0.087 SA
BRANCH  23  24
HETATM   24  C   UNL     1      40.417 -10.800   9.807  1.00  0.00     0.167 A 
HETATM   25  N   UNL     1      41.602 -10.241   9.787  1.00  0.00    -0.223 NA
HETATM   26  C   UNL     1      42.009 -10.242  11.100  1.00  0.00     0.086 A 
HETATM   27  C   UNL     1      41.041 -10.810  11.925  1.00  0.00     0.063 A 
HETATM   28  C   UNL     1      43.200  -9.770  11.668  1.00  0.00     0.034 A 
HETATM   29  N   UNL     1      40.032 -11.161  11.065  1.00  0.00    -0.333 N 
HETATM   30  C   UNL     1      41.190 -10.936  13.308  1.00  0.00     0.032 A 
HETATM   31  H   UNL     1      39.157 -11.603  11.302  1.00  0.00     0.168 HD
HETATM   32  C   UNL     1      42.387 -10.458  13.855  1.00  0.00     0.002 A 
HETATM   33  C   UNL     1      43.377  -9.885  13.052  1.00  0.00     0.002 A 
ENDBRANCH  23  24
ENDBRANCH  22  23
ENDBRANCH   4  22
TORSDOF 7
ENDMDL
MODEL 3
REMARK VINA RESULT:      -8.9      3.178     10.006
REMARK  7 active torsions:
REMARK  status: ('A' for Active; 'I' for Inactive)
REMARK    1  A    between atoms: C_2  and  C_3 
REMARK    2  A    between atoms: C_4  and  O_5 
REMARK    3  A    between atoms: N_10  and  N_11 
REMARK       I    between atoms: N_11  and  C_12 
REMARK    4  A    between atoms: C_12  and  C_13 
REMARK    5  A    between atoms: C_16  and  C_17 
REMARK    6  A    between atoms: C_17  and  S_18 
REMARK    7  A    between atoms: S_18  and  C_19 
ROOT
HETATM    1  C   UNL     1      40.139 -11.900   6.145  1.00  0.00     0.033 A 
HETATM    2  C   UNL     1      39.067 -11.571   5.310  1.00  0.00     0.017 A 
HETATM    3  C   UNL     1      39.046 -12.012   3.984  1.00  0.00     0.009 A 
HETATM    4  C   UNL     1      40.103 -12.780   3.474  1.00  0.00    -0.048 A 
HETATM    5  C   UNL     1      41.199 -13.064   4.302  1.00  0.00     0.009 A 
HETATM    6  C   UNL     1      41.220 -12.627   5.630  1.00  0.00     0.017 A 
ENDROOT
BRANCH   1   7
HETATM    7  C   UNL     1      40.085 -11.467   7.568  1.00  0.00     0.271 C 
HETATM    8  N   UNL     1      41.311 -11.149   8.136  1.00  0.00    -0.243 N 
HETATM    9  H   UNL     1      42.165 -11.297   7.616  1.00  0.00     0.192 HD
HETATM   10  O   UNL     1      39.012 -11.464   8.165  1.00  0.00    -0.266 OA
BRANCH   8  11
HETATM   11  N   UNL     1      41.369 -10.812   9.451  1.00  0.00    -0.176 NA
HETATM   12  C   UNL     1      42.496 -10.912  10.094  1.00  0.00     0.064 C 
HETATM   13  C   UNL     1      43.786 -11.405   9.470  1.00  0.00     0.073 C 
BRANCH  12  14
HETATM   14  C   UNL     1      42.498 -10.540  11.544  1.00  0.00     0.023 A 
HETATM   15  C   UNL     1      41.496 -11.023  12.399  1.00  0.00     0.077 A 
HETATM   16  C   UNL     1      41.514 -10.720  13.758  1.00  0.00     0.037 A 
HETATM   17  C   UNL     1      42.520  -9.905  14.276  1.00  0.00     0.003 A 
HETATM   18  C   UNL     1      43.502  -9.389  13.432  1.00  0.00     0.001 A 
HETATM   19  C   UNL     1      43.492  -9.702  12.069  1.00  0.00     0.016 A 
BRANCH  15  20
HETATM   20  O   UNL     1      40.460 -11.812  11.973  1.00  0.00    -0.360 OA
HETATM   21  H   UNL     1      40.830 -12.509  11.382  1.00  0.00     0.217 HD
ENDBRANCH  15  20
ENDBRANCH  12  14
ENDBRANCH   8  11
ENDBRANCH   1   7
BRANCH   4  22
HETATM   22  C   UNL     1      40.062 -13.295   2.055  1.00  0.00     0.121 C 
BRANCH  22  23
HETATM   23  S   UNL     1      39.177 -14.875   1.924  1.00  0.00    -0.087 SA
BRANCH  23  24
HETATM   24  C   UNL     1      40.506 -15.962   2.069  1.00  0.00     0.167 A 
HETATM   25  N   UNL     1      41.403 -16.246   1.158  1.00  0.00    -0.223 NA
HETATM   26  C   UNL     1      42.235 -17.160   1.761  1.00  0.00     0.086 A 
HETATM   27  C   UNL     1      41.828 -17.423   3.067  1.00  0.00     0.063 A 
HETATM   28  C   UNL     1      43.367 -17.811   1.252  1.00  0.00     0.034 A 
HETATM   29  N   UNL     1      40.714 -16.640   3.234  1.00  0.00    -0.333 N 
HETATM   30  C   UNL     1      42.495 -18.311   3.913  1.00  0.00     0.032 A 
HETATM   31  H   UNL     1      40.142 -16.566   4.061  1.00  0.00     0.168 HD
HETATM   32  C   UNL     1      43.622 -18.951   3.386  1.00  0.00     0.002 A 
HETATM   33  C   UNL     1      44.054 -18.709   2.079  1.00  0.00     0.002 A 
ENDBRANCH  23  24
ENDBRANCH  22  23
ENDBRANCH   4  22
TORSDOF 7
ENDMDL
MODEL 4
REMARK VINA RESULT:      -8.7      5.464      8.431
REMARK  7 active torsions:
REMARK  status: ('A' for Active; 'I' for Inactive)
REMARK    1  A    between atoms: C_2  and  C_3 
REMARK    2  A    between atoms: C_4  and  O_5 
REMARK    3  A    between atoms: N_10  and  N_11 
REMARK       I    between atoms: N_11  and  C_12 
REMARK    4  A    between atoms: C_12  and  C_13 
REMARK    5  A    between atoms: C_16  and  C_17 
REMARK    6  A    between atoms: C_17  and  S_18 
REMARK    7  A    between atoms: S_18  and  C_19 
ROOT
HETATM    1  C   UNL     1      39.786 -14.644   2.570  1.00  0.00     0.033 A 
HETATM    2  C   UNL     1      38.706 -15.011   1.761  1.00  0.00     0.017 A 
HETATM    3  C   UNL     1      37.925 -14.031   1.143  1.00  0.00     0.009 A 
HETATM    4  C   UNL     1      38.208 -12.671   1.334  1.00  0.00    -0.048 A 
HETATM    5  C   UNL     1      39.262 -12.309   2.187  1.00  0.00     0.009 A 
HETATM    6  C   UNL     1      40.047 -13.288   2.803  1.00  0.00     0.017 A 
ENDROOT
BRANCH   1   7
HETATM    7  C   UNL     1      40.631 -15.722   3.152  1.00  0.00     0.271 C 
HETATM    8  N   UNL     1      40.985 -16.735   2.271  1.00  0.00    -0.243 N 
HETATM    9  H   UNL     1      40.607 -16.749   1.334  1.00  0.00     0.192 HD
HETATM   10  O   UNL     1      40.916 -15.697   4.346  1.00  0.00    -0.266 OA
BRANCH   8  11
HETATM   11  N   UNL     1      41.697 -17.798   2.730  1.00  0.00    -0.176 NA
HETATM   12  C   UNL     1      42.783 -18.163   2.112  1.00  0.00     0.064 C 
HETATM   13  C   UNL     1      43.323 -17.477   0.874  1.00  0.00     0.073 C 
BRANCH  12  14
HETATM   14  C   UNL     1      43.518 -19.349   2.653  1.00  0.00     0.023 A 
HETATM   15  C   UNL     1      44.140 -19.283   3.910  1.00  0.00     0.077 A 
HETATM   16  C   UNL     1      44.787 -20.396   4.442  1.00  0.00     0.037 A 
HETATM   17  C   UNL     1      44.846 -21.582   3.712  1.00  0.00     0.003 A 
HETATM   18  C   UNL     1      44.263 -21.651   2.447  1.00  0.00     0.001 A 
HETATM   19  C   UNL     1      43.603 -20.538   1.916  1.00  0.00     0.016 A 
BRANCH  15  20
HETATM   20  O   UNL     1      44.149 -18.154   4.686  1.00  0.00    -0.360 OA
HETATM   21  H   UNL     1      44.549 -18.386   5.557  1.00  0.00     0.217 HD
ENDBRANCH  15  20
ENDBRANCH  12  14
ENDBRANCH   8  11
ENDBRANCH   1   7
BRANCH   4  22
HETATM   22  C   UNL     1      37.394 -11.611   0.632  1.00  0.00     0.121 C 
BRANCH  22  23
HETATM   23  S   UNL     1      38.239 -10.956  -0.835  1.00  0.00    -0.087 SA
BRANCH  23  24
HETATM   24  C   UNL     1      38.481 -12.423  -1.707  1.00  0.00     0.167 A 
HETATM   25  N   UNL     1      37.607 -13.063  -2.444  1.00  0.00    -0.223 NA
HETATM   26  C   UNL     1      38.284 -14.164  -2.911  1.00  0.00     0.086 A 
HETATM   27  C   UNL     1      39.598 -14.179  -2.446  1.00  0.00     0.063 A 
HETATM   28  C   UNL     1      37.842 -15.201  -3.744  1.00  0.00     0.034 A 
HETATM   29  N   UNL     1      39.692 -13.049  -1.674  1.00  0.00    -0.333 N 
HETATM   30  C   UNL     1      40.513 -15.182  -2.769  1.00  0.00     0.032 A 
HETATM   31  H   UNL     1      40.502 -12.724  -1.169  1.00  0.00     0.168 HD
HETATM   32  C   UNL     1      40.051 -16.208  -3.602  1.00  0.00     0.002 A 
HETATM   33  C   UNL     1      38.739 -16.221  -4.082  1.00  0.00     0.002 A 
ENDBRANCH  23  24
ENDBRANCH  22  23
ENDBRANCH   4  22
TORSDOF 7
ENDMDL
MODEL 5
REMARK VINA RESULT:      -8.3      1.392      2.165
REMARK  7 active torsions:
REMARK  status: ('A' for Active; 'I' for Inactive)
REMARK    1  A    between atoms: C_2  and  C_3 
REMARK    2  A    between atoms: C_4  and  O_5 
REMARK    3  A    between atoms: N_10  and  N_11 
REMARK       I    between atoms: N_11  and  C_12 
REMARK    4  A    between atoms: C_12  and  C_13 
REMARK    5  A    between atoms: C_16  and  C_17 
REMARK    6  A    between atoms: C_17  and  S_18 
REMARK    7  A    between atoms: S_18  and  C_19 
ROOT
HETATM    1  C   UNL     1      40.868 -14.687   4.719  1.00  0.00     0.033 A 
HETATM    2  C   UNL     1      39.869 -14.300   5.619  1.00  0.00     0.017 A 
HETATM    3  C   UNL     1      39.249 -13.054   5.488  1.00  0.00     0.009 A 
HETATM    4  C   UNL     1      39.628 -12.175   4.462  1.00  0.00    -0.048 A 
HETATM    5  C   UNL     1      40.665 -12.550   3.594  1.00  0.00     0.009 A 
HETATM    6  C   UNL     1      41.284 -13.797   3.721  1.00  0.00     0.017 A 
ENDROOT
BRANCH   1   7
HETATM    7  C   UNL     1      41.451 -16.050   4.856  1.00  0.00     0.271 C 
HETATM    8  N   UNL     1      41.894 -16.624   3.672  1.00  0.00    -0.243 N 
HETATM    9  H   UNL     1      41.736 -16.156   2.791  1.00  0.00     0.192 HD
HETATM   10  O   UNL     1      41.462 -16.602   5.952  1.00  0.00    -0.266 OA
BRANCH   8  11
HETATM   11  N   UNL     1      42.376 -17.894   3.688  1.00  0.00    -0.176 NA
HETATM   12  C   UNL     1      43.293 -18.247   2.834  1.00  0.00     0.064 C 
HETATM   13  C   UNL     1      43.870 -17.322   1.782  1.00  0.00     0.073 C 
BRANCH  12  14
HETATM   14  C   UNL     1      43.777 -19.662   2.888  1.00  0.00     0.023 A 
HETATM   15  C   UNL     1      44.463 -20.132   4.018  1.00  0.00     0.077 A 
HETATM   16  C   UNL     1      44.876 -21.460   4.097  1.00  0.00     0.037 A 
HETATM   17  C   UNL     1      44.635 -22.329   3.033  1.00  0.00     0.003 A 
HETATM   18  C   UNL     1      43.986 -21.866   1.890  1.00  0.00     0.001 A 
HETATM   19  C   UNL     1      43.559 -20.537   1.814  1.00  0.00     0.016 A 
BRANCH  15  20
HETATM   20  O   UNL     1      44.760 -19.345   5.099  1.00  0.00    -0.360 OA
HETATM   21  H   UNL     1      45.248 -19.898   5.753  1.00  0.00     0.217 HD
ENDBRANCH  15  20
ENDBRANCH  12  14
ENDBRANCH   8  11
ENDBRANCH   1   7
BRANCH   4  22
HETATM   22  C   UNL     1      38.929 -10.848   4.292  1.00  0.00     0.121 C 
BRANCH  22  23
HETATM   23  S   UNL     1      39.982  -9.451   4.779  1.00  0.00    -0.087 SA
BRANCH  23  24
HETATM   24  C   UNL     1      40.231  -9.844   6.439  1.00  0.00     0.167 A 
HETATM   25  N   UNL     1      39.315 -10.030   7.357  1.00  0.00    -0.223 NA
HETATM   26  C   UNL     1      40.022 -10.312   8.502  1.00  0.00     0.086 A 
HETATM   27  C   UNL     1      41.393 -10.302   8.259  1.00  0.00     0.063 A 
HETATM   28  C   UNL     1      39.557 -10.593   9.794  1.00  0.00     0.034 A 
HETATM   29  N   UNL     1      41.495  -9.996   6.926  1.00  0.00    -0.333 N 
HETATM   30  C   UNL     1      42.348 -10.561   9.245  1.00  0.00     0.032 A 
HETATM   31  H   UNL     1      42.343  -9.899   6.388  1.00  0.00     0.168 HD
HETATM   32  C   UNL     1      41.864 -10.838  10.529  1.00  0.00     0.002 A 
HETATM   33  C   UNL     1      40.493 -10.854  10.803  1.00  0.00     0.002 A 
ENDBRANCH  23  24
ENDBRANCH  22  23
ENDBRANCH   4  22
TORSDOF 7
ENDMDL
MODEL 6
REMARK VINA RESULT:      -8.1      3.945      6.009
REMARK  7 active torsions:
REMARK  status: ('A' for Active; 'I' for Inactive)
REMARK    1  A    between atoms: C_2  and  C_3 
REMARK    2  A    between atoms: C_4  and  O_5 
REMARK    3  A    between atoms: N_10  and  N_11 
REMARK       I    between atoms: N_11  and  C_12 
REMARK    4  A    between atoms: C_12  and  C_13 
REMARK    5  A    between atoms: C_16  and  C_17 
REMARK    6  A    between atoms: C_17  and  S_18 
REMARK    7  A    between atoms: S_18  and  C_19 
ROOT
HETATM    1  C   UNL     1      41.787 -14.483   4.719  1.00  0.00     0.033 A 
HETATM    2  C   UNL     1      40.391 -14.408   4.761  1.00  0.00     0.017 A 
HETATM    3  C   UNL     1      39.750 -13.171   4.646  1.00  0.00     0.009 A 
HETATM    4  C   UNL     1      40.497 -11.993   4.497  1.00  0.00    -0.048 A 
HETATM    5  C   UNL     1      41.898 -12.072   4.507  1.00  0.00     0.009 A 
HETATM    6  C   UNL     1      42.542 -13.308   4.617  1.00  0.00     0.017 A 
ENDROOT
BRANCH   1   7
HETATM    7  C   UNL     1      42.423 -15.828   4.776  1.00  0.00     0.271 C 
HETATM    8  N   UNL     1      42.027 -16.711   3.781  1.00  0.00    -0.243 N 
HETATM    9  H   UNL     1      41.294 -16.452   3.134  1.00  0.00     0.192 HD
HETATM   10  O   UNL     1      43.192 -16.101   5.693  1.00  0.00    -0.266 OA
BRANCH   8  11
HETATM   11  N   UNL     1      42.501 -17.985   3.793  1.00  0.00    -0.176 NA
HETATM   12  C   UNL     1      43.349 -18.367   2.882  1.00  0.00     0.064 C 
HETATM   13  C   UNL     1      43.851 -17.474   1.766  1.00  0.00     0.073 C 
BRANCH  12  14
HETATM   14  C   UNL     1      43.826 -19.784   2.936  1.00  0.00     0.023 A 
HETATM   15  C   UNL     1      44.493 -20.262   4.074  1.00  0.00     0.077 A 
HETATM   16  C   UNL     1      44.900 -21.592   4.153  1.00  0.00     0.037 A 
HETATM   17  C   UNL     1      44.671 -22.455   3.082  1.00  0.00     0.003 A 
HETATM   18  C   UNL     1      44.041 -21.984   1.932  1.00  0.00     0.001 A 
HETATM   19  C   UNL     1      43.621 -20.653   1.855  1.00  0.00     0.016 A 
BRANCH  15  20
HETATM   20  O   UNL     1      44.778 -19.481   5.163  1.00  0.00    -0.360 OA
HETATM   21  H   UNL     1      44.169 -19.742   5.894  1.00  0.00     0.217 HD
ENDBRANCH  15  20
ENDBRANCH  12  14
ENDBRANCH   8  11
ENDBRANCH   1   7
BRANCH   4  22
HETATM   22  C   UNL     1      39.806 -10.662   4.329  1.00  0.00     0.121 C 
BRANCH  22  23
HETATM   23  S   UNL     1      38.808 -10.595   2.813  1.00  0.00    -0.087 SA
BRANCH  23  24
HETATM   24  C   UNL     1      40.068 -10.642   1.638  1.00  0.00     0.167 A 
HETATM   25  N   UNL     1      40.967  -9.719   1.398  1.00  0.00    -0.223 NA
HETATM   26  C   UNL     1      41.729 -10.233   0.376  1.00  0.00     0.086 A 
HETATM   27  C   UNL     1      41.278 -11.496   0.000  1.00  0.00     0.063 A 
HETATM   28  C   UNL     1      42.832  -9.675  -0.285  1.00  0.00     0.034 A 
HETATM   29  N   UNL     1      40.209 -11.730   0.827  1.00  0.00    -0.333 N 
HETATM   30  C   UNL     1      41.873 -12.252  -1.012  1.00  0.00     0.032 A 
HETATM   31  H   UNL     1      39.625 -12.551   0.847  1.00  0.00     0.168 HD
HETATM   32  C   UNL     1      42.972 -11.677  -1.660  1.00  0.00     0.002 A 
HETATM   33  C   UNL     1      43.446 -10.410  -1.306  1.00  0.00     0.002 A 
ENDBRANCH  23  24
ENDBRANCH  22  23
ENDBRANCH   4  22
TORSDOF 7
ENDMDL
MODEL 7
REMARK VINA RESULT:      -7.9      2.946     10.431
REMARK  7 active torsions:
REMARK  status: ('A' for Active; 'I' for Inactive)
REMARK    1  A    between atoms: C_2  and  C_3 
REMARK    2  A    between atoms: C_4  and  O_5 
REMARK    3  A    between atoms: N_10  and  N_11 
REMARK       I    between atoms: N_11  and  C_12 
REMARK    4  A    between atoms: C_12  and  C_13 
REMARK    5  A    between atoms: C_16  and  C_17 
REMARK    6  A    between atoms: C_17  and  S_18 
REMARK    7  A    between atoms: S_18  and  C_19 
ROOT
HETATM    1  C   UNL     1      40.674 -12.731   5.604  1.00  0.00     0.033 A 
HETATM    2  C   UNL     1      42.014 -13.119   5.498  1.00  0.00     0.017 A 
HETATM    3  C   UNL     1      42.471 -13.764   4.346  1.00  0.00     0.009 A 
HETATM    4  C   UNL     1      41.591 -14.037   3.288  1.00  0.00    -0.048 A 
HETATM    5  C   UNL     1      40.238 -13.690   3.421  1.00  0.00     0.009 A 
HETATM    6  C   UNL     1      39.780 -13.041   4.572  1.00  0.00     0.017 A 
ENDROOT
BRANCH   1   7
HETATM    7  C   UNL     1      40.249 -11.985   6.820  1.00  0.00     0.271 C 
HETATM    8  N   UNL     1      41.273 -11.360   7.518  1.00  0.00    -0.243 N 
HETATM    9  H   UNL     1      42.234 -11.495   7.238  1.00  0.00     0.192 HD
HETATM   10  O   UNL     1      39.071 -12.004   7.167  1.00  0.00    -0.266 OA
BRANCH   8  11
HETATM   11  N   UNL     1      40.990 -10.715   8.680  1.00  0.00    -0.176 NA
HETATM   12  C   UNL     1      41.922 -10.560   9.576  1.00  0.00     0.064 C 
HETATM   13  C   UNL     1      43.339 -11.072   9.419  1.00  0.00     0.073 C 
BRANCH  12  14
HETATM   14  C   UNL     1      41.550  -9.855  10.842  1.00  0.00     0.023 A 
HETATM   15  C   UNL     1      40.643 -10.441  11.737  1.00  0.00     0.077 A 
HETATM   16  C   UNL     1      40.325  -9.814  12.940  1.00  0.00     0.037 A 
HETATM   17  C   UNL     1      40.890  -8.578  13.251  1.00  0.00     0.003 A 
HETATM   18  C   UNL     1      41.766  -7.968  12.355  1.00  0.00     0.001 A 
HETATM   19  C   UNL     1      42.095  -8.601  11.152  1.00  0.00     0.016 A 
BRANCH  15  20
HETATM   20  O   UNL     1      40.026 -11.641  11.504  1.00  0.00    -0.360 OA
HETATM   21  H   UNL     1      40.560 -12.135  10.838  1.00  0.00     0.217 HD
ENDBRANCH  15  20
ENDBRANCH  12  14
ENDBRANCH   8  11
ENDBRANCH   1   7
BRANCH   4  22
HETATM   22  C   UNL     1      42.092 -14.694   2.024  1.00  0.00     0.121 C 
BRANCH  22  23
HETATM   23  S   UNL     1      41.089 -16.133   1.555  1.00  0.00    -0.087 SA
BRANCH  23  24
HETATM   24  C   UNL     1      42.092 -17.394   2.165  1.00  0.00     0.167 A 
HETATM   25  N   UNL     1      42.734 -17.417   3.307  1.00  0.00    -0.223 NA
HETATM   26  C   UNL     1      43.385 -18.628   3.316  1.00  0.00     0.086 A 
HETATM   27  C   UNL     1      43.120 -19.348   2.153  1.00  0.00     0.063 A 
HETATM   28  C   UNL     1      44.224 -19.186   4.291  1.00  0.00     0.034 A 
HETATM   29  N   UNL     1      42.289 -18.528   1.433  1.00  0.00    -0.333 N 
HETATM   30  C   UNL     1      43.650 -20.615   1.900  1.00  0.00     0.032 A 
HETATM   31  H   UNL     1      41.886 -18.715   0.528  1.00  0.00     0.168 HD
HETATM   32  C   UNL     1      44.485 -21.154   2.885  1.00  0.00     0.002 A 
HETATM   33  C   UNL     1      44.770 -20.454   4.061  1.00  0.00     0.002 A 
ENDBRANCH  23  24
ENDBRANCH  22  23
ENDBRANCH   4  22
TORSDOF 7
ENDMDL
MODEL 8
REMARK VINA RESULT:      -7.9      6.147     10.351
REMARK  7 active torsions:
REMARK  status: ('A' for Active; 'I' for Inactive)
REMARK    1  A    between atoms: C_2  and  C_3 
REMARK    2  A    between atoms: C_4  and  O_5 
REMARK    3  A    between atoms: N_10  and  N_11 
REMARK       I    between atoms: N_11  and  C_12 
REMARK    4  A    between atoms: C_12  and  C_13 
REMARK    5  A    between atoms: C_16  and  C_17 
REMARK    6  A    between atoms: C_17  and  S_18 
REMARK    7  A    between atoms: S_18  and  C_19 
ROOT
HETATM    1  C   UNL     1      41.307 -14.427   1.070  1.00  0.00     0.033 A 
HETATM    2  C   UNL     1      42.358 -14.070   1.921  1.00  0.00     0.017 A 
HETATM    3  C   UNL     1      42.508 -14.703   3.158  1.00  0.00     0.009 A 
HETATM    4  C   UNL     1      41.604 -15.696   3.563  1.00  0.00    -0.048 A 
HETATM    5  C   UNL     1      40.523 -16.014   2.726  1.00  0.00     0.009 A 
HETATM    6  C   UNL     1      40.373 -15.384   1.487  1.00  0.00     0.017 A 
ENDROOT
BRANCH   1   7
HETATM    7  C   UNL     1      41.227 -13.775  -0.266  1.00  0.00     0.271 C 
HETATM    8  N   UNL     1      42.074 -12.690  -0.444  1.00  0.00    -0.243 N 
HETATM    9  H   UNL     1      42.628 -12.345   0.328  1.00  0.00     0.192 HD
HETATM   10  O   UNL     1      40.412 -14.173  -1.092  1.00  0.00    -0.266 OA
BRANCH   8  11
HETATM   11  N   UNL     1      42.021 -11.987  -1.606  1.00  0.00    -0.176 NA
HETATM   12  C   UNL     1      42.599 -10.823  -1.684  1.00  0.00     0.064 C 
HETATM   13  C   UNL     1      43.338 -10.168  -0.535  1.00  0.00     0.073 C 
BRANCH  12  14
HETATM   14  C   UNL     1      42.495 -10.088  -2.983  1.00  0.00     0.023 A 
HETATM   15  C   UNL     1      42.496 -10.793  -4.196  1.00  0.00     0.077 A 
HETATM   16  C   UNL     1      42.354 -10.122  -5.409  1.00  0.00     0.037 A 
HETATM   17  C   UNL     1      42.238  -8.733  -5.426  1.00  0.00     0.003 A 
HETATM   18  C   UNL     1      42.271  -8.017  -4.230  1.00  0.00     0.001 A 
HETATM   19  C   UNL     1      42.402  -8.690  -3.012  1.00  0.00     0.016 A 
BRANCH  15  20
HETATM   20  O   UNL     1      42.625 -12.155  -4.275  1.00  0.00    -0.360 OA
HETATM   21  H   UNL     1      43.325 -12.357  -4.940  1.00  0.00     0.217 HD
ENDBRANCH  15  20
ENDBRANCH  12  14
ENDBRANCH   8  11
ENDBRANCH   1   7
BRANCH   4  22
HETATM   22  C   UNL     1      41.790 -16.412   4.879  1.00  0.00     0.121 C 
BRANCH  22  23
HETATM   23  S   UNL     1      43.540 -16.726   5.247  1.00  0.00    -0.087 SA
BRANCH  23  24
HETATM   24  C   UNL     1      43.744 -18.223   4.417  1.00  0.00     0.167 A 
HETATM   25  N   UNL     1      43.435 -18.489   3.172  1.00  0.00    -0.223 NA
HETATM   26  C   UNL     1      43.786 -19.807   3.001  1.00  0.00     0.086 A 
HETATM   27  C   UNL     1      44.324 -20.339   4.171  1.00  0.00     0.063 A 
HETATM   28  C   UNL     1      43.676 -20.622   1.866  1.00  0.00     0.034 A 
HETATM   29  N   UNL     1      44.282 -19.297   5.062  1.00  0.00    -0.333 N 
HETATM   30  C   UNL     1      44.770 -21.657   4.279  1.00  0.00     0.032 A 
HETATM   31  H   UNL     1      44.590 -19.306   6.022  1.00  0.00     0.168 HD
HETATM   32  C   UNL     1      44.652 -22.455   3.134  1.00  0.00     0.002 A 
HETATM   33  C   UNL     1      44.114 -21.950   1.947  1.00  0.00     0.002 A 
ENDBRANCH  23  24
ENDBRANCH  22  23
ENDBRANCH   4  22
TORSDOF 7
ENDMDL
MODEL 9
REMARK VINA RESULT:      -7.8      4.898      7.351
REMARK  7 active torsions:
REMARK  status: ('A' for Active; 'I' for Inactive)
REMARK    1  A    between atoms: C_2  and  C_3 
REMARK    2  A    between atoms: C_4  and  O_5 
REMARK    3  A    between atoms: N_10  and  N_11 
REMARK       I    between atoms: N_11  and  C_12 
REMARK    4  A    between atoms: C_12  and  C_13 
REMARK    5  A    between atoms: C_16  and  C_17 
REMARK    6  A    between atoms: C_17  and  S_18 
REMARK    7  A    between atoms: S_18  and  C_19 
ROOT
HETATM    1  C   UNL     1      41.066 -14.345   3.378  1.00  0.00     0.033 A 
HETATM    2  C   UNL     1      41.906 -13.604   2.540  1.00  0.00     0.017 A 
HETATM    3  C   UNL     1      41.550 -12.308   2.156  1.00  0.00     0.009 A 
HETATM    4  C   UNL     1      40.346 -11.740   2.598  1.00  0.00    -0.048 A 
HETATM    5  C   UNL     1      39.485 -12.508   3.397  1.00  0.00     0.009 A 
HETATM    6  C   UNL     1      39.841 -13.803   3.785  1.00  0.00     0.017 A 
ENDROOT
BRANCH   1   7
HETATM    7  C   UNL     1      41.518 -15.694   3.816  1.00  0.00     0.271 C 
HETATM    8  N   UNL     1      42.246 -16.407   2.873  1.00  0.00    -0.243 N 
HETATM    9  H   UNL     1      42.365 -16.040   1.939  1.00  0.00     0.192 HD
HETATM   10  O   UNL     1      41.193 -16.118   4.921  1.00  0.00    -0.266 OA
BRANCH   8  11
HETATM   11  N   UNL     1      42.640 -17.677   3.158  1.00  0.00    -0.176 NA
HETATM   12  C   UNL     1      43.547 -18.251   2.421  1.00  0.00     0.064 C 
HETATM   13  C   UNL     1      44.205 -17.595   1.225  1.00  0.00     0.073 C 
BRANCH  12  14
HETATM   14  C   UNL     1      43.932 -19.654   2.772  1.00  0.00     0.023 A 
HETATM   15  C   UNL     1      44.495 -19.940   4.025  1.00  0.00     0.077 A 
HETATM   16  C   UNL     1      44.814 -21.249   4.378  1.00  0.00     0.037 A 
HETATM   17  C   UNL     1      44.601 -22.287   3.472  1.00  0.00     0.003 A 
HETATM   18  C   UNL     1      44.075 -22.012   2.210  1.00  0.00     0.001 A 
HETATM   19  C   UNL     1      43.743 -20.700   1.858  1.00  0.00     0.016 A 
BRANCH  15  20
HETATM   20  O   UNL     1      44.757 -18.982   4.968  1.00  0.00    -0.360 OA
HETATM   21  H   UNL     1      45.407 -19.355   5.609  1.00  0.00     0.217 HD
ENDBRANCH  15  20
ENDBRANCH  12  14
ENDBRANCH   8  11
ENDBRANCH   1   7
BRANCH   4  22
HETATM   22  C   UNL     1      39.981 -10.325   2.220  1.00  0.00     0.121 C 
BRANCH  22  23
HETATM   23  S   UNL     1      38.423 -10.242   1.291  1.00  0.00    -0.087 SA
BRANCH  23  24
HETATM   24  C   UNL     1      38.828 -11.262  -0.038  1.00  0.00     0.167 A 
HETATM   25  N   UNL     1      39.831 -11.124  -0.869  1.00  0.00    -0.223 NA
HETATM   26  C   UNL     1      39.710 -12.182  -1.739  1.00  0.00     0.086 A 
HETATM   27  C   UNL     1      38.611 -12.975  -1.415  1.00  0.00     0.063 A 
HETATM   28  C   UNL     1      40.508 -12.534  -2.836  1.00  0.00     0.034 A 
HETATM   29  N   UNL     1      38.064 -12.356  -0.320  1.00  0.00    -0.333 N 
HETATM   30  C   UNL     1      38.255 -14.119  -2.131  1.00  0.00     0.032 A 
HETATM   31  H   UNL     1      37.248 -12.646   0.197  1.00  0.00     0.168 HD
HETATM   32  C   UNL     1      39.064 -14.453  -3.222  1.00  0.00     0.002 A 
HETATM   33  C   UNL     1      40.172 -13.676  -3.573  1.00  0.00     0.002 A 
ENDBRANCH  23  24
ENDBRANCH  22  23
ENDBRANCH   4  22
TORSDOF 7
ENDMDL
MODEL 10
REMARK VINA RESULT:      -7.8      3.130      9.955
REMARK  7 active torsions:
REMARK  status: ('A' for Active; 'I' for Inactive)
REMARK    1  A    between atoms: C_2  and  C_3 
REMARK    2  A    between atoms: C_4  and  O_5 
REMARK    3  A    between atoms: N_10  and  N_11 
REMARK       I    between atoms: N_11  and  C_12 
REMARK    4  A    between atoms: C_12  and  C_13 
REMARK    5  A    between atoms: C_16  and  C_17 
REMARK    6  A    between atoms: C_17  and  S_18 
REMARK    7  A    between atoms: S_18  and  C_19 
ROOT
HETATM    1  C   UNL     1      41.004 -12.664   4.840  1.00  0.00     0.033 A 
HETATM    2  C   UNL     1      40.267 -13.852   4.828  1.00  0.00     0.017 A 
HETATM    3  C   UNL     1      39.611 -14.261   3.663  1.00  0.00     0.009 A 
HETATM    4  C   UNL     1      39.676 -13.481   2.499  1.00  0.00    -0.048 A 
HETATM    5  C   UNL     1      40.375 -12.265   2.534  1.00  0.00     0.009 A 
HETATM    6  C   UNL     1      41.036 -11.856   3.696  1.00  0.00     0.017 A 
ENDROOT
BRANCH   1   7
HETATM    7  C   UNL     1      41.742 -12.304   6.082  1.00  0.00     0.271 C 
HETATM    8  N   UNL     1      41.186 -11.268   6.820  1.00  0.00    -0.243 N 
HETATM    9  H   UNL     1      40.387 -10.763   6.464  1.00  0.00     0.192 HD
HETATM   10  O   UNL     1      42.793 -12.876   6.355  1.00  0.00    -0.266 OA
BRANCH   8  11
HETATM   11  N   UNL     1      41.829 -10.823   7.932  1.00  0.00    -0.176 NA
HETATM   12  C   UNL     1      41.174 -10.704   9.051  1.00  0.00     0.064 C 
HETATM   13  C   UNL     1      39.701 -11.021   9.208  1.00  0.00     0.073 C 
BRANCH  12  14
HETATM   14  C   UNL     1      41.929 -10.196  10.239  1.00  0.00     0.023 A 
HETATM   15  C   UNL     1      42.962 -10.962  10.801  1.00  0.00     0.077 A 
HETATM   16  C   UNL     1      43.700 -10.477  11.878  1.00  0.00     0.037 A 
HETATM   17  C   UNL     1      43.397  -9.232  12.427  1.00  0.00     0.003 A 
HETATM   18  C   UNL     1      42.350  -8.476  11.901  1.00  0.00     0.001 A 
HETATM   19  C   UNL     1      41.615  -8.956  10.812  1.00  0.00     0.016 A 
BRANCH  15  20
HETATM   20  O   UNL     1      43.315 -12.202  10.340  1.00  0.00    -0.360 OA
HETATM   21  H   UNL     1      43.718 -12.093   9.447  1.00  0.00     0.217 HD
ENDBRANCH  15  20
ENDBRANCH  12  14
ENDBRANCH   8  11
ENDBRANCH   1   7
BRANCH   4  22
HETATM   22  C   UNL     1      39.005 -13.943   1.228  1.00  0.00     0.121 C 
BRANCH  22  23
HETATM   23  S   UNL     1      40.178 -14.095  -0.150  1.00  0.00    -0.087 SA
BRANCH  23  24
HETATM   24  C   UNL     1      41.188 -15.346   0.469  1.00  0.00     0.167 A 
HETATM   25  N   UNL     1      42.478 -15.291   0.688  1.00  0.00    -0.223 NA
HETATM   26  C   UNL     1      42.803 -16.535   1.174  1.00  0.00     0.086 A 
HETATM   27  C   UNL     1      41.678 -17.352   1.252  1.00  0.00     0.063 A 
HETATM   28  C   UNL     1      44.047 -17.043   1.573  1.00  0.00     0.034 A 
HETATM   29  N   UNL     1      40.657 -16.560   0.790  1.00  0.00    -0.333 N 
HETATM   30  C   UNL     1      41.717 -18.669   1.715  1.00  0.00     0.032 A 
HETATM   31  H   UNL     1      39.685 -16.814   0.700  1.00  0.00     0.168 HD
HETATM   32  C   UNL     1      42.968 -19.157   2.109  1.00  0.00     0.002 A 
HETATM   33  C   UNL     1      44.116 -18.362   2.040  1.00  0.00     0.002 A 
ENDBRANCH  23  24
ENDBRANCH  22  23
ENDBRANCH   4  22
TORSDOF 7
ENDMDL
