MODEL 1
REMARK VINA RESULT:      -7.4      0.000      0.000
REMARK  3 active torsions:
REMARK  status: ('A' for Active; 'I' for Inactive)
REMARK    1  A    between atoms: C_5  and  C_6 
REMARK    2  A    between atoms: C_10  and  N_11 
REMARK    3  A    between atoms: C_18  and  C_19 
ROOT
HETATM    1  C   UNL     1      40.818 -13.169   3.423  1.00  0.00     0.106 A 
HETATM    2  C   UNL     1      40.237 -11.971   4.181  1.00  0.00     0.081 A 
HETATM    3  C   UNL     1      40.411 -10.691   3.577  1.00  0.00     0.100 C 
HETATM    4  N   UNL     1      40.552  -9.648   3.089  1.00  0.00    -0.191 NA
HETATM    5  C   UNL     1      39.622 -12.087   5.390  1.00  0.00     0.140 A 
HETATM    6  O   UNL     1      39.476 -13.328   6.034  1.00  0.00    -0.279 OA
HETATM    7  C   UNL     1      40.043 -14.371   5.440  1.00  0.00     0.175 A 
HETATM    8  C   UNL     1      40.702 -14.411   4.238  1.00  0.00     0.040 A 
HETATM    9  N   UNL     1      40.072 -15.626   5.949  1.00  0.00    -0.256 N 
HETATM   10  H   UNL     1      39.680 -15.960   6.822  1.00  0.00     0.191 HD
HETATM   11  N   UNL     1      40.720 -16.495   5.154  1.00  0.00    -0.172 NA
HETATM   12  C   UNL     1      41.143 -15.758   4.105  1.00  0.00     0.099 A 
ENDROOT
BRANCH   1  13
HETATM   13  C   UNL     1      40.092 -13.431   2.110  1.00  0.00    -0.044 A 
HETATM   14  C   UNL     1      40.798 -13.324   0.901  1.00  0.00     0.009 A 
HETATM   15  C   UNL     1      40.152 -13.503  -0.326  1.00  0.00     0.007 A 
HETATM   16  C   UNL     1      38.782 -13.777  -0.374  1.00  0.00    -0.062 A 
HETATM   17  C   UNL     1      38.095 -13.995  -1.690  1.00  0.00     0.048 C 
HETATM   18  C   UNL     1      38.073 -13.899   0.824  1.00  0.00     0.007 A 
HETATM   19  C   UNL     1      38.716 -13.716   2.051  1.00  0.00     0.009 A 
ENDBRANCH   1  13
BRANCH   5  20
HETATM   20  N   UNL     1      39.086 -11.048   6.117  1.00  0.00    -0.282 NA
HETATM   21  H   UNL     1      38.248 -10.624   5.722  1.00  0.00     0.126 HD
HETATM   22  H   UNL     1      38.987 -11.280   7.101  1.00  0.00     0.126 HD
ENDBRANCH   5  20
BRANCH  12  23
HETATM   23  C   UNL     1      41.929 -16.369   3.036  1.00  0.00    -0.005 A 
HETATM   24  C   UNL     1      41.284 -16.889   1.905  1.00  0.00     0.014 A 
HETATM   25  C   UNL     1      42.020 -17.483   0.876  1.00  0.00     0.001 A 
HETATM   26  C   UNL     1      43.408 -17.568   0.973  1.00  0.00     0.000 A 
HETATM   27  C   UNL     1      44.059 -17.065   2.099  1.00  0.00     0.001 A 
HETATM   28  C   UNL     1      43.323 -16.472   3.128  1.00  0.00     0.014 A 
ENDBRANCH  12  23
TORSDOF 3
ENDMDL
MODEL 2
REMARK VINA RESULT:      -7.3      2.686      4.886
REMARK  3 active torsions:
REMARK  status: ('A' for Active; 'I' for Inactive)
REMARK    1  A    between atoms: C_5  and  C_6 
REMARK    2  A    between atoms: C_10  and  N_11 
REMARK    3  A    between atoms: C_18  and  C_19 
ROOT
HETATM    1  C   UNL     1      41.713 -14.640   2.053  1.00  0.00     0.106 A 
HETATM    2  C   UNL     1      40.864 -14.226   0.847  1.00  0.00     0.081 A 
HETATM    3  C   UNL     1      41.545 -14.103  -0.399  1.00  0.00     0.100 C 
HETATM    4  N   UNL     1      42.096 -14.000  -1.415  1.00  0.00    -0.191 NA
HETATM    5  C   UNL     1      39.535 -13.941   0.941  1.00  0.00     0.140 A 
HETATM    6  O   UNL     1      38.845 -14.009   2.163  1.00  0.00    -0.279 OA
HETATM    7  C   UNL     1      39.573 -14.284   3.238  1.00  0.00     0.175 A 
HETATM    8  C   UNL     1      40.910 -14.579   3.306  1.00  0.00     0.040 A 
HETATM    9  N   UNL     1      39.096 -14.315   4.505  1.00  0.00    -0.256 N 
HETATM   10  H   UNL     1      38.150 -14.146   4.825  1.00  0.00     0.191 HD
HETATM   11  N   UNL     1      40.045 -14.606   5.412  1.00  0.00    -0.172 NA
HETATM   12  C   UNL     1      41.180 -14.744   4.694  1.00  0.00     0.099 A 
ENDROOT
BRANCH   1  13
HETATM   13  C   UNL     1      42.236 -16.066   1.931  1.00  0.00    -0.044 A 
HETATM   14  C   UNL     1      41.321 -17.124   1.797  1.00  0.00     0.009 A 
HETATM   15  C   UNL     1      41.761 -18.450   1.739  1.00  0.00     0.007 A 
HETATM   16  C   UNL     1      43.123 -18.751   1.828  1.00  0.00    -0.062 A 
HETATM   17  C   UNL     1      43.595 -20.172   1.739  1.00  0.00     0.048 C 
HETATM   18  C   UNL     1      44.041 -17.705   1.947  1.00  0.00     0.007 A 
HETATM   19  C   UNL     1      43.604 -16.380   2.010  1.00  0.00     0.009 A 
ENDBRANCH   1  13
BRANCH   5  20
HETATM   20  N   UNL     1      38.724 -13.562  -0.105  1.00  0.00    -0.282 NA
HETATM   21  H   UNL     1      39.082 -13.773  -1.035  1.00  0.00     0.126 HD
HETATM   22  H   UNL     1      37.762 -13.862   0.029  1.00  0.00     0.126 HD
ENDBRANCH   5  20
BRANCH  12  23
HETATM   23  C   UNL     1      42.449 -15.033   5.359  1.00  0.00    -0.005 A 
HETATM   24  C   UNL     1      42.825 -16.363   5.598  1.00  0.00     0.014 A 
HETATM   25  C   UNL     1      44.032 -16.656   6.238  1.00  0.00     0.001 A 
HETATM   26  C   UNL     1      44.870 -15.623   6.651  1.00  0.00     0.000 A 
HETATM   27  C   UNL     1      44.500 -14.296   6.429  1.00  0.00     0.001 A 
HETATM   28  C   UNL     1      43.293 -14.003   5.791  1.00  0.00     0.014 A 
ENDBRANCH  12  23
TORSDOF 3
ENDMDL
MODEL 3
REMARK VINA RESULT:      -7.2      3.418      5.700
REMARK  3 active torsions:
REMARK  status: ('A' for Active; 'I' for Inactive)
REMARK    1  A    between atoms: C_5  and  C_6 
REMARK    2  A    between atoms: C_10  and  N_11 
REMARK    3  A    between atoms: C_18  and  C_19 
ROOT
HETATM    1  C   UNL     1      41.317 -16.484   2.902  1.00  0.00     0.106 A 
HETATM    2  C   UNL     1      40.657 -16.043   1.592  1.00  0.00     0.081 A 
HETATM    3  C   UNL     1      39.340 -15.508   1.691  1.00  0.00     0.100 C 
HETATM    4  N   UNL     1      38.267 -15.074   1.768  1.00  0.00    -0.191 NA
HETATM    5  C   UNL     1      41.257 -16.185   0.377  1.00  0.00     0.140 A 
HETATM    6  O   UNL     1      42.536 -16.751   0.240  1.00  0.00    -0.279 OA
HETATM    7  C   UNL     1      43.096 -17.218   1.349  1.00  0.00     0.175 A 
HETATM    8  C   UNL     1      42.617 -17.161   2.633  1.00  0.00     0.040 A 
HETATM    9  N   UNL     1      44.286 -17.862   1.400  1.00  0.00    -0.256 N 
HETATM   10  H   UNL     1      44.916 -18.080   0.637  1.00  0.00     0.191 HD
HETATM   11  N   UNL     1      44.619 -18.243   2.646  1.00  0.00    -0.172 NA
HETATM   12  C   UNL     1      43.587 -17.845   3.418  1.00  0.00     0.099 A 
ENDROOT
BRANCH   1  13
HETATM   13  C   UNL     1      41.612 -15.309   3.826  1.00  0.00    -0.044 A 
HETATM   14  C   UNL     1      40.852 -15.147   4.995  1.00  0.00     0.009 A 
HETATM   15  C   UNL     1      41.056 -14.050   5.838  1.00  0.00     0.007 A 
HETATM   16  C   UNL     1      42.015 -13.082   5.524  1.00  0.00    -0.062 A 
HETATM   17  C   UNL     1      42.252 -11.919   6.442  1.00  0.00     0.048 C 
HETATM   18  C   UNL     1      42.786 -13.242   4.369  1.00  0.00     0.007 A 
HETATM   19  C   UNL     1      42.580 -14.334   3.523  1.00  0.00     0.009 A 
ENDBRANCH   1  13
BRANCH   5  20
HETATM   20  N   UNL     1      40.712 -15.811  -0.831  1.00  0.00    -0.282 NA
HETATM   21  H   UNL     1      40.775 -14.818  -1.051  1.00  0.00     0.126 HD
HETATM   22  H   UNL     1      41.024 -16.407  -1.592  1.00  0.00     0.126 HD
ENDBRANCH   5  20
BRANCH  12  23
HETATM   23  C   UNL     1      43.581 -18.126   4.852  1.00  0.00    -0.005 A 
HETATM   24  C   UNL     1      43.652 -17.069   5.771  1.00  0.00     0.014 A 
HETATM   25  C   UNL     1      43.655 -17.320   7.145  1.00  0.00     0.001 A 
HETATM   26  C   UNL     1      43.592 -18.631   7.614  1.00  0.00     0.000 A 
HETATM   27  C   UNL     1      43.532 -19.690   6.709  1.00  0.00     0.001 A 
HETATM   28  C   UNL     1      43.532 -19.440   5.335  1.00  0.00     0.014 A 
ENDBRANCH  12  23
TORSDOF 3
ENDMDL
MODEL 4
REMARK VINA RESULT:      -7.2      3.192      5.343
REMARK  3 active torsions:
REMARK  status: ('A' for Active; 'I' for Inactive)
REMARK    1  A    between atoms: C_5  and  C_6 
REMARK    2  A    between atoms: C_10  and  N_11 
REMARK    3  A    between atoms: C_18  and  C_19 
ROOT
HETATM    1  C   UNL     1      41.157 -15.761   4.356  1.00  0.00     0.106 A 
HETATM    2  C   UNL     1      40.160 -14.667   3.965  1.00  0.00     0.081 A 
HETATM    3  C   UNL     1      39.588 -13.916   5.033  1.00  0.00     0.100 C 
HETATM    4  N   UNL     1      39.118 -13.304   5.900  1.00  0.00    -0.191 NA
HETATM    5  C   UNL     1      39.787 -14.431   2.677  1.00  0.00     0.140 A 
HETATM    6  O   UNL     1      40.298 -15.183   1.605  1.00  0.00    -0.279 OA
HETATM    7  C   UNL     1      41.100 -16.192   1.922  1.00  0.00     0.175 A 
HETATM    8  C   UNL     1      41.554 -16.561   3.163  1.00  0.00     0.040 A 
HETATM    9  N   UNL     1      41.623 -17.069   1.033  1.00  0.00    -0.256 N 
HETATM   10  H   UNL     1      41.498 -17.096   0.028  1.00  0.00     0.191 HD
HETATM   11  N   UNL     1      42.393 -18.005   1.617  1.00  0.00    -0.172 NA
HETATM   12  C   UNL     1      42.339 -17.725   2.936  1.00  0.00     0.099 A 
ENDROOT
BRANCH   1  13
HETATM   13  C   UNL     1      42.438 -15.191   4.952  1.00  0.00    -0.044 A 
HETATM   14  C   UNL     1      42.775 -15.500   6.281  1.00  0.00     0.009 A 
HETATM   15  C   UNL     1      43.913 -14.951   6.879  1.00  0.00     0.007 A 
HETATM   16  C   UNL     1      44.732 -14.068   6.170  1.00  0.00    -0.062 A 
HETATM   17  C   UNL     1      45.968 -13.500   6.804  1.00  0.00     0.048 C 
HETATM   18  C   UNL     1      44.413 -13.765   4.843  1.00  0.00     0.007 A 
HETATM   19  C   UNL     1      43.274 -14.309   4.245  1.00  0.00     0.009 A 
ENDBRANCH   1  13
BRANCH   5  20
HETATM   20  N   UNL     1      38.895 -13.465   2.267  1.00  0.00    -0.282 NA
HETATM   21  H   UNL     1      39.310 -12.630   1.858  1.00  0.00     0.126 HD
HETATM   22  H   UNL     1      38.144 -13.853   1.703  1.00  0.00     0.126 HD
ENDBRANCH   5  20
BRANCH  12  23
HETATM   23  C   UNL     1      43.040 -18.568   3.903  1.00  0.00    -0.005 A 
HETATM   24  C   UNL     1      42.596 -18.622   5.232  1.00  0.00     0.014 A 
HETATM   25  C   UNL     1      43.258 -19.418   6.170  1.00  0.00     0.001 A 
HETATM   26  C   UNL     1      44.373 -20.161   5.790  1.00  0.00     0.000 A 
HETATM   27  C   UNL     1      44.830 -20.106   4.474  1.00  0.00     0.001 A 
HETATM   28  C   UNL     1      44.169 -19.310   3.535  1.00  0.00     0.014 A 
ENDBRANCH  12  23
TORSDOF 3
ENDMDL
MODEL 5
REMARK VINA RESULT:      -6.9      3.124      5.292
REMARK  3 active torsions:
REMARK  status: ('A' for Active; 'I' for Inactive)
REMARK    1  A    between atoms: C_5  and  C_6 
REMARK    2  A    between atoms: C_10  and  N_11 
REMARK    3  A    between atoms: C_18  and  C_19 
ROOT
HETATM    1  C   UNL     1      41.231 -15.634   3.889  1.00  0.00     0.106 A 
HETATM    2  C   UNL     1      40.242 -14.512   3.557  1.00  0.00     0.081 A 
HETATM    3  C   UNL     1      39.559 -13.920   4.660  1.00  0.00     0.100 C 
HETATM    4  N   UNL     1      39.000 -13.437   5.554  1.00  0.00    -0.191 NA
HETATM    5  C   UNL     1      39.977 -14.112   2.283  1.00  0.00     0.140 A 
HETATM    6  O   UNL     1      40.599 -14.706   1.172  1.00  0.00    -0.279 OA
HETATM    7  C   UNL     1      41.397 -15.736   1.424  1.00  0.00     0.175 A 
HETATM    8  C   UNL     1      41.751 -16.261   2.640  1.00  0.00     0.040 A 
HETATM    9  N   UNL     1      42.019 -16.478   0.477  1.00  0.00    -0.256 N 
HETATM   10  H   UNL     1      41.983 -16.372  -0.530  1.00  0.00     0.191 HD
HETATM   11  N   UNL     1      42.761 -17.472   0.999  1.00  0.00    -0.172 NA
HETATM   12  C   UNL     1      42.585 -17.372   2.333  1.00  0.00     0.099 A 
ENDROOT
BRANCH   1  13
HETATM   13  C   UNL     1      42.439 -15.130   4.667  1.00  0.00    -0.044 A 
HETATM   14  C   UNL     1      42.581 -15.483   6.019  1.00  0.00     0.009 A 
HETATM   15  C   UNL     1      43.647 -14.993   6.781  1.00  0.00     0.007 A 
HETATM   16  C   UNL     1      44.587 -14.127   6.213  1.00  0.00    -0.062 A 
HETATM   17  C   UNL     1      45.745 -13.624   7.023  1.00  0.00     0.048 C 
HETATM   18  C   UNL     1      44.461 -13.781   4.865  1.00  0.00     0.007 A 
HETATM   19  C   UNL     1      43.395 -14.265   4.104  1.00  0.00     0.009 A 
ENDBRANCH   1  13
BRANCH   5  20
HETATM   20  N   UNL     1      39.097 -13.114   1.926  1.00  0.00    -0.282 NA
HETATM   21  H   UNL     1      38.340 -12.941   2.585  1.00  0.00     0.126 HD
HETATM   22  H   UNL     1      39.578 -12.265   1.641  1.00  0.00     0.126 HD
ENDBRANCH   5  20
BRANCH  12  23
HETATM   23  C   UNL     1      43.221 -18.326   3.239  1.00  0.00    -0.005 A 
HETATM   24  C   UNL     1      44.144 -19.255   2.739  1.00  0.00     0.014 A 
HETATM   25  C   UNL     1      44.757 -20.178   3.590  1.00  0.00     0.001 A 
HETATM   26  C   UNL     1      44.447 -20.185   4.949  1.00  0.00     0.000 A 
HETATM   27  C   UNL     1      43.521 -19.273   5.456  1.00  0.00     0.001 A 
HETATM   28  C   UNL     1      42.907 -18.351   4.604  1.00  0.00     0.014 A 
ENDBRANCH  12  23
TORSDOF 3
ENDMDL
MODEL 6
REMARK VINA RESULT:      -6.6      1.608      4.961
REMARK  3 active torsions:
REMARK  status: ('A' for Active; 'I' for Inactive)
REMARK    1  A    between atoms: C_5  and  C_6 
REMARK    2  A    between atoms: C_10  and  N_11 
REMARK    3  A    between atoms: C_18  and  C_19 
ROOT
HETATM    1  C   UNL     1      40.702 -14.481   3.086  1.00  0.00     0.106 A 
HETATM    2  C   UNL     1      40.874 -14.221   4.586  1.00  0.00     0.081 A 
HETATM    3  C   UNL     1      40.434 -15.254   5.465  1.00  0.00     0.100 C 
HETATM    4  N   UNL     1      40.075 -16.091   6.183  1.00  0.00    -0.191 NA
HETATM    5  C   UNL     1      41.377 -13.057   5.083  1.00  0.00     0.140 A 
HETATM    6  O   UNL     1      41.777 -12.002   4.245  1.00  0.00    -0.279 OA
HETATM    7  C   UNL     1      41.562 -12.167   2.946  1.00  0.00     0.175 A 
HETATM    8  C   UNL     1      41.057 -13.266   2.299  1.00  0.00     0.040 A 
HETATM    9  N   UNL     1      41.811 -11.231   1.999  1.00  0.00    -0.256 N 
HETATM   10  H   UNL     1      42.188 -10.299   2.120  1.00  0.00     0.191 HD
HETATM   11  N   UNL     1      41.492 -11.646   0.760  1.00  0.00    -0.172 NA
HETATM   12  C   UNL     1      40.997 -12.891   0.928  1.00  0.00     0.099 A 
ENDROOT
BRANCH   1  13
HETATM   13  C   UNL     1      41.597 -15.608   2.587  1.00  0.00    -0.044 A 
HETATM   14  C   UNL     1      41.009 -16.779   2.081  1.00  0.00     0.009 A 
HETATM   15  C   UNL     1      41.798 -17.857   1.666  1.00  0.00     0.007 A 
HETATM   16  C   UNL     1      43.191 -17.795   1.761  1.00  0.00    -0.062 A 
HETATM   17  C   UNL     1      44.037 -18.942   1.291  1.00  0.00     0.048 C 
HETATM   18  C   UNL     1      43.786 -16.629   2.251  1.00  0.00     0.007 A 
HETATM   19  C   UNL     1      43.000 -15.553   2.670  1.00  0.00     0.009 A 
ENDBRANCH   1  13
BRANCH   5  20
HETATM   20  N   UNL     1      41.551 -12.768   6.418  1.00  0.00    -0.282 NA
HETATM   21  H   UNL     1      40.741 -12.366   6.888  1.00  0.00     0.126 HD
HETATM   22  H   UNL     1      41.961 -13.545   6.927  1.00  0.00     0.126 HD
ENDBRANCH   5  20
BRANCH  12  23
HETATM   23  C   UNL     1      40.506 -13.655  -0.217  1.00  0.00    -0.005 A 
HETATM   24  C   UNL     1      41.332 -14.611  -0.824  1.00  0.00     0.014 A 
HETATM   25  C   UNL     1      40.880 -15.346  -1.923  1.00  0.00     0.001 A 
HETATM   26  C   UNL     1      39.600 -15.127  -2.429  1.00  0.00     0.000 A 
HETATM   27  C   UNL     1      38.774 -14.170  -1.839  1.00  0.00     0.001 A 
HETATM   28  C   UNL     1      39.226 -13.434  -0.742  1.00  0.00     0.014 A 
ENDBRANCH  12  23
TORSDOF 3
ENDMDL
MODEL 7
REMARK VINA RESULT:      -6.6      2.751      4.764
REMARK  3 active torsions:
REMARK  status: ('A' for Active; 'I' for Inactive)
REMARK    1  A    between atoms: C_5  and  C_6 
REMARK    2  A    between atoms: C_10  and  N_11 
REMARK    3  A    between atoms: C_18  and  C_19 
ROOT
HETATM    1  C   UNL     1      42.770 -14.854   5.160  1.00  0.00     0.106 A 
HETATM    2  C   UNL     1      43.387 -15.174   6.525  1.00  0.00     0.081 A 
HETATM    3  C   UNL     1      44.340 -14.240   7.027  1.00  0.00     0.100 C 
HETATM    4  N   UNL     1      45.118 -13.483   7.438  1.00  0.00    -0.191 NA
HETATM    5  C   UNL     1      43.093 -16.306   7.223  1.00  0.00     0.140 A 
HETATM    6  O   UNL     1      42.193 -17.268   6.735  1.00  0.00    -0.279 OA
HETATM    7  C   UNL     1      41.707 -17.057   5.519  1.00  0.00     0.175 A 
HETATM    8  C   UNL     1      41.916 -15.983   4.693  1.00  0.00     0.040 A 
HETATM    9  N   UNL     1      40.890 -17.911   4.857  1.00  0.00    -0.256 N 
HETATM   10  H   UNL     1      40.529 -18.805   5.168  1.00  0.00     0.191 HD
HETATM   11  N   UNL     1      40.552 -17.465   3.634  1.00  0.00    -0.172 NA
HETATM   12  C   UNL     1      41.200 -16.289   3.502  1.00  0.00     0.099 A 
ENDROOT
BRANCH   1  13
HETATM   13  C   UNL     1      41.883 -13.616   5.202  1.00  0.00    -0.044 A 
HETATM   14  C   UNL     1      40.691 -13.649   5.944  1.00  0.00     0.009 A 
HETATM   15  C   UNL     1      39.825 -12.552   5.960  1.00  0.00     0.007 A 
HETATM   16  C   UNL     1      40.121 -11.402   5.223  1.00  0.00    -0.062 A 
HETATM   17  C   UNL     1      39.204 -10.215   5.261  1.00  0.00     0.048 C 
HETATM   18  C   UNL     1      41.311 -11.354   4.491  1.00  0.00     0.007 A 
HETATM   19  C   UNL     1      42.176 -12.451   4.470  1.00  0.00     0.009 A 
ENDBRANCH   1  13
BRANCH   5  20
HETATM   20  N   UNL     1      43.618 -16.646   8.450  1.00  0.00    -0.282 NA
HETATM   21  H   UNL     1      44.601 -16.417   8.584  1.00  0.00     0.126 HD
HETATM   22  H   UNL     1      43.029 -16.336   9.218  1.00  0.00     0.126 HD
ENDBRANCH   5  20
BRANCH  12  23
HETATM   23  C   UNL     1      41.097 -15.519   2.264  1.00  0.00    -0.005 A 
HETATM   24  C   UNL     1      40.160 -14.480   2.164  1.00  0.00     0.014 A 
HETATM   25  C   UNL     1      40.044 -13.739   0.986  1.00  0.00     0.001 A 
HETATM   26  C   UNL     1      40.860 -14.032  -0.105  1.00  0.00     0.000 A 
HETATM   27  C   UNL     1      41.788 -15.070  -0.020  1.00  0.00     0.001 A 
HETATM   28  C   UNL     1      41.902 -15.813   1.157  1.00  0.00     0.014 A 
ENDBRANCH  12  23
TORSDOF 3
ENDMDL
MODEL 8
REMARK VINA RESULT:      -6.5      4.012      6.051
REMARK  3 active torsions:
REMARK  status: ('A' for Active; 'I' for Inactive)
REMARK    1  A    between atoms: C_5  and  C_6 
REMARK    2  A    between atoms: C_10  and  N_11 
REMARK    3  A    between atoms: C_18  and  C_19 
ROOT
HETATM    1  C   UNL     1      40.181 -13.394  -0.919  1.00  0.00     0.106 A 
HETATM    2  C   UNL     1      39.747 -13.749  -2.344  1.00  0.00     0.081 A 
HETATM    3  C   UNL     1      38.903 -12.809  -3.005  1.00  0.00     0.100 C 
HETATM    4  N   UNL     1      38.215 -12.047  -3.546  1.00  0.00    -0.191 NA
HETATM    5  C   UNL     1      40.097 -14.914  -2.956  1.00  0.00     0.140 A 
HETATM    6  O   UNL     1      40.890 -15.882  -2.315  1.00  0.00    -0.279 OA
HETATM    7  C   UNL     1      41.210 -15.639  -1.051  1.00  0.00     0.175 A 
HETATM    8  C   UNL     1      40.924 -14.528  -0.299  1.00  0.00     0.040 A 
HETATM    9  N   UNL     1      41.900 -16.488  -0.253  1.00  0.00    -0.256 N 
HETATM   10  H   UNL     1      42.270 -17.403  -0.480  1.00  0.00     0.191 HD
HETATM   11  N   UNL     1      42.080 -16.006   0.989  1.00  0.00    -0.172 NA
HETATM   12  C   UNL     1      41.459 -14.807   0.989  1.00  0.00     0.099 A 
ENDROOT
BRANCH   1  13
HETATM   13  C   UNL     1      41.105 -12.184  -0.879  1.00  0.00    -0.044 A 
HETATM   14  C   UNL     1      42.283 -12.194  -1.643  1.00  0.00     0.009 A 
HETATM   15  C   UNL     1      43.183 -11.125  -1.588  1.00  0.00     0.007 A 
HETATM   16  C   UNL     1      42.934 -10.028  -0.757  1.00  0.00    -0.062 A 
HETATM   17  C   UNL     1      43.887  -8.870  -0.719  1.00  0.00     0.048 C 
HETATM   18  C   UNL     1      41.757 -10.003  -0.004  1.00  0.00     0.007 A 
HETATM   19  C   UNL     1      40.859 -11.072  -0.053  1.00  0.00     0.009 A 
ENDBRANCH   1  13
BRANCH   5  20
HETATM   20  N   UNL     1      39.735 -15.287  -4.232  1.00  0.00    -0.282 NA
HETATM   21  H   UNL     1      39.236 -16.171  -4.304  1.00  0.00     0.126 HD
HETATM   22  H   UNL     1      39.281 -14.531  -4.736  1.00  0.00     0.126 HD
ENDBRANCH   5  20
BRANCH  12  23
HETATM   23  C   UNL     1      41.416 -13.994   2.202  1.00  0.00    -0.005 A 
HETATM   24  C   UNL     1      42.607 -13.667   2.867  1.00  0.00     0.014 A 
HETATM   25  C   UNL     1      42.583 -12.896   4.032  1.00  0.00     0.001 A 
HETATM   26  C   UNL     1      41.367 -12.449   4.546  1.00  0.00     0.000 A 
HETATM   27  C   UNL     1      40.176 -12.777   3.899  1.00  0.00     0.001 A 
HETATM   28  C   UNL     1      40.200 -13.550   2.736  1.00  0.00     0.014 A 
ENDBRANCH  12  23
TORSDOF 3
ENDMDL
MODEL 9
REMARK VINA RESULT:      -6.5      2.496      4.834
REMARK  3 active torsions:
REMARK  status: ('A' for Active; 'I' for Inactive)
REMARK    1  A    between atoms: C_5  and  C_6 
REMARK    2  A    between atoms: C_10  and  N_11 
REMARK    3  A    between atoms: C_18  and  C_19 
ROOT
HETATM    1  C   UNL     1      40.494 -13.134   4.625  1.00  0.00     0.106 A 
HETATM    2  C   UNL     1      40.188 -11.892   5.468  1.00  0.00     0.081 A 
HETATM    3  C   UNL     1      39.559 -12.118   6.728  1.00  0.00     0.100 C 
HETATM    4  N   UNL     1      39.046 -12.297   7.752  1.00  0.00    -0.191 NA
HETATM    5  C   UNL     1      40.452 -10.626   5.043  1.00  0.00     0.140 A 
HETATM    6  O   UNL     1      41.029 -10.367   3.788  1.00  0.00    -0.279 OA
HETATM    7  C   UNL     1      41.227 -11.418   3.003  1.00  0.00     0.175 A 
HETATM    8  C   UNL     1      41.004 -12.743   3.281  1.00  0.00     0.040 A 
HETATM    9  N   UNL     1      41.701 -11.355   1.735  1.00  0.00    -0.256 N 
HETATM   10  H   UNL     1      41.972 -10.535   1.205  1.00  0.00     0.191 HD
HETATM   11  N   UNL     1      41.796 -12.564   1.154  1.00  0.00    -0.172 NA
HETATM   12  C   UNL     1      41.342 -13.432   2.083  1.00  0.00     0.099 A 
ENDROOT
BRANCH   1  13
HETATM   13  C   UNL     1      41.558 -14.019   5.262  1.00  0.00    -0.044 A 
HETATM   14  C   UNL     1      41.225 -15.329   5.643  1.00  0.00     0.009 A 
HETATM   15  C   UNL     1      42.159 -16.151   6.281  1.00  0.00     0.007 A 
HETATM   16  C   UNL     1      43.444 -15.678   6.566  1.00  0.00    -0.062 A 
HETATM   17  C   UNL     1      44.454 -16.569   7.227  1.00  0.00     0.048 C 
HETATM   18  C   UNL     1      43.789 -14.380   6.179  1.00  0.00     0.007 A 
HETATM   19  C   UNL     1      42.856 -13.556   5.546  1.00  0.00     0.009 A 
ENDBRANCH   1  13
BRANCH   5  20
HETATM   20  N   UNL     1      40.196  -9.475   5.755  1.00  0.00    -0.282 NA
HETATM   21  H   UNL     1      40.996  -8.861   5.897  1.00  0.00     0.126 HD
HETATM   22  H   UNL     1      39.376  -8.985   5.409  1.00  0.00     0.126 HD
ENDBRANCH   5  20
BRANCH  12  23
HETATM   23  C   UNL     1      41.264 -14.861   1.788  1.00  0.00    -0.005 A 
HETATM   24  C   UNL     1      40.134 -15.594   2.178  1.00  0.00     0.014 A 
HETATM   25  C   UNL     1      40.046 -16.962   1.910  1.00  0.00     0.001 A 
HETATM   26  C   UNL     1      41.090 -17.612   1.254  1.00  0.00     0.000 A 
HETATM   27  C   UNL     1      42.223 -16.896   0.871  1.00  0.00     0.001 A 
HETATM   28  C   UNL     1      42.312 -15.528   1.141  1.00  0.00     0.014 A 
ENDBRANCH  12  23
TORSDOF 3
ENDMDL
MODEL 10
REMARK VINA RESULT:      -6.4      3.065      5.295
REMARK  3 active torsions:
REMARK  status: ('A' for Active; 'I' for Inactive)
REMARK    1  A    between atoms: C_5  and  C_6 
REMARK    2  A    between atoms: C_10  and  N_11 
REMARK    3  A    between atoms: C_18  and  C_19 
ROOT
HETATM    1  C   UNL     1      40.620 -13.834   1.706  1.00  0.00     0.106 A 
HETATM    2  C   UNL     1      40.535 -14.829   2.868  1.00  0.00     0.081 A 
HETATM    3  C   UNL     1      40.362 -14.273   4.170  1.00  0.00     0.100 C 
HETATM    4  N   UNL     1      40.222 -13.824   5.230  1.00  0.00    -0.191 NA
HETATM    5  C   UNL     1      40.661 -16.174   2.702  1.00  0.00     0.140 A 
HETATM    6  O   UNL     1      40.878 -16.750   1.438  1.00  0.00    -0.279 OA
HETATM    7  C   UNL     1      41.039 -15.908   0.426  1.00  0.00     0.175 A 
HETATM    8  C   UNL     1      40.954 -14.539   0.436  1.00  0.00     0.040 A 
HETATM    9  N   UNL     1      41.332 -16.276  -0.844  1.00  0.00    -0.256 N 
HETATM   10  H   UNL     1      41.467 -17.210  -1.213  1.00  0.00     0.191 HD
HETATM   11  N   UNL     1      41.455 -15.226  -1.675  1.00  0.00    -0.172 NA
HETATM   12  C   UNL     1      41.254 -14.142  -0.897  1.00  0.00     0.099 A 
ENDROOT
BRANCH   1  13
HETATM   13  C   UNL     1      39.305 -13.102   1.473  1.00  0.00    -0.044 A 
HETATM   14  C   UNL     1      38.227 -13.793   0.894  1.00  0.00     0.009 A 
HETATM   15  C   UNL     1      37.023 -13.140   0.614  1.00  0.00     0.007 A 
HETATM   16  C   UNL     1      36.873 -11.778   0.891  1.00  0.00    -0.062 A 
HETATM   17  C   UNL     1      35.572 -11.084   0.614  1.00  0.00     0.048 C 
HETATM   18  C   UNL     1      37.935 -11.085   1.479  1.00  0.00     0.007 A 
HETATM   19  C   UNL     1      39.140 -11.734   1.755  1.00  0.00     0.009 A 
ENDBRANCH   1  13
BRANCH   5  20
HETATM   20  N   UNL     1      40.596 -17.113   3.707  1.00  0.00    -0.282 NA
HETATM   21  H   UNL     1      40.457 -16.741   4.645  1.00  0.00     0.126 HD
HETATM   22  H   UNL     1      39.959 -17.872   3.482  1.00  0.00     0.126 HD
ENDBRANCH   5  20
BRANCH  12  23
HETATM   23  C   UNL     1      41.348 -12.797  -1.460  1.00  0.00    -0.005 A 
HETATM   24  C   UNL     1      42.597 -12.169  -1.565  1.00  0.00     0.014 A 
HETATM   25  C   UNL     1      42.704 -10.880  -2.094  1.00  0.00     0.001 A 
HETATM   26  C   UNL     1      41.560 -10.205  -2.517  1.00  0.00     0.000 A 
HETATM   27  C   UNL     1      40.311 -10.815  -2.407  1.00  0.00     0.001 A 
HETATM   28  C   UNL     1      40.205 -12.103  -1.876  1.00  0.00     0.014 A 
ENDBRANCH  12  23
TORSDOF 3
ENDMDL
