MODEL 1
REMARK VINA RESULT:      -8.2      0.000      0.000
REMARK  7 active torsions:
REMARK  status: ('A' for Active; 'I' for Inactive)
REMARK    1  A    between atoms: C_2  and  O_3 
REMARK    2  A    between atoms: O_3  and  C_4 
REMARK    3  A    between atoms: C_4  and  C_5 
REMARK    4  A    between atoms: C_6  and  C_7 
REMARK    5  A    between atoms: C_18  and  S_19 
REMARK    6  A    between atoms: S_19  and  C_20 
REMARK    7  A    between atoms: C_20  and  C_21 
ROOT
HETATM    1  C   UNL     1      38.947 -14.146  -0.734  1.00  0.00     0.070 A 
HETATM    2  C   UNL     1      40.385 -14.573  -1.005  1.00  0.00     0.203 A 
HETATM    3  N   UNL     1      41.012 -15.139   0.195  1.00  0.00    -0.082 N 
HETATM    4  C   UNL     1      40.376 -15.293   1.394  1.00  0.00     0.726 A 
HETATM    5  N   UNL     1      39.095 -14.898   1.516  1.00  0.00    -0.192 N 
HETATM    6  N   UNL     1      42.266 -15.636   0.238  1.00  0.00    -0.128 NA
HETATM    7  C   UNL     1      42.342 -16.010   1.522  1.00  0.00     0.226 A 
HETATM    8  N   UNL     1      41.194 -15.837   2.255  1.00  0.00    -0.035 NA
HETATM    9  C   UNL     1      38.368 -14.323   0.480  1.00  0.00     0.037 A 
HETATM   10  C   UNL     1      36.938 -13.967   0.810  1.00  0.00     0.070 C 
HETATM   11  H   UNL     1      38.632 -15.014   2.413  1.00  0.00     0.184 HD
ENDROOT
BRANCH   7  12
HETATM   12  S   UNL     1      43.783 -16.707   2.207  1.00  0.00    -0.083 SA
BRANCH  12  13
HETATM   13  C   UNL     1      43.042 -17.877   3.381  1.00  0.00     0.123 C 
BRANCH  13  14
HETATM   14  C   UNL     1      43.564 -19.280   3.174  1.00  0.00    -0.027 A 
HETATM   15  C   UNL     1      44.382 -19.936   4.108  1.00  0.00     0.041 A 
HETATM   16 CL   UNL     1      44.880 -19.183   5.581  1.00  0.00    -0.084 Cl
HETATM   17  C   UNL     1      44.828 -21.241   3.869  1.00  0.00     0.024 A 
HETATM   18  C   UNL     1      44.459 -21.908   2.700  1.00  0.00     0.002 A 
HETATM   19  C   UNL     1      43.641 -21.274   1.770  1.00  0.00     0.001 A 
HETATM   20  C   UNL     1      43.195 -19.972   2.006  1.00  0.00     0.009 A 
ENDBRANCH  13  14
ENDBRANCH  12  13
ENDBRANCH   7  12
BRANCH   2  21
HETATM   21  C   UNL     1      41.263 -13.458  -1.568  1.00  0.00    -0.026 A 
HETATM   22  C   UNL     1      41.628 -12.379  -0.742  1.00  0.00     0.033 A 
HETATM   23  C   UNL     1      42.433 -11.354  -1.234  1.00  0.00     0.034 A 
HETATM   24 CL   UNL     1      42.878 -10.050  -0.203  1.00  0.00    -0.084 Cl
HETATM   25  C   UNL     1      42.884 -11.380  -2.550  1.00  0.00     0.024 A 
HETATM   26  C   UNL     1      42.523 -12.438  -3.384  1.00  0.00     0.002 A 
HETATM   27  C   UNL     1      41.715 -13.470  -2.899  1.00  0.00     0.010 A 
ENDBRANCH   2  21
BRANCH   1  28
HETATM   28  C   UNL     1      38.236 -13.476  -1.842  1.00  0.00     0.293 C 
HETATM   29  O   UNL     1      38.219 -12.268  -2.016  1.00  0.00    -0.259 OA
BRANCH  28  30
HETATM   30  O   UNL     1      37.643 -14.406  -2.631  1.00  0.00    -0.318 OA
BRANCH  30  31
HETATM   31  C   UNL     1      38.205 -14.548  -3.945  1.00  0.00     0.174 C 
HETATM   32  C   UNL     1      38.804 -15.933  -4.113  1.00  0.00     0.034 C 
ENDBRANCH  30  31
ENDBRANCH  28  30
ENDBRANCH   1  28
TORSDOF 7
ENDMDL
MODEL 2
REMARK VINA RESULT:      -8.1      2.170      3.666
REMARK  7 active torsions:
REMARK  status: ('A' for Active; 'I' for Inactive)
REMARK    1  A    between atoms: C_2  and  O_3 
REMARK    2  A    between atoms: O_3  and  C_4 
REMARK    3  A    between atoms: C_4  and  C_5 
REMARK    4  A    between atoms: C_6  and  C_7 
REMARK    5  A    between atoms: C_18  and  S_19 
REMARK    6  A    between atoms: S_19  and  C_20 
REMARK    7  A    between atoms: C_20  and  C_21 
ROOT
HETATM    1  C   UNL     1      41.418 -13.564  -1.617  1.00  0.00     0.070 A 
HETATM    2  C   UNL     1      41.740 -13.481  -0.130  1.00  0.00     0.203 A 
HETATM    3  N   UNL     1      41.644 -14.796   0.514  1.00  0.00    -0.082 N 
HETATM    4  C   UNL     1      41.336 -15.952  -0.143  1.00  0.00     0.726 A 
HETATM    5  N   UNL     1      41.088 -15.913  -1.465  1.00  0.00    -0.192 N 
HETATM    6  N   UNL     1      41.915 -15.028   1.816  1.00  0.00    -0.128 NA
HETATM    7  C   UNL     1      41.679 -16.345   1.888  1.00  0.00     0.226 A 
HETATM    8  N   UNL     1      41.346 -16.949   0.701  1.00  0.00    -0.035 NA
HETATM    9  C   UNL     1      41.117 -14.744  -2.217  1.00  0.00     0.037 A 
HETATM   10  C   UNL     1      40.831 -14.911  -3.689  1.00  0.00     0.070 C 
HETATM   11  H   UNL     1      40.857 -16.779  -1.945  1.00  0.00     0.184 HD
ENDROOT
BRANCH   7  12
HETATM   12  S   UNL     1      41.824 -17.239   3.375  1.00  0.00    -0.083 SA
BRANCH  12  13
HETATM   13  C   UNL     1      43.610 -17.567   3.374  1.00  0.00     0.123 C 
BRANCH  13  14
HETATM   14  C   UNL     1      43.906 -19.041   3.218  1.00  0.00    -0.027 A 
HETATM   15  C   UNL     1      44.517 -19.808   4.222  1.00  0.00     0.041 A 
HETATM   16 CL   UNL     1      45.004 -19.123   5.732  1.00  0.00    -0.084 Cl
HETATM   17  C   UNL     1      44.757 -21.173   4.027  1.00  0.00     0.024 A 
HETATM   18  C   UNL     1      44.384 -21.789   2.832  1.00  0.00     0.002 A 
HETATM   19  C   UNL     1      43.769 -21.044   1.831  1.00  0.00     0.001 A 
HETATM   20  C   UNL     1      43.529 -19.682   2.023  1.00  0.00     0.009 A 
ENDBRANCH  13  14
ENDBRANCH  12  13
ENDBRANCH   7  12
BRANCH   2  21
HETATM   21  C   UNL     1      40.883 -12.470   0.630  1.00  0.00    -0.026 A 
HETATM   22  C   UNL     1      39.481 -12.567   0.571  1.00  0.00     0.033 A 
HETATM   23  C   UNL     1      38.682 -11.659   1.262  1.00  0.00     0.034 A 
HETATM   24 CL   UNL     1      36.969 -11.803   1.186  1.00  0.00    -0.084 Cl
HETATM   25  C   UNL     1      39.258 -10.641   2.016  1.00  0.00     0.024 A 
HETATM   26  C   UNL     1      40.646 -10.527   2.076  1.00  0.00     0.002 A 
HETATM   27  C   UNL     1      41.456 -11.433   1.386  1.00  0.00     0.010 A 
ENDBRANCH   2  21
BRANCH   1  28
HETATM   28  C   UNL     1      41.391 -12.288  -2.361  1.00  0.00     0.293 C 
HETATM   29  O   UNL     1      40.369 -11.719  -2.712  1.00  0.00    -0.259 OA
BRANCH  28  30
HETATM   30  O   UNL     1      42.659 -11.850  -2.560  1.00  0.00    -0.318 OA
BRANCH  30  31
HETATM   31  C   UNL     1      42.839 -10.427  -2.477  1.00  0.00     0.174 C 
HETATM   32  C   UNL     1      43.655 -10.073  -1.246  1.00  0.00     0.034 C 
ENDBRANCH  30  31
ENDBRANCH  28  30
ENDBRANCH   1  28
TORSDOF 7
ENDMDL
MODEL 3
REMARK VINA RESULT:      -7.9      2.225      3.446
REMARK  7 active torsions:
REMARK  status: ('A' for Active; 'I' for Inactive)
REMARK    1  A    between atoms: C_2  and  O_3 
REMARK    2  A    between atoms: O_3  and  C_4 
REMARK    3  A    between atoms: C_4  and  C_5 
REMARK    4  A    between atoms: C_6  and  C_7 
REMARK    5  A    between atoms: C_18  and  S_19 
REMARK    6  A    between atoms: S_19  and  C_20 
REMARK    7  A    between atoms: C_20  and  C_21 
ROOT
HETATM    1  C   UNL     1      40.568 -11.788  -0.276  1.00  0.00     0.070 A 
HETATM    2  C   UNL     1      39.955 -13.167  -0.060  1.00  0.00     0.203 A 
HETATM    3  N   UNL     1      40.679 -13.920   0.972  1.00  0.00    -0.082 N 
HETATM    4  C   UNL     1      41.746 -13.434   1.671  1.00  0.00     0.726 A 
HETATM    5  N   UNL     1      42.193 -12.192   1.411  1.00  0.00    -0.192 N 
HETATM    6  N   UNL     1      40.334 -15.153   1.398  1.00  0.00    -0.128 NA
HETATM    7  C   UNL     1      41.286 -15.376   2.312  1.00  0.00     0.226 A 
HETATM    8  N   UNL     1      42.156 -14.335   2.524  1.00  0.00    -0.035 NA
HETATM    9  C   UNL     1      41.632 -11.359   0.450  1.00  0.00     0.037 A 
HETATM   10  C   UNL     1      42.264  -9.994   0.323  1.00  0.00     0.070 C 
HETATM   11  H   UNL     1      42.991 -11.840   1.935  1.00  0.00     0.184 HD
ENDROOT
BRANCH   7  12
HETATM   12  S   UNL     1      41.394 -16.869   3.203  1.00  0.00    -0.083 SA
BRANCH  12  13
HETATM   13  C   UNL     1      43.198 -17.039   3.317  1.00  0.00     0.123 C 
BRANCH  13  14
HETATM   14  C   UNL     1      43.632 -18.479   3.175  1.00  0.00    -0.027 A 
HETATM   15  C   UNL     1      44.377 -19.154   4.155  1.00  0.00     0.041 A 
HETATM   16 CL   UNL     1      44.881 -18.382   5.617  1.00  0.00    -0.084 Cl
HETATM   17  C   UNL     1      44.743 -20.493   3.974  1.00  0.00     0.024 A 
HETATM   18  C   UNL     1      44.364 -21.176   2.818  1.00  0.00     0.002 A 
HETATM   19  C   UNL     1      43.618 -20.524   1.842  1.00  0.00     0.001 A 
HETATM   20  C   UNL     1      43.252 -19.188   2.019  1.00  0.00     0.009 A 
ENDBRANCH  13  14
ENDBRANCH  12  13
ENDBRANCH   7  12
BRANCH   2  21
HETATM   21  C   UNL     1      39.855 -14.003  -1.334  1.00  0.00    -0.026 A 
HETATM   22  C   UNL     1      38.624 -14.093  -2.009  1.00  0.00     0.033 A 
HETATM   23  C   UNL     1      38.513 -14.846  -3.176  1.00  0.00     0.034 A 
HETATM   24 CL   UNL     1      37.001 -14.931  -3.994  1.00  0.00    -0.084 Cl
HETATM   25  C   UNL     1      39.616 -15.523  -3.688  1.00  0.00     0.024 A 
HETATM   26  C   UNL     1      40.840 -15.452  -3.024  1.00  0.00     0.002 A 
HETATM   27  C   UNL     1      40.961 -14.699  -1.852  1.00  0.00     0.010 A 
ENDBRANCH   2  21
BRANCH   1  28
HETATM   28  C   UNL     1      39.984 -10.966  -1.355  1.00  0.00     0.293 C 
HETATM   29  O   UNL     1      38.828 -10.575  -1.371  1.00  0.00    -0.259 OA
BRANCH  28  30
HETATM   30  O   UNL     1      40.932 -10.701  -2.289  1.00  0.00    -0.318 OA
BRANCH  30  31
HETATM   31  C   UNL     1      40.751 -11.357  -3.554  1.00  0.00     0.174 C 
HETATM   32  C   UNL     1      42.077 -11.900  -4.057  1.00  0.00     0.034 C 
ENDBRANCH  30  31
ENDBRANCH  28  30
ENDBRANCH   1  28
TORSDOF 7
ENDMDL
MODEL 4
REMARK VINA RESULT:      -7.9      2.645      4.130
REMARK  7 active torsions:
REMARK  status: ('A' for Active; 'I' for Inactive)
REMARK    1  A    between atoms: C_2  and  O_3 
REMARK    2  A    between atoms: O_3  and  C_4 
REMARK    3  A    between atoms: C_4  and  C_5 
REMARK    4  A    between atoms: C_6  and  C_7 
REMARK    5  A    between atoms: C_18  and  S_19 
REMARK    6  A    between atoms: S_19  and  C_20 
REMARK    7  A    between atoms: C_20  and  C_21 
ROOT
HETATM    1  C   UNL     1      39.621 -13.013   0.870  1.00  0.00     0.070 A 
HETATM    2  C   UNL     1      40.863 -13.319   1.699  1.00  0.00     0.203 A 
HETATM    3  N   UNL     1      41.474 -14.592   1.302  1.00  0.00    -0.082 N 
HETATM    4  C   UNL     1      41.007 -15.387   0.295  1.00  0.00     0.726 A 
HETATM    5  N   UNL     1      39.910 -15.010  -0.387  1.00  0.00    -0.192 N 
HETATM    6  N   UNL     1      42.606 -15.094   1.838  1.00  0.00    -0.128 NA
HETATM    7  C   UNL     1      42.723 -16.236   1.148  1.00  0.00     0.226 A 
HETATM    8  N   UNL     1      41.774 -16.438   0.177  1.00  0.00    -0.035 NA
HETATM    9  C   UNL     1      39.203 -13.843  -0.120  1.00  0.00     0.037 A 
HETATM   10  C   UNL     1      38.011 -13.586  -1.010  1.00  0.00     0.070 C 
HETATM   11  H   UNL     1      39.568 -15.610  -1.134  1.00  0.00     0.184 HD
ENDROOT
BRANCH   7  12
HETATM   12  S   UNL     1      44.013 -17.371   1.433  1.00  0.00    -0.083 SA
BRANCH  12  13
HETATM   13  C   UNL     1      43.398 -18.177   2.939  1.00  0.00     0.123 C 
BRANCH  13  14
HETATM   14  C   UNL     1      43.840 -19.620   3.019  1.00  0.00    -0.027 A 
HETATM   15  C   UNL     1      44.463 -20.166   4.152  1.00  0.00     0.041 A 
HETATM   16 CL   UNL     1      44.796 -19.223   5.562  1.00  0.00    -0.084 Cl
HETATM   17  C   UNL     1      44.840 -21.514   4.175  1.00  0.00     0.024 A 
HETATM   18  C   UNL     1      44.597 -22.332   3.071  1.00  0.00     0.002 A 
HETATM   19  C   UNL     1      43.972 -21.807   1.945  1.00  0.00     0.001 A 
HETATM   20  C   UNL     1      43.594 -20.463   1.919  1.00  0.00     0.009 A 
ENDBRANCH  13  14
ENDBRANCH  12  13
ENDBRANCH   7  12
BRANCH   2  21
HETATM   21  C   UNL     1      40.613 -13.314   3.206  1.00  0.00    -0.026 A 
HETATM   22  C   UNL     1      41.072 -12.234   3.981  1.00  0.00     0.033 A 
HETATM   23  C   UNL     1      40.849 -12.208   5.357  1.00  0.00     0.034 A 
HETATM   24 CL   UNL     1      41.407 -10.870   6.284  1.00  0.00    -0.084 Cl
HETATM   25  C   UNL     1      40.175 -13.251   5.983  1.00  0.00     0.024 A 
HETATM   26  C   UNL     1      39.723 -14.334   5.229  1.00  0.00     0.002 A 
HETATM   27  C   UNL     1      39.942 -14.369   3.849  1.00  0.00     0.010 A 
ENDBRANCH   2  21
BRANCH   1  28
HETATM   28  C   UNL     1      38.862 -11.800   1.236  1.00  0.00     0.293 C 
HETATM   29  O   UNL     1      37.787 -11.812   1.816  1.00  0.00    -0.259 OA
BRANCH  28  30
HETATM   30  O   UNL     1      39.553 -10.698   0.855  1.00  0.00    -0.318 OA
BRANCH  30  31
HETATM   31  C   UNL     1      39.090 -10.065  -0.349  1.00  0.00     0.174 C 
HETATM   32  C   UNL     1      40.168 -10.115  -1.416  1.00  0.00     0.034 C 
ENDBRANCH  30  31
ENDBRANCH  28  30
ENDBRANCH   1  28
TORSDOF 7
ENDMDL
MODEL 5
REMARK VINA RESULT:      -7.8      1.770      2.414
REMARK  7 active torsions:
REMARK  status: ('A' for Active; 'I' for Inactive)
REMARK    1  A    between atoms: C_2  and  O_3 
REMARK    2  A    between atoms: O_3  and  C_4 
REMARK    3  A    between atoms: C_4  and  C_5 
REMARK    4  A    between atoms: C_6  and  C_7 
REMARK    5  A    between atoms: C_18  and  S_19 
REMARK    6  A    between atoms: S_19  and  C_20 
REMARK    7  A    between atoms: C_20  and  C_21 
ROOT
HETATM    1  C   UNL     1      39.072 -13.173   1.270  1.00  0.00     0.070 A 
HETATM    2  C   UNL     1      39.642 -14.251   0.355  1.00  0.00     0.203 A 
HETATM    3  N   UNL     1      40.783 -14.934   0.976  1.00  0.00    -0.082 N 
HETATM    4  C   UNL     1      41.253 -14.660   2.228  1.00  0.00     0.726 A 
HETATM    5  N   UNL     1      40.660 -13.698   2.958  1.00  0.00    -0.192 N 
HETATM    6  N   UNL     1      41.457 -15.957   0.411  1.00  0.00    -0.128 NA
HETATM    7  C   UNL     1      42.371 -16.205   1.358  1.00  0.00     0.226 A 
HETATM    8  N   UNL     1      42.262 -15.445   2.496  1.00  0.00    -0.035 NA
HETATM    9  C   UNL     1      39.582 -12.945   2.506  1.00  0.00     0.037 A 
HETATM   10  C   UNL     1      39.044 -11.928   3.483  1.00  0.00     0.070 C 
HETATM   11  H   UNL     1      41.019 -13.499   3.889  1.00  0.00     0.184 HD
ENDROOT
BRANCH   7  12
HETATM   12  S   UNL     1      43.592 -17.433   1.179  1.00  0.00    -0.083 SA
BRANCH  12  13
HETATM   13  C   UNL     1      43.725 -18.002   2.897  1.00  0.00     0.123 C 
BRANCH  13  14
HETATM   14  C   UNL     1      43.998 -19.486   2.974  1.00  0.00    -0.027 A 
HETATM   15  C   UNL     1      44.573 -20.101   4.097  1.00  0.00     0.041 A 
HETATM   16 CL   UNL     1      45.035 -19.202   5.499  1.00  0.00    -0.084 Cl
HETATM   17  C   UNL     1      44.793 -21.483   4.117  1.00  0.00     0.024 A 
HETATM   18  C   UNL     1      44.438 -22.268   3.020  1.00  0.00     0.002 A 
HETATM   19  C   UNL     1      43.860 -21.675   1.902  1.00  0.00     0.001 A 
HETATM   20  C   UNL     1      43.639 -20.296   1.880  1.00  0.00     0.009 A 
ENDBRANCH  13  14
ENDBRANCH  12  13
ENDBRANCH   7  12
BRANCH   2  21
HETATM   21  C   UNL     1      40.038 -13.738  -1.028  1.00  0.00    -0.026 A 
HETATM   22  C   UNL     1      41.092 -12.813  -1.149  1.00  0.00     0.033 A 
HETATM   23  C   UNL     1      41.473 -12.337  -2.401  1.00  0.00     0.034 A 
HETATM   24 CL   UNL     1      42.773 -11.217  -2.528  1.00  0.00    -0.084 Cl
HETATM   25  C   UNL     1      40.815 -12.766  -3.550  1.00  0.00     0.024 A 
HETATM   26  C   UNL     1      39.762 -13.675  -3.445  1.00  0.00     0.002 A 
HETATM   27  C   UNL     1      39.372 -14.157  -2.193  1.00  0.00     0.010 A 
ENDBRANCH   2  21
BRANCH   1  28
HETATM   28  C   UNL     1      37.974 -12.351   0.720  1.00  0.00     0.293 C 
HETATM   29  O   UNL     1      36.815 -12.724   0.630  1.00  0.00    -0.259 OA
BRANCH  28  30
HETATM   30  O   UNL     1      38.452 -11.131   0.368  1.00  0.00    -0.318 OA
BRANCH  30  31
HETATM   31  C   UNL     1      37.637 -10.394  -0.557  1.00  0.00     0.174 C 
HETATM   32  C   UNL     1      38.152 -10.579  -1.973  1.00  0.00     0.034 C 
ENDBRANCH  30  31
ENDBRANCH  28  30
ENDBRANCH   1  28
TORSDOF 7
ENDMDL
MODEL 6
REMARK VINA RESULT:      -7.7      4.716      6.755
REMARK  7 active torsions:
REMARK  status: ('A' for Active; 'I' for Inactive)
REMARK    1  A    between atoms: C_2  and  O_3 
REMARK    2  A    between atoms: O_3  and  C_4 
REMARK    3  A    between atoms: C_4  and  C_5 
REMARK    4  A    between atoms: C_6  and  C_7 
REMARK    5  A    between atoms: C_18  and  S_19 
REMARK    6  A    between atoms: S_19  and  C_20 
REMARK    7  A    between atoms: C_20  and  C_21 
ROOT
HETATM    1  C   UNL     1      42.374 -13.401   6.372  1.00  0.00     0.070 A 
HETATM    2  C   UNL     1      41.824 -14.712   5.820  1.00  0.00     0.203 A 
HETATM    3  N   UNL     1      42.647 -15.855   6.232  1.00  0.00    -0.082 N 
HETATM    4  C   UNL     1      43.748 -15.759   7.035  1.00  0.00     0.726 A 
HETATM    5  N   UNL     1      44.134 -14.550   7.482  1.00  0.00    -0.192 N 
HETATM    6  N   UNL     1      42.375 -17.140   5.923  1.00  0.00    -0.128 NA
HETATM    7  C   UNL     1      43.401 -17.762   6.519  1.00  0.00     0.226 A 
HETATM    8  N   UNL     1      44.249 -16.950   7.230  1.00  0.00    -0.035 NA
HETATM    9  C   UNL     1      43.475 -13.368   7.165  1.00  0.00     0.037 A 
HETATM   10  C   UNL     1      44.050 -12.117   7.784  1.00  0.00     0.070 C 
HETATM   11  H   UNL     1      44.957 -14.490   8.077  1.00  0.00     0.184 HD
ENDROOT
BRANCH   7  12
HETATM   12  S   UNL     1      43.624 -19.486   6.434  1.00  0.00    -0.083 SA
BRANCH  12  13
HETATM   13  C   UNL     1      44.990 -19.570   5.241  1.00  0.00     0.123 C 
BRANCH  13  14
HETATM   14  C   UNL     1      44.597 -20.329   3.995  1.00  0.00    -0.027 A 
HETATM   15  C   UNL     1      44.051 -19.705   2.861  1.00  0.00     0.041 A 
HETATM   16 CL   UNL     1      43.766 -18.002   2.798  1.00  0.00    -0.084 Cl
HETATM   17  C   UNL     1      43.715 -20.457   1.730  1.00  0.00     0.024 A 
HETATM   18  C   UNL     1      43.924 -21.836   1.713  1.00  0.00     0.002 A 
HETATM   19  C   UNL     1      44.472 -22.467   2.825  1.00  0.00     0.001 A 
HETATM   20  C   UNL     1      44.808 -21.720   3.956  1.00  0.00     0.009 A 
ENDBRANCH  13  14
ENDBRANCH  12  13
ENDBRANCH   7  12
BRANCH   2  21
HETATM   21  C   UNL     1      41.656 -14.718   4.302  1.00  0.00    -0.026 A 
HETATM   22  C   UNL     1      40.370 -14.862   3.748  1.00  0.00     0.033 A 
HETATM   23  C   UNL     1      40.194 -14.864   2.366  1.00  0.00     0.034 A 
HETATM   24 CL   UNL     1      38.612 -15.028   1.710  1.00  0.00    -0.084 Cl
HETATM   25  C   UNL     1      41.287 -14.729   1.515  1.00  0.00     0.024 A 
HETATM   26  C   UNL     1      42.568 -14.595   2.049  1.00  0.00     0.002 A 
HETATM   27  C   UNL     1      42.754 -14.592   3.434  1.00  0.00     0.010 A 
ENDBRANCH   2  21
BRANCH   1  28
HETATM   28  C   UNL     1      41.684 -12.165   5.952  1.00  0.00     0.293 C 
HETATM   29  O   UNL     1      41.993 -11.506   4.971  1.00  0.00    -0.259 OA
BRANCH  28  30
HETATM   30  O   UNL     1      40.658 -11.905   6.800  1.00  0.00    -0.318 OA
BRANCH  30  31
HETATM   31  C   UNL     1      40.747 -10.660   7.511  1.00  0.00     0.174 C 
HETATM   32  C   UNL     1      39.394  -9.972   7.533  1.00  0.00     0.034 C 
ENDBRANCH  30  31
ENDBRANCH  28  30
ENDBRANCH   1  28
TORSDOF 7
ENDMDL
MODEL 7
REMARK VINA RESULT:      -7.6      6.733      8.851
REMARK  7 active torsions:
REMARK  status: ('A' for Active; 'I' for Inactive)
REMARK    1  A    between atoms: C_2  and  O_3 
REMARK    2  A    between atoms: O_3  and  C_4 
REMARK    3  A    between atoms: C_4  and  C_5 
REMARK    4  A    between atoms: C_6  and  C_7 
REMARK    5  A    between atoms: C_18  and  S_19 
REMARK    6  A    between atoms: S_19  and  C_20 
REMARK    7  A    between atoms: C_20  and  C_21 
ROOT
HETATM    1  C   UNL     1      43.105 -16.306   4.424  1.00  0.00     0.070 A 
HETATM    2  C   UNL     1      43.333 -14.811   4.614  1.00  0.00     0.203 A 
HETATM    3  N   UNL     1      43.788 -14.506   5.975  1.00  0.00    -0.082 N 
HETATM    4  C   UNL     1      44.010 -15.447   6.940  1.00  0.00     0.726 A 
HETATM    5  N   UNL     1      43.794 -16.745   6.656  1.00  0.00    -0.192 N 
HETATM    6  N   UNL     1      44.106 -13.270   6.413  1.00  0.00    -0.128 NA
HETATM    7  C   UNL     1      44.446 -13.535   7.681  1.00  0.00     0.226 A 
HETATM    8  N   UNL     1      44.423 -14.862   8.032  1.00  0.00    -0.035 NA
HETATM    9  C   UNL     1      43.342 -17.196   5.421  1.00  0.00     0.037 A 
HETATM   10  C   UNL     1      43.182 -18.691   5.294  1.00  0.00     0.070 C 
HETATM   11  H   UNL     1      43.960 -17.437   7.382  1.00  0.00     0.184 HD
ENDROOT
BRANCH   7  12
HETATM   12  S   UNL     1      44.926 -12.289   8.799  1.00  0.00    -0.083 SA
BRANCH  12  13
HETATM   13  C   UNL     1      43.405 -11.299   8.841  1.00  0.00     0.123 C 
BRANCH  13  14
HETATM   14  C   UNL     1      43.073 -10.845  10.243  1.00  0.00    -0.027 A 
HETATM   15  C   UNL     1      41.758 -10.723  10.716  1.00  0.00     0.041 A 
HETATM   16 CL   UNL     1      40.388 -11.069   9.720  1.00  0.00    -0.084 Cl
HETATM   17  C   UNL     1      41.510 -10.308  12.030  1.00  0.00     0.024 A 
HETATM   18  C   UNL     1      42.570 -10.017  12.888  1.00  0.00     0.002 A 
HETATM   19  C   UNL     1      43.880 -10.142  12.437  1.00  0.00     0.001 A 
HETATM   20  C   UNL     1      44.131 -10.555  11.126  1.00  0.00     0.009 A 
ENDBRANCH  13  14
ENDBRANCH  12  13
ENDBRANCH   7  12
BRANCH   2  21
HETATM   21  C   UNL     1      42.115 -13.955   4.273  1.00  0.00    -0.026 A 
HETATM   22  C   UNL     1      42.195 -13.024   3.220  1.00  0.00     0.033 A 
HETATM   23  C   UNL     1      41.093 -12.237   2.890  1.00  0.00     0.034 A 
HETATM   24 CL   UNL     1      41.208 -11.115   1.591  1.00  0.00    -0.084 Cl
HETATM   25  C   UNL     1      39.902 -12.357   3.598  1.00  0.00     0.024 A 
HETATM   26  C   UNL     1      39.811 -13.268   4.650  1.00  0.00     0.002 A 
HETATM   27  C   UNL     1      40.911 -14.061   4.989  1.00  0.00     0.010 A 
ENDBRANCH   2  21
BRANCH   1  28
HETATM   28  C   UNL     1      42.557 -16.732   3.120  1.00  0.00     0.293 C 
HETATM   29  O   UNL     1      41.394 -17.056   2.937  1.00  0.00    -0.259 OA
BRANCH  28  30
HETATM   30  O   UNL     1      43.531 -16.677   2.177  1.00  0.00    -0.318 OA
BRANCH  30  31
HETATM   31  C   UNL     1      43.465 -17.693   1.164  1.00  0.00     0.174 C 
HETATM   32  C   UNL     1      43.875 -19.036   1.740  1.00  0.00     0.034 C 
ENDBRANCH  30  31
ENDBRANCH  28  30
ENDBRANCH   1  28
TORSDOF 7
ENDMDL
MODEL 8
REMARK VINA RESULT:      -7.6      6.878      9.184
REMARK  7 active torsions:
REMARK  status: ('A' for Active; 'I' for Inactive)
REMARK    1  A    between atoms: C_2  and  O_3 
REMARK    2  A    between atoms: O_3  and  C_4 
REMARK    3  A    between atoms: C_4  and  C_5 
REMARK    4  A    between atoms: C_6  and  C_7 
REMARK    5  A    between atoms: C_18  and  S_19 
REMARK    6  A    between atoms: S_19  and  C_20 
REMARK    7  A    between atoms: C_20  and  C_21 
ROOT
HETATM    1  C   UNL     1      41.474 -13.538   3.348  1.00  0.00     0.070 A 
HETATM    2  C   UNL     1      41.346 -13.472   4.865  1.00  0.00     0.203 A 
HETATM    3  N   UNL     1      41.327 -12.084   5.342  1.00  0.00    -0.082 N 
HETATM    4  C   UNL     1      41.383 -10.991   4.526  1.00  0.00     0.726 A 
HETATM    5  N   UNL     1      41.475 -11.166   3.195  1.00  0.00    -0.192 N 
HETATM    6  N   UNL     1      41.182 -11.725   6.635  1.00  0.00    -0.128 NA
HETATM    7  C   UNL     1      41.231 -10.390   6.529  1.00  0.00     0.226 A 
HETATM    8  N   UNL     1      41.330  -9.904   5.249  1.00  0.00    -0.035 NA
HETATM    9  C   UNL     1      41.527 -12.415   2.587  1.00  0.00     0.037 A 
HETATM   10  C   UNL     1      41.608 -12.402   1.080  1.00  0.00     0.070 C 
HETATM   11  H   UNL     1      41.520 -10.345   2.596  1.00  0.00     0.184 HD
ENDROOT
BRANCH   7  12
HETATM   12  S   UNL     1      41.136  -9.340   7.914  1.00  0.00    -0.083 SA
BRANCH  12  13
HETATM   13  C   UNL     1      40.930 -10.572   9.232  1.00  0.00     0.123 C 
BRANCH  13  14
HETATM   14  C   UNL     1      41.932 -10.371  10.345  1.00  0.00    -0.027 A 
HETATM   15  C   UNL     1      43.267 -10.796  10.256  1.00  0.00     0.041 A 
HETATM   16 CL   UNL     1      43.881 -11.608   8.859  1.00  0.00    -0.084 Cl
HETATM   17  C   UNL     1      44.156 -10.574  11.314  1.00  0.00     0.024 A 
HETATM   18  C   UNL     1      43.725  -9.920  12.469  1.00  0.00     0.002 A 
HETATM   19  C   UNL     1      42.408  -9.485  12.568  1.00  0.00     0.001 A 
HETATM   20  C   UNL     1      41.519  -9.706  11.514  1.00  0.00     0.009 A 
ENDBRANCH  13  14
ENDBRANCH  12  13
ENDBRANCH   7  12
BRANCH   2  21
HETATM   21  C   UNL     1      42.425 -14.257   5.609  1.00  0.00    -0.026 A 
HETATM   22  C   UNL     1      42.106 -15.505   6.176  1.00  0.00     0.033 A 
HETATM   23  C   UNL     1      43.077 -16.240   6.853  1.00  0.00     0.034 A 
HETATM   24 CL   UNL     1      42.671 -17.770   7.528  1.00  0.00    -0.084 Cl
HETATM   25  C   UNL     1      44.373 -15.749   6.982  1.00  0.00     0.024 A 
HETATM   26  C   UNL     1      44.700 -14.510   6.433  1.00  0.00     0.002 A 
HETATM   27  C   UNL     1      43.733 -13.765   5.753  1.00  0.00     0.010 A 
ENDBRANCH   2  21
BRANCH   1  28
HETATM   28  C   UNL     1      41.596 -14.884   2.752  1.00  0.00     0.293 C 
HETATM   29  O   UNL     1      40.652 -15.626   2.532  1.00  0.00    -0.259 OA
BRANCH  28  30
HETATM   30  O   UNL     1      42.898 -15.140   2.470  1.00  0.00    -0.318 OA
BRANCH  30  31
HETATM   31  C   UNL     1      43.191 -16.495   2.093  1.00  0.00     0.174 C 
HETATM   32  C   UNL     1      43.631 -17.293   3.307  1.00  0.00     0.034 C 
ENDBRANCH  30  31
ENDBRANCH  28  30
ENDBRANCH   1  28
TORSDOF 7
ENDMDL
MODEL 9
REMARK VINA RESULT:      -7.5      2.960      4.268
REMARK  7 active torsions:
REMARK  status: ('A' for Active; 'I' for Inactive)
REMARK    1  A    between atoms: C_2  and  O_3 
REMARK    2  A    between atoms: O_3  and  C_4 
REMARK    3  A    between atoms: C_4  and  C_5 
REMARK    4  A    between atoms: C_6  and  C_7 
REMARK    5  A    between atoms: C_18  and  S_19 
REMARK    6  A    between atoms: S_19  and  C_20 
REMARK    7  A    between atoms: C_20  and  C_21 
ROOT
HETATM    1  C   UNL     1      40.034 -11.966   3.654  1.00  0.00     0.070 A 
HETATM    2  C   UNL     1      39.958 -13.352   3.025  1.00  0.00     0.203 A 
HETATM    3  N   UNL     1      41.275 -13.999   2.992  1.00  0.00    -0.082 N 
HETATM    4  C   UNL     1      42.417 -13.441   3.492  1.00  0.00     0.726 A 
HETATM    5  N   UNL     1      42.365 -12.215   4.044  1.00  0.00    -0.192 N 
HETATM    6  N   UNL     1      41.501 -15.246   2.528  1.00  0.00    -0.128 NA
HETATM    7  C   UNL     1      42.823 -15.346   2.717  1.00  0.00     0.226 A 
HETATM    8  N   UNL     1      43.415 -14.269   3.327  1.00  0.00    -0.035 NA
HETATM    9  C   UNL     1      41.200 -11.462   4.132  1.00  0.00     0.037 A 
HETATM   10  C   UNL     1      41.343 -10.119   4.806  1.00  0.00     0.070 C 
HETATM   11  H   UNL     1      43.222 -11.807   4.410  1.00  0.00     0.184 HD
ENDROOT
BRANCH   7  12
HETATM   12  S   UNL     1      43.726 -16.762   2.257  1.00  0.00    -0.083 SA
BRANCH  12  13
HETATM   13  C   UNL     1      42.948 -17.999   3.334  1.00  0.00     0.123 C 
BRANCH  13  14
HETATM   14  C   UNL     1      43.525 -19.377   3.108  1.00  0.00    -0.027 A 
HETATM   15  C   UNL     1      44.379 -20.007   4.027  1.00  0.00     0.041 A 
HETATM   16 CL   UNL     1      44.862 -19.248   5.502  1.00  0.00    -0.084 Cl
HETATM   17  C   UNL     1      44.876 -21.290   3.771  1.00  0.00     0.024 A 
HETATM   18  C   UNL     1      44.522 -21.962   2.600  1.00  0.00     0.002 A 
HETATM   19  C   UNL     1      43.669 -21.354   1.685  1.00  0.00     0.001 A 
HETATM   20  C   UNL     1      43.172 -20.073   1.937  1.00  0.00     0.009 A 
ENDBRANCH  13  14
ENDBRANCH  12  13
ENDBRANCH   7  12
BRANCH   2  21
HETATM   21  C   UNL     1      39.344 -13.362   1.627  1.00  0.00    -0.026 A 
HETATM   22  C   UNL     1      40.033 -12.751   0.563  1.00  0.00     0.033 A 
HETATM   23  C   UNL     1      39.493 -12.754  -0.721  1.00  0.00     0.034 A 
HETATM   24 CL   UNL     1      40.358 -12.012  -2.010  1.00  0.00    -0.084 Cl
HETATM   25  C   UNL     1      38.264 -13.357  -0.969  1.00  0.00     0.024 A 
HETATM   26  C   UNL     1      37.565 -13.958   0.077  1.00  0.00     0.002 A 
HETATM   27  C   UNL     1      38.099 -13.959   1.369  1.00  0.00     0.010 A 
ENDBRANCH   2  21
BRANCH   1  28
HETATM   28  C   UNL     1      38.787 -11.174   3.662  1.00  0.00     0.293 C 
HETATM   29  O   UNL     1      37.994 -11.151   4.591  1.00  0.00    -0.259 OA
BRANCH  28  30
HETATM   30  O   UNL     1      38.685 -10.472   2.506  1.00  0.00    -0.318 OA
BRANCH  30  31
HETATM   31  C   UNL     1      37.352 -10.320   1.993  1.00  0.00     0.174 C 
HETATM   32  C   UNL     1      37.397  -9.816   0.561  1.00  0.00     0.034 C 
ENDBRANCH  30  31
ENDBRANCH  28  30
ENDBRANCH   1  28
TORSDOF 7
ENDMDL
MODEL 10
REMARK VINA RESULT:      -7.5      3.976      7.864
REMARK  7 active torsions:
REMARK  status: ('A' for Active; 'I' for Inactive)
REMARK    1  A    between atoms: C_2  and  O_3 
REMARK    2  A    between atoms: O_3  and  C_4 
REMARK    3  A    between atoms: C_4  and  C_5 
REMARK    4  A    between atoms: C_6  and  C_7 
REMARK    5  A    between atoms: C_18  and  S_19 
REMARK    6  A    between atoms: S_19  and  C_20 
REMARK    7  A    between atoms: C_20  and  C_21 
ROOT
HETATM    1  C   UNL     1      42.465 -13.230   4.108  1.00  0.00     0.070 A 
HETATM    2  C   UNL     1      42.760 -13.745   2.703  1.00  0.00     0.203 A 
HETATM    3  N   UNL     1      42.137 -12.897   1.679  1.00  0.00    -0.082 N 
HETATM    4  C   UNL     1      41.412 -11.772   1.950  1.00  0.00     0.726 A 
HETATM    5  N   UNL     1      41.231 -11.398   3.230  1.00  0.00    -0.192 N 
HETATM    6  N   UNL     1      42.264 -13.091   0.350  1.00  0.00    -0.128 NA
HETATM    7  C   UNL     1      41.526 -12.077  -0.121  1.00  0.00     0.226 A 
HETATM    8  N   UNL     1      41.008 -11.234   0.831  1.00  0.00    -0.035 NA
HETATM    9  C   UNL     1      41.737 -12.104   4.316  1.00  0.00     0.037 A 
HETATM   10  C   UNL     1      41.442 -11.510   5.672  1.00  0.00     0.070 C 
HETATM   11  H   UNL     1      40.687 -10.560   3.422  1.00  0.00     0.184 HD
ENDROOT
BRANCH   7  12
HETATM   12  S   UNL     1      41.271 -11.820  -1.824  1.00  0.00    -0.083 SA
BRANCH  12  13
HETATM   13  C   UNL     1      39.545 -12.364  -1.972  1.00  0.00     0.123 C 
BRANCH  13  14
HETATM   14  C   UNL     1      39.442 -13.718  -2.634  1.00  0.00    -0.027 A 
HETATM   15  C   UNL     1      38.337 -14.109  -3.406  1.00  0.00     0.041 A 
HETATM   16 CL   UNL     1      36.978 -13.071  -3.656  1.00  0.00    -0.084 Cl
HETATM   17  C   UNL     1      38.301 -15.373  -4.007  1.00  0.00     0.024 A 
HETATM   18  C   UNL     1      39.367 -16.258  -3.849  1.00  0.00     0.002 A 
HETATM   19  C   UNL     1      40.473 -15.882  -3.094  1.00  0.00     0.001 A 
HETATM   20  C   UNL     1      40.512 -14.622  -2.494  1.00  0.00     0.009 A 
ENDBRANCH  13  14
ENDBRANCH  12  13
ENDBRANCH   7  12
BRANCH   2  21
HETATM   21  C   UNL     1      42.355 -15.201   2.484  1.00  0.00    -0.026 A 
HETATM   22  C   UNL     1      43.349 -16.195   2.422  1.00  0.00     0.033 A 
HETATM   23  C   UNL     1      43.000 -17.530   2.228  1.00  0.00     0.034 A 
HETATM   24 CL   UNL     1      44.230 -18.731   2.169  1.00  0.00    -0.084 Cl
HETATM   25  C   UNL     1      41.665 -17.898   2.089  1.00  0.00     0.024 A 
HETATM   26  C   UNL     1      40.670 -16.922   2.138  1.00  0.00     0.002 A 
HETATM   27  C   UNL     1      41.010 -15.581   2.331  1.00  0.00     0.010 A 
ENDBRANCH   2  21
BRANCH   1  28
HETATM   28  C   UNL     1      42.962 -14.050   5.231  1.00  0.00     0.293 C 
HETATM   29  O   UNL     1      44.119 -14.051   5.622  1.00  0.00    -0.259 OA
BRANCH  28  30
HETATM   30  O   UNL     1      41.938 -14.763   5.762  1.00  0.00    -0.318 OA
BRANCH  30  31
HETATM   31  C   UNL     1      42.280 -16.075   6.235  1.00  0.00     0.174 C 
HETATM   32  C   UNL     1      41.245 -17.085   5.774  1.00  0.00     0.034 C 
ENDBRANCH  30  31
ENDBRANCH  28  30
ENDBRANCH   1  28
TORSDOF 7
ENDMDL
