MODEL 1
REMARK VINA RESULT:      -9.0      0.000      0.000
REMARK  4 active torsions:
REMARK  status: ('A' for Active; 'I' for Inactive)
REMARK    1  A    between atoms: C_6  and  N_7 
REMARK       I    between atoms: N_7  and  C_8 
REMARK    2  A    between atoms: C_8  and  C_9 
REMARK    3  A    between atoms: C_10  and  C_11 
REMARK    4  A    between atoms: C_12  and  O_13 
ROOT
HETATM    1  C   UNL     1      40.975 -15.282   4.264  1.00  0.00     0.063 A 
HETATM    2  C   UNL     1      41.013 -13.956   3.516  1.00  0.00     0.205 A 
HETATM    3  N   UNL     1      40.633 -12.836   4.388  1.00  0.00    -0.084 N 
HETATM    4  C   UNL     1      40.276 -12.976   5.703  1.00  0.00     0.725 A 
HETATM    5  N   UNL     1      40.244 -14.203   6.252  1.00  0.00    -0.192 N 
HETATM    6  N   UNL     1      40.718 -11.531   4.043  1.00  0.00    -0.149 NA
HETATM    7  C   UNL     1      40.313 -10.950   5.178  1.00  0.00     0.275 A 
HETATM    8  N   UNL     1      40.039 -11.797   6.220  1.00  0.00    -0.054 NA
HETATM    9  C   UNL     1      40.598 -15.359   5.565  1.00  0.00     0.037 A 
HETATM   10  C   UNL     1      40.550 -16.637   6.367  1.00  0.00     0.070 C 
HETATM   11  H   UNL     1      39.980 -14.298   7.229  1.00  0.00     0.184 HD
ENDROOT
BRANCH   1  12
HETATM   12  C   UNL     1      41.294 -16.520   3.505  1.00  0.00     0.256 C 
HETATM   13  N   UNL     1      42.573 -16.983   3.735  1.00  0.00    -0.323 N 
HETATM   14  H   UNL     1      43.175 -16.412   4.310  1.00  0.00     0.169 HD
HETATM   15  O   UNL     1      40.431 -17.026   2.798  1.00  0.00    -0.267 OA
BRANCH  13  16
HETATM   16  C   UNL     1      43.140 -18.204   3.291  1.00  0.00     0.041 A 
HETATM   17  C   UNL     1      44.029 -18.893   4.145  1.00  0.00    -0.035 A 
HETATM   18  C   UNL     1      44.550 -20.139   3.744  1.00  0.00     0.015 A 
HETATM   19  C   UNL     1      44.445 -18.349   5.486  1.00  0.00     0.050 C 
HETATM   20  C   UNL     1      44.222 -20.700   2.506  1.00  0.00    -0.061 A 
HETATM   21  C   UNL     1      44.742 -22.049   2.110  1.00  0.00     0.048 C 
HETATM   22  C   UNL     1      43.351 -20.008   1.667  1.00  0.00     0.009 A 
HETATM   23  C   UNL     1      42.822 -18.772   2.053  1.00  0.00     0.030 A 
ENDBRANCH  13  16
ENDBRANCH   1  12
BRANCH   2  24
HETATM   24  C   UNL     1      40.162 -13.954   2.252  1.00  0.00     0.005 A 
HETATM   25  C   UNL     1      40.708 -13.550   1.019  1.00  0.00     0.076 A 
HETATM   26  C   UNL     1      39.915 -13.566  -0.133  1.00  0.00     0.037 A 
HETATM   27  C   UNL     1      38.576 -13.960  -0.065  1.00  0.00     0.003 A 
HETATM   28  C   UNL     1      38.025 -14.350   1.151  1.00  0.00     0.001 A 
HETATM   29  C   UNL     1      38.811 -14.350   2.303  1.00  0.00     0.012 A 
BRANCH  25  30
HETATM   30  O   UNL     1      42.034 -13.201   1.021  1.00  0.00    -0.355 OA
HETATM   31  C   UNL     1      42.333 -11.898   0.527  1.00  0.00     0.210 C 
ENDBRANCH  25  30
ENDBRANCH   2  24
TORSDOF 4
ENDMDL
MODEL 2
REMARK VINA RESULT:      -8.9      1.539      1.632
REMARK  4 active torsions:
REMARK  status: ('A' for Active; 'I' for Inactive)
REMARK    1  A    between atoms: C_6  and  N_7 
REMARK       I    between atoms: N_7  and  C_8 
REMARK    2  A    between atoms: C_8  and  C_9 
REMARK    3  A    between atoms: C_10  and  C_11 
REMARK    4  A    between atoms: C_12  and  O_13 
ROOT
HETATM    1  C   UNL     1      42.937 -14.237   4.520  1.00  0.00     0.063 A 
HETATM    2  C   UNL     1      42.254 -13.126   3.734  1.00  0.00     0.205 A 
HETATM    3  N   UNL     1      41.669 -12.117   4.629  1.00  0.00    -0.084 N 
HETATM    4  C   UNL     1      41.722 -12.183   5.996  1.00  0.00     0.725 A 
HETATM    5  N   UNL     1      42.323 -13.233   6.584  1.00  0.00    -0.192 N 
HETATM    6  N   UNL     1      41.132 -10.946   4.219  1.00  0.00    -0.149 NA
HETATM    7  C   UNL     1      40.806 -10.400   5.395  1.00  0.00     0.275 A 
HETATM    8  N   UNL     1      41.155 -11.120   6.507  1.00  0.00    -0.054 NA
HETATM    9  C   UNL     1      42.943 -14.256   5.876  1.00  0.00     0.037 A 
HETATM   10  C   UNL     1      43.611 -15.319   6.714  1.00  0.00     0.070 C 
HETATM   11  H   UNL     1      42.360 -13.272   7.599  1.00  0.00     0.184 HD
ENDROOT
BRANCH   1  12
HETATM   12  C   UNL     1      43.543 -15.360   3.756  1.00  0.00     0.256 C 
HETATM   13  N   UNL     1      43.072 -16.597   4.144  1.00  0.00    -0.323 N 
HETATM   14  H   UNL     1      42.448 -16.626   4.936  1.00  0.00     0.169 HD
HETATM   15  O   UNL     1      44.346 -15.111   2.864  1.00  0.00    -0.267 OA
BRANCH  13  16
HETATM   16  C   UNL     1      43.329 -17.848   3.529  1.00  0.00     0.041 A 
HETATM   17  C   UNL     1      44.136 -18.788   4.208  1.00  0.00    -0.035 A 
HETATM   18  C   UNL     1      44.346 -20.060   3.639  1.00  0.00     0.015 A 
HETATM   19  C   UNL     1      44.785 -18.487   5.533  1.00  0.00     0.050 C 
HETATM   20  C   UNL     1      43.790 -20.406   2.404  1.00  0.00    -0.061 A 
HETATM   21  C   UNL     1      43.978 -21.778   1.832  1.00  0.00     0.048 C 
HETATM   22  C   UNL     1      43.002 -19.468   1.739  1.00  0.00     0.009 A 
HETATM   23  C   UNL     1      42.780 -18.203   2.293  1.00  0.00     0.030 A 
ENDBRANCH  13  16
ENDBRANCH   1  12
BRANCH   2  24
HETATM   24  C   UNL     1      41.204 -13.638   2.757  1.00  0.00     0.005 A 
HETATM   25  C   UNL     1      41.294 -13.341   1.384  1.00  0.00     0.076 A 
HETATM   26  C   UNL     1      40.327 -13.830   0.500  1.00  0.00     0.037 A 
HETATM   27  C   UNL     1      39.258 -14.594   0.973  1.00  0.00     0.003 A 
HETATM   28  C   UNL     1      39.154 -14.884   2.329  1.00  0.00     0.001 A 
HETATM   29  C   UNL     1      40.120 -14.412   3.217  1.00  0.00     0.012 A 
BRANCH  25  30
HETATM   30  O   UNL     1      42.383 -12.608   0.986  1.00  0.00    -0.355 OA
HETATM   31  C   UNL     1      42.097 -11.427   0.241  1.00  0.00     0.210 C 
ENDBRANCH  25  30
ENDBRANCH   2  24
TORSDOF 4
ENDMDL
MODEL 3
REMARK VINA RESULT:      -8.6      1.103      1.341
REMARK  4 active torsions:
REMARK  status: ('A' for Active; 'I' for Inactive)
REMARK    1  A    between atoms: C_6  and  N_7 
REMARK       I    between atoms: N_7  and  C_8 
REMARK    2  A    between atoms: C_8  and  C_9 
REMARK    3  A    between atoms: C_10  and  C_11 
REMARK    4  A    between atoms: C_12  and  O_13 
ROOT
HETATM    1  C   UNL     1      40.894 -14.277   3.498  1.00  0.00     0.063 A 
HETATM    2  C   UNL     1      40.881 -13.175   2.447  1.00  0.00     0.205 A 
HETATM    3  N   UNL     1      40.583 -11.866   3.046  1.00  0.00    -0.084 N 
HETATM    4  C   UNL     1      40.333 -11.672   4.378  1.00  0.00     0.725 A 
HETATM    5  N   UNL     1      40.337 -12.727   5.212  1.00  0.00    -0.192 N 
HETATM    6  N   UNL     1      40.650 -10.688   2.386  1.00  0.00    -0.149 NA
HETATM    7  C   UNL     1      40.343  -9.837   3.372  1.00  0.00     0.275 A 
HETATM    8  N   UNL     1      40.150 -10.397   4.607  1.00  0.00    -0.054 NA
HETATM    9  C   UNL     1      40.624 -14.025   4.803  1.00  0.00     0.037 A 
HETATM   10  C   UNL     1      40.632 -15.067   5.895  1.00  0.00     0.070 C 
HETATM   11  H   UNL     1      40.153 -12.574   6.200  1.00  0.00     0.184 HD
ENDROOT
BRANCH   1  12
HETATM   12  C   UNL     1      41.140 -15.671   3.043  1.00  0.00     0.256 C 
HETATM   13  N   UNL     1      42.468 -16.039   3.115  1.00  0.00    -0.323 N 
HETATM   14  H   UNL     1      43.131 -15.327   3.381  1.00  0.00     0.169 HD
HETATM   15  O   UNL     1      40.191 -16.361   2.691  1.00  0.00    -0.267 OA
BRANCH  13  16
HETATM   16  C   UNL     1      43.018 -17.328   2.900  1.00  0.00     0.041 A 
HETATM   17  C   UNL     1      43.485 -18.064   4.012  1.00  0.00    -0.035 A 
HETATM   18  C   UNL     1      43.974 -19.371   3.822  1.00  0.00     0.015 A 
HETATM   19  C   UNL     1      43.479 -17.505   5.410  1.00  0.00     0.050 C 
HETATM   20  C   UNL     1      44.027 -19.951   2.551  1.00  0.00    -0.061 A 
HETATM   21  C   UNL     1      44.501 -21.360   2.366  1.00  0.00     0.048 C 
HETATM   22  C   UNL     1      43.570 -19.213   1.459  1.00  0.00     0.009 A 
HETATM   23  C   UNL     1      43.077 -17.916   1.633  1.00  0.00     0.030 A 
ENDBRANCH  13  16
ENDBRANCH   1  12
BRANCH   2  24
HETATM   24  C   UNL     1      39.930 -13.457   1.292  1.00  0.00     0.005 A 
HETATM   25  C   UNL     1      40.419 -13.625  -0.017  1.00  0.00     0.076 A 
HETATM   26  C   UNL     1      39.532 -13.895  -1.064  1.00  0.00     0.037 A 
HETATM   27  C   UNL     1      38.158 -13.978  -0.823  1.00  0.00     0.003 A 
HETATM   28  C   UNL     1      37.664 -13.803   0.465  1.00  0.00     0.001 A 
HETATM   29  C   UNL     1      38.542 -13.546   1.517  1.00  0.00     0.012 A 
BRANCH  25  30
HETATM   30  O   UNL     1      41.780 -13.556  -0.177  1.00  0.00    -0.355 OA
HETATM   31  C   UNL     1      42.242 -12.649  -1.174  1.00  0.00     0.210 C 
ENDBRANCH  25  30
ENDBRANCH   2  24
TORSDOF 4
ENDMDL
MODEL 4
REMARK VINA RESULT:      -8.5      2.062      4.462
REMARK  4 active torsions:
REMARK  status: ('A' for Active; 'I' for Inactive)
REMARK    1  A    between atoms: C_6  and  N_7 
REMARK       I    between atoms: N_7  and  C_8 
REMARK    2  A    between atoms: C_8  and  C_9 
REMARK    3  A    between atoms: C_10  and  C_11 
REMARK    4  A    between atoms: C_12  and  O_13 
ROOT
HETATM    1  C   UNL     1      41.557 -15.305   2.613  1.00  0.00     0.063 A 
HETATM    2  C   UNL     1      41.354 -14.335   3.769  1.00  0.00     0.205 A 
HETATM    3  N   UNL     1      41.244 -12.949   3.294  1.00  0.00    -0.084 N 
HETATM    4  C   UNL     1      41.331 -12.580   1.977  1.00  0.00     0.725 A 
HETATM    5  N   UNL     1      41.547 -13.522   1.041  1.00  0.00    -0.192 N 
HETATM    6  N   UNL     1      40.913 -11.894   4.073  1.00  0.00    -0.149 NA
HETATM    7  C   UNL     1      40.905 -10.911   3.166  1.00  0.00     0.275 A 
HETATM    8  N   UNL     1      41.148 -11.289   1.872  1.00  0.00    -0.054 NA
HETATM    9  C   UNL     1      41.650 -14.878   1.329  1.00  0.00     0.037 A 
HETATM   10  C   UNL     1      41.840 -15.786   0.137  1.00  0.00     0.070 C 
HETATM   11  H   UNL     1      41.608 -13.240   0.066  1.00  0.00     0.184 HD
ENDROOT
BRANCH   1  12
HETATM   12  C   UNL     1      41.730 -16.747   2.934  1.00  0.00     0.256 C 
HETATM   13  N   UNL     1      43.041 -17.093   3.186  1.00  0.00    -0.323 N 
HETATM   14  H   UNL     1      43.741 -16.380   3.050  1.00  0.00     0.169 HD
HETATM   15  O   UNL     1      40.742 -17.470   2.982  1.00  0.00    -0.267 OA
BRANCH  13  16
HETATM   16  C   UNL     1      43.527 -18.337   3.660  1.00  0.00     0.041 A 
HETATM   17  C   UNL     1      43.832 -19.351   2.725  1.00  0.00    -0.035 A 
HETATM   18  C   UNL     1      44.378 -20.569   3.176  1.00  0.00     0.015 A 
HETATM   19  C   UNL     1      43.602 -19.181   1.246  1.00  0.00     0.050 C 
HETATM   20  C   UNL     1      44.604 -20.806   4.535  1.00  0.00    -0.061 A 
HETATM   21  C   UNL     1      45.231 -22.085   5.000  1.00  0.00     0.048 C 
HETATM   22  C   UNL     1      44.292 -19.802   5.450  1.00  0.00     0.009 A 
HETATM   23  C   UNL     1      43.755 -18.585   5.018  1.00  0.00     0.030 A 
ENDBRANCH  13  16
ENDBRANCH   1  12
BRANCH   2  24
HETATM   24  C   UNL     1      42.430 -14.442   4.841  1.00  0.00     0.005 A 
HETATM   25  C   UNL     1      42.166 -15.089   6.063  1.00  0.00     0.076 A 
HETATM   26  C   UNL     1      43.171 -15.189   7.031  1.00  0.00     0.037 A 
HETATM   27  C   UNL     1      44.431 -14.631   6.802  1.00  0.00     0.003 A 
HETATM   28  C   UNL     1      44.699 -13.980   5.603  1.00  0.00     0.001 A 
HETATM   29  C   UNL     1      43.708 -13.887   4.626  1.00  0.00     0.012 A 
BRANCH  25  30
HETATM   30  O   UNL     1      40.917 -15.636   6.210  1.00  0.00    -0.355 OA
HETATM   31  C   UNL     1      40.880 -17.029   6.508  1.00  0.00     0.210 C 
ENDBRANCH  25  30
ENDBRANCH   2  24
TORSDOF 4
ENDMDL
MODEL 5
REMARK VINA RESULT:      -8.4      2.743      6.133
REMARK  4 active torsions:
REMARK  status: ('A' for Active; 'I' for Inactive)
REMARK    1  A    between atoms: C_6  and  N_7 
REMARK       I    between atoms: N_7  and  C_8 
REMARK    2  A    between atoms: C_8  and  C_9 
REMARK    3  A    between atoms: C_10  and  C_11 
REMARK    4  A    between atoms: C_12  and  O_13 
ROOT
HETATM    1  C   UNL     1      43.268 -17.401   3.673  1.00  0.00     0.063 A 
HETATM    2  C   UNL     1      43.495 -16.723   5.018  1.00  0.00     0.205 A 
HETATM    3  N   UNL     1      43.674 -17.711   6.092  1.00  0.00    -0.084 N 
HETATM    4  C   UNL     1      43.626 -19.066   5.904  1.00  0.00     0.725 A 
HETATM    5  N   UNL     1      43.383 -19.553   4.673  1.00  0.00    -0.192 N 
HETATM    6  N   UNL     1      44.038 -17.408   7.359  1.00  0.00    -0.149 NA
HETATM    7  C   UNL     1      44.105 -18.632   7.894  1.00  0.00     0.275 A 
HETATM    8  N   UNL     1      43.867 -19.674   7.037  1.00  0.00    -0.054 NA
HETATM    9  C   UNL     1      43.215 -18.750   3.551  1.00  0.00     0.037 A 
HETATM   10  C   UNL     1      43.005 -19.484   2.248  1.00  0.00     0.070 C 
HETATM   11  H   UNL     1      43.352 -20.561   4.542  1.00  0.00     0.184 HD
ENDROOT
BRANCH   1  12
HETATM   12  C   UNL     1      43.026 -16.535   2.488  1.00  0.00     0.256 C 
HETATM   13  N   UNL     1      41.778 -16.715   1.930  1.00  0.00    -0.323 N 
HETATM   14  H   UNL     1      41.202 -17.449   2.314  1.00  0.00     0.169 HD
HETATM   15  O   UNL     1      43.895 -15.745   2.139  1.00  0.00    -0.267 OA
BRANCH  13  16
HETATM   16  C   UNL     1      41.179 -15.954   0.895  1.00  0.00     0.041 A 
HETATM   17  C   UNL     1      40.168 -15.026   1.229  1.00  0.00    -0.035 A 
HETATM   18  C   UNL     1      39.609 -14.216   0.221  1.00  0.00     0.015 A 
HETATM   19  C   UNL     1      39.658 -14.859   2.636  1.00  0.00     0.050 C 
HETATM   20  C   UNL     1      40.020 -14.326  -1.111  1.00  0.00    -0.061 A 
HETATM   21  C   UNL     1      39.455 -13.426  -2.168  1.00  0.00     0.048 C 
HETATM   22  C   UNL     1      41.013 -15.250  -1.432  1.00  0.00     0.009 A 
HETATM   23  C   UNL     1      41.580 -16.058  -0.441  1.00  0.00     0.030 A 
ENDBRANCH  13  16
ENDBRANCH   1  12
BRANCH   2  24
HETATM   24  C   UNL     1      42.396 -15.735   5.387  1.00  0.00     0.005 A 
HETATM   25  C   UNL     1      42.677 -14.361   5.508  1.00  0.00     0.076 A 
HETATM   26  C   UNL     1      41.653 -13.466   5.835  1.00  0.00     0.037 A 
HETATM   27  C   UNL     1      40.355 -13.929   6.065  1.00  0.00     0.003 A 
HETATM   28  C   UNL     1      40.070 -15.286   5.958  1.00  0.00     0.001 A 
HETATM   29  C   UNL     1      41.081 -16.185   5.619  1.00  0.00     0.012 A 
BRANCH  25  30
HETATM   30  O   UNL     1      43.966 -13.973   5.244  1.00  0.00    -0.355 OA
HETATM   31  C   UNL     1      44.808 -13.806   6.382  1.00  0.00     0.210 C 
ENDBRANCH  25  30
ENDBRANCH   2  24
TORSDOF 4
ENDMDL
MODEL 6
REMARK VINA RESULT:      -8.3      2.389      6.849
REMARK  4 active torsions:
REMARK  status: ('A' for Active; 'I' for Inactive)
REMARK    1  A    between atoms: C_6  and  N_7 
REMARK       I    between atoms: N_7  and  C_8 
REMARK    2  A    between atoms: C_8  and  C_9 
REMARK    3  A    between atoms: C_10  and  C_11 
REMARK    4  A    between atoms: C_12  and  O_13 
ROOT
HETATM    1  C   UNL     1      42.866 -15.317   5.283  1.00  0.00     0.063 A 
HETATM    2  C   UNL     1      42.506 -16.733   4.851  1.00  0.00     0.205 A 
HETATM    3  N   UNL     1      43.212 -17.736   5.661  1.00  0.00    -0.084 N 
HETATM    4  C   UNL     1      44.093 -17.430   6.664  1.00  0.00     0.725 A 
HETATM    5  N   UNL     1      44.361 -16.141   6.936  1.00  0.00    -0.192 N 
HETATM    6  N   UNL     1      42.981 -19.067   5.606  1.00  0.00    -0.149 NA
HETATM    7  C   UNL     1      43.824 -19.503   6.548  1.00  0.00     0.275 A 
HETATM    8  N   UNL     1      44.518 -18.534   7.225  1.00  0.00    -0.054 NA
HETATM    9  C   UNL     1      43.758 -15.077   6.276  1.00  0.00     0.037 A 
HETATM   10  C   UNL     1      44.148 -13.701   6.759  1.00  0.00     0.070 C 
HETATM   11  H   UNL     1      45.014 -15.922   7.684  1.00  0.00     0.184 HD
ENDROOT
BRANCH   1  12
HETATM   12  C   UNL     1      42.264 -14.185   4.530  1.00  0.00     0.256 C 
HETATM   13  N   UNL     1      40.897 -14.091   4.692  1.00  0.00    -0.323 N 
HETATM   14  H   UNL     1      40.443 -14.822   5.219  1.00  0.00     0.169 HD
HETATM   15  O   UNL     1      42.993 -13.441   3.886  1.00  0.00    -0.267 OA
BRANCH  13  16
HETATM   16  C   UNL     1      40.045 -13.053   4.238  1.00  0.00     0.041 A 
HETATM   17  C   UNL     1      39.443 -12.201   5.190  1.00  0.00    -0.035 A 
HETATM   18  C   UNL     1      38.646 -11.125   4.751  1.00  0.00     0.015 A 
HETATM   19  C   UNL     1      39.623 -12.391   6.673  1.00  0.00     0.050 C 
HETATM   20  C   UNL     1      38.419 -10.896   3.391  1.00  0.00    -0.061 A 
HETATM   21  C   UNL     1      37.611  -9.719   2.933  1.00  0.00     0.048 C 
HETATM   22  C   UNL     1      39.011 -11.747   2.460  1.00  0.00     0.009 A 
HETATM   23  C   UNL     1      39.809 -12.817   2.880  1.00  0.00     0.030 A 
ENDBRANCH  13  16
ENDBRANCH   1  12
BRANCH   2  24
HETATM   24  C   UNL     1      42.743 -16.988   3.368  1.00  0.00     0.005 A 
HETATM   25  C   UNL     1      41.672 -16.972   2.456  1.00  0.00     0.076 A 
HETATM   26  C   UNL     1      41.910 -17.197   1.096  1.00  0.00     0.037 A 
HETATM   27  C   UNL     1      43.204 -17.458   0.639  1.00  0.00     0.003 A 
HETATM   28  C   UNL     1      44.268 -17.487   1.534  1.00  0.00     0.001 A 
HETATM   29  C   UNL     1      44.042 -17.251   2.890  1.00  0.00     0.012 A 
BRANCH  25  30
HETATM   30  O   UNL     1      40.433 -16.684   2.970  1.00  0.00    -0.355 OA
HETATM   31  C   UNL     1      39.492 -16.135   2.051  1.00  0.00     0.210 C 
ENDBRANCH  25  30
ENDBRANCH   2  24
TORSDOF 4
ENDMDL
MODEL 7
REMARK VINA RESULT:      -8.2      1.728      2.252
REMARK  4 active torsions:
REMARK  status: ('A' for Active; 'I' for Inactive)
REMARK    1  A    between atoms: C_6  and  N_7 
REMARK       I    between atoms: N_7  and  C_8 
REMARK    2  A    between atoms: C_8  and  C_9 
REMARK    3  A    between atoms: C_10  and  C_11 
REMARK    4  A    between atoms: C_12  and  O_13 
ROOT
HETATM    1  C   UNL     1      41.300 -13.673   3.410  1.00  0.00     0.063 A 
HETATM    2  C   UNL     1      41.265 -12.630   2.301  1.00  0.00     0.205 A 
HETATM    3  N   UNL     1      40.134 -11.707   2.469  1.00  0.00    -0.084 N 
HETATM    4  C   UNL     1      39.221 -11.789   3.486  1.00  0.00     0.725 A 
HETATM    5  N   UNL     1      39.331 -12.777   4.394  1.00  0.00    -0.192 N 
HETATM    6  N   UNL     1      39.934 -10.595   1.725  1.00  0.00    -0.149 NA
HETATM    7  C   UNL     1      38.831 -10.107   2.304  1.00  0.00     0.275 A 
HETATM    8  N   UNL     1      38.367 -10.803   3.389  1.00  0.00    -0.054 NA
HETATM    9  C   UNL     1      40.358 -13.714   4.385  1.00  0.00     0.037 A 
HETATM   10  C   UNL     1      40.342 -14.712   5.517  1.00  0.00     0.070 C 
HETATM   11  H   UNL     1      38.651 -12.829   5.147  1.00  0.00     0.184 HD
ENDROOT
BRANCH   1  12
HETATM   12  C   UNL     1      42.365 -14.710   3.358  1.00  0.00     0.256 C 
HETATM   13  N   UNL     1      41.869 -15.994   3.271  1.00  0.00    -0.323 N 
HETATM   14  H   UNL     1      40.868 -16.107   3.334  1.00  0.00     0.169 HD
HETATM   15  O   UNL     1      43.540 -14.361   3.361  1.00  0.00    -0.267 OA
BRANCH  13  16
HETATM   16  C   UNL     1      42.602 -17.189   3.059  1.00  0.00     0.041 A 
HETATM   17  C   UNL     1      42.967 -17.972   4.176  1.00  0.00    -0.035 A 
HETATM   18  C   UNL     1      43.638 -19.194   3.977  1.00  0.00     0.015 A 
HETATM   19  C   UNL     1      42.660 -17.554   5.590  1.00  0.00     0.050 C 
HETATM   20  C   UNL     1      43.971 -19.640   2.694  1.00  0.00    -0.061 A 
HETATM   21  C   UNL     1      44.640 -20.965   2.489  1.00  0.00     0.048 C 
HETATM   22  C   UNL     1      43.614 -18.856   1.599  1.00  0.00     0.009 A 
HETATM   23  C   UNL     1      42.942 -17.642   1.781  1.00  0.00     0.030 A 
ENDBRANCH  13  16
ENDBRANCH   1  12
BRANCH   2  24
HETATM   24  C   UNL     1      41.249 -13.237   0.904  1.00  0.00     0.005 A 
HETATM   25  C   UNL     1      42.046 -12.698  -0.123  1.00  0.00     0.076 A 
HETATM   26  C   UNL     1      42.027 -13.276  -1.397  1.00  0.00     0.037 A 
HETATM   27  C   UNL     1      41.206 -14.374  -1.663  1.00  0.00     0.003 A 
HETATM   28  C   UNL     1      40.407 -14.908  -0.658  1.00  0.00     0.001 A 
HETATM   29  C   UNL     1      40.429 -14.347   0.619  1.00  0.00     0.012 A 
BRANCH  25  30
HETATM   30  O   UNL     1      42.846 -11.636   0.215  1.00  0.00    -0.355 OA
HETATM   31  C   UNL     1      43.040 -10.657  -0.802  1.00  0.00     0.210 C 
ENDBRANCH  25  30
ENDBRANCH   2  24
TORSDOF 4
ENDMDL
MODEL 8
REMARK VINA RESULT:      -8.0      1.655      3.699
REMARK  4 active torsions:
REMARK  status: ('A' for Active; 'I' for Inactive)
REMARK    1  A    between atoms: C_6  and  N_7 
REMARK       I    between atoms: N_7  and  C_8 
REMARK    2  A    between atoms: C_8  and  C_9 
REMARK    3  A    between atoms: C_10  and  C_11 
REMARK    4  A    between atoms: C_12  and  O_13 
ROOT
HETATM    1  C   UNL     1      40.887 -15.469   2.689  1.00  0.00     0.063 A 
HETATM    2  C   UNL     1      40.369 -15.087   4.069  1.00  0.00     0.205 A 
HETATM    3  N   UNL     1      40.157 -13.636   4.179  1.00  0.00    -0.084 N 
HETATM    4  C   UNL     1      40.411 -12.746   3.170  1.00  0.00     0.725 A 
HETATM    5  N   UNL     1      40.902 -13.195   2.001  1.00  0.00    -0.192 N 
HETATM    6  N   UNL     1      39.566 -13.025   5.230  1.00  0.00    -0.149 NA
HETATM    7  C   UNL     1      39.578 -11.753   4.814  1.00  0.00     0.275 A 
HETATM    8  N   UNL     1      40.080 -11.540   3.557  1.00  0.00    -0.054 NA
HETATM    9  C   UNL     1      41.135 -14.539   1.734  1.00  0.00     0.037 A 
HETATM   10  C   UNL     1      41.637 -14.852   0.345  1.00  0.00     0.070 C 
HETATM   11  H   UNL     1      41.086 -12.527   1.257  1.00  0.00     0.184 HD
ENDROOT
BRANCH   1  12
HETATM   12  C   UNL     1      41.193 -16.902   2.433  1.00  0.00     0.256 C 
HETATM   13  N   UNL     1      42.506 -17.232   2.696  1.00  0.00    -0.323 N 
HETATM   14  H   UNL     1      43.130 -16.480   2.947  1.00  0.00     0.169 HD
HETATM   15  O   UNL     1      40.294 -17.647   2.060  1.00  0.00    -0.267 OA
BRANCH  13  16
HETATM   16  C   UNL     1      43.086 -18.526   2.697  1.00  0.00     0.041 A 
HETATM   17  C   UNL     1      43.994 -18.864   3.725  1.00  0.00    -0.035 A 
HETATM   18  C   UNL     1      44.528 -20.167   3.777  1.00  0.00     0.015 A 
HETATM   19  C   UNL     1      44.418 -17.881   4.784  1.00  0.00     0.050 C 
HETATM   20  C   UNL     1      44.194 -21.129   2.819  1.00  0.00    -0.061 A 
HETATM   21  C   UNL     1      44.728 -22.526   2.911  1.00  0.00     0.048 C 
HETATM   22  C   UNL     1      43.303 -20.782   1.805  1.00  0.00     0.009 A 
HETATM   23  C   UNL     1      42.760 -19.494   1.742  1.00  0.00     0.030 A 
ENDBRANCH  13  16
ENDBRANCH   1  12
BRANCH   2  24
HETATM   24  C   UNL     1      41.258 -15.578   5.204  1.00  0.00     0.005 A 
HETATM   25  C   UNL     1      42.478 -14.937   5.491  1.00  0.00     0.076 A 
HETATM   26  C   UNL     1      43.275 -15.395   6.545  1.00  0.00     0.037 A 
HETATM   27  C   UNL     1      42.880 -16.499   7.303  1.00  0.00     0.003 A 
HETATM   28  C   UNL     1      41.682 -17.147   7.020  1.00  0.00     0.001 A 
HETATM   29  C   UNL     1      40.873 -16.690   5.980  1.00  0.00     0.012 A 
BRANCH  25  30
HETATM   30  O   UNL     1      42.791 -13.844   4.723  1.00  0.00    -0.355 OA
HETATM   31  C   UNL     1      43.992 -13.945   3.963  1.00  0.00     0.210 C 
ENDBRANCH  25  30
ENDBRANCH   2  24
TORSDOF 4
ENDMDL
MODEL 9
REMARK VINA RESULT:      -8.0      4.070      8.066
REMARK  4 active torsions:
REMARK  status: ('A' for Active; 'I' for Inactive)
REMARK    1  A    between atoms: C_6  and  N_7 
REMARK       I    between atoms: N_7  and  C_8 
REMARK    2  A    between atoms: C_8  and  C_9 
REMARK    3  A    between atoms: C_10  and  C_11 
REMARK    4  A    between atoms: C_12  and  O_13 
ROOT
HETATM    1  C   UNL     1      41.134 -11.556   5.728  1.00  0.00     0.063 A 
HETATM    2  C   UNL     1      42.085 -12.526   5.041  1.00  0.00     0.205 A 
HETATM    3  N   UNL     1      41.912 -12.504   3.581  1.00  0.00    -0.084 N 
HETATM    4  C   UNL     1      40.999 -11.719   2.929  1.00  0.00     0.725 A 
HETATM    5  N   UNL     1      40.183 -10.922   3.644  1.00  0.00    -0.192 N 
HETATM    6  N   UNL     1      42.715 -13.147   2.703  1.00  0.00    -0.149 NA
HETATM    7  C   UNL     1      42.166 -12.767   1.544  1.00  0.00     0.275 A 
HETATM    8  N   UNL     1      41.119 -11.888   1.637  1.00  0.00    -0.054 NA
HETATM    9  C   UNL     1      40.240 -10.814   5.029  1.00  0.00     0.037 A 
HETATM   10  C   UNL     1      39.279  -9.827   5.647  1.00  0.00     0.070 C 
HETATM   11  H   UNL     1      39.510 -10.341   3.152  1.00  0.00     0.184 HD
ENDROOT
BRANCH   1  12
HETATM   12  C   UNL     1      41.157 -11.492   7.214  1.00  0.00     0.256 C 
HETATM   13  N   UNL     1      42.339 -10.989   7.717  1.00  0.00    -0.323 N 
HETATM   14  H   UNL     1      43.078 -10.798   7.057  1.00  0.00     0.169 HD
HETATM   15  O   UNL     1      40.165 -11.840   7.842  1.00  0.00    -0.267 OA
BRANCH  13  16
HETATM   16  C   UNL     1      42.631 -10.661   9.065  1.00  0.00     0.041 A 
HETATM   17  C   UNL     1      41.987  -9.550   9.651  1.00  0.00    -0.035 A 
HETATM   18  C   UNL     1      42.218  -9.251  11.008  1.00  0.00     0.015 A 
HETATM   19  C   UNL     1      41.047  -8.662   8.880  1.00  0.00     0.050 C 
HETATM   20  C   UNL     1      43.090 -10.021  11.784  1.00  0.00    -0.061 A 
HETATM   21  C   UNL     1      43.290  -9.725  13.240  1.00  0.00     0.048 C 
HETATM   22  C   UNL     1      43.727 -11.111  11.194  1.00  0.00     0.009 A 
HETATM   23  C   UNL     1      43.504 -11.423   9.848  1.00  0.00     0.030 A 
ENDBRANCH  13  16
ENDBRANCH   1  12
BRANCH   2  24
HETATM   24  C   UNL     1      41.972 -13.952   5.564  1.00  0.00     0.005 A 
HETATM   25  C   UNL     1      43.105 -14.630   6.054  1.00  0.00     0.076 A 
HETATM   26  C   UNL     1      42.979 -15.935   6.542  1.00  0.00     0.037 A 
HETATM   27  C   UNL     1      41.740 -16.580   6.528  1.00  0.00     0.003 A 
HETATM   28  C   UNL     1      40.618 -15.922   6.036  1.00  0.00     0.001 A 
HETATM   29  C   UNL     1      40.729 -14.617   5.559  1.00  0.00     0.012 A 
BRANCH  25  30
HETATM   30  O   UNL     1      44.283 -13.928   6.062  1.00  0.00    -0.355 OA
HETATM   31  C   UNL     1      44.927 -13.812   7.327  1.00  0.00     0.210 C 
ENDBRANCH  25  30
ENDBRANCH   2  24
TORSDOF 4
ENDMDL
MODEL 10
REMARK VINA RESULT:      -8.0      1.865      2.925
REMARK  4 active torsions:
REMARK  status: ('A' for Active; 'I' for Inactive)
REMARK    1  A    between atoms: C_6  and  N_7 
REMARK       I    between atoms: N_7  and  C_8 
REMARK    2  A    between atoms: C_8  and  C_9 
REMARK    3  A    between atoms: C_10  and  C_11 
REMARK    4  A    between atoms: C_12  and  O_13 
ROOT
HETATM    1  C   UNL     1      41.061 -14.045   2.206  1.00  0.00     0.063 A 
HETATM    2  C   UNL     1      41.466 -13.171   1.027  1.00  0.00     0.205 A 
HETATM    3  N   UNL     1      41.123 -11.761   1.262  1.00  0.00    -0.084 N 
HETATM    4  C   UNL     1      40.504 -11.301   2.394  1.00  0.00     0.725 A 
HETATM    5  N   UNL     1      40.160 -12.173   3.359  1.00  0.00    -0.192 N 
HETATM    6  N   UNL     1      41.493 -10.737   0.461  1.00  0.00    -0.149 NA
HETATM    7  C   UNL     1      40.985  -9.700   1.136  1.00  0.00     0.275 A 
HETATM    8  N   UNL     1      40.378 -10.000   2.327  1.00  0.00    -0.054 NA
HETATM    9  C   UNL     1      40.436 -13.534   3.295  1.00  0.00     0.037 A 
HETATM   10  C   UNL     1      40.020 -14.343   4.500  1.00  0.00     0.070 C 
HETATM   11  H   UNL     1      39.703 -11.823   4.197  1.00  0.00     0.184 HD
ENDROOT
BRANCH   1  12
HETATM   12  C   UNL     1      41.303 -15.509   2.102  1.00  0.00     0.256 C 
HETATM   13  N   UNL     1      42.609 -15.864   2.372  1.00  0.00    -0.323 N 
HETATM   14  H   UNL     1      43.268 -15.116   2.525  1.00  0.00     0.169 HD
HETATM   15  O   UNL     1      40.366 -16.252   1.834  1.00  0.00    -0.267 OA
BRANCH  13  16
HETATM   16  C   UNL     1      43.136 -17.173   2.504  1.00  0.00     0.041 A 
HETATM   17  C   UNL     1      43.488 -17.639   3.790  1.00  0.00    -0.035 A 
HETATM   18  C   UNL     1      43.952 -18.960   3.946  1.00  0.00     0.015 A 
HETATM   19  C   UNL     1      43.381 -16.775   5.019  1.00  0.00     0.050 C 
HETATM   20  C   UNL     1      44.094 -19.815   2.849  1.00  0.00    -0.061 A 
HETATM   21  C   UNL     1      44.540 -21.234   3.031  1.00  0.00     0.048 C 
HETATM   22  C   UNL     1      43.751 -19.343   1.583  1.00  0.00     0.009 A 
HETATM   23  C   UNL     1      43.284 -18.035   1.413  1.00  0.00     0.030 A 
ENDBRANCH  13  16
ENDBRANCH   1  12
BRANCH   2  24
HETATM   24  C   UNL     1      40.884 -13.641  -0.300  1.00  0.00     0.005 A 
HETATM   25  C   UNL     1      39.491 -13.680  -0.500  1.00  0.00     0.076 A 
HETATM   26  C   UNL     1      38.975 -14.103  -1.729  1.00  0.00     0.037 A 
HETATM   27  C   UNL     1      39.832 -14.508  -2.755  1.00  0.00     0.003 A 
HETATM   28  C   UNL     1      41.209 -14.484  -2.563  1.00  0.00     0.001 A 
HETATM   29  C   UNL     1      41.734 -14.051  -1.346  1.00  0.00     0.012 A 
BRANCH  25  30
HETATM   30  O   UNL     1      38.710 -13.244   0.540  1.00  0.00    -0.355 OA
HETATM   31  C   UNL     1      37.589 -14.064   0.860  1.00  0.00     0.210 C 
ENDBRANCH  25  30
ENDBRANCH   2  24
TORSDOF 4
ENDMDL
