MODEL 1
REMARK VINA RESULT:      -9.5      0.000      0.000
REMARK  4 active torsions:
REMARK  status: ('A' for Active; 'I' for Inactive)
REMARK    1  A    between atoms: O_2  and  C_3 
REMARK    2  A    between atoms: C_3  and  C_4 
REMARK    3  A    between atoms: N_11  and  C_13 
REMARK    4  A    between atoms: C_13  and  C_14 
ROOT
HETATM    1  C   UNL     1      42.604 -16.330   4.898  1.00  0.00     0.290 C 
HETATM    2  N   UNL     1      42.698 -15.871   3.392  1.00  0.00    -0.047 N 
HETATM    3  H   UNL     1      43.706 -15.678   3.267  1.00  0.00     0.279 HD
HETATM    4  H   UNL     1      42.262 -14.937   3.359  1.00  0.00     0.279 HD
HETATM    5  C   UNL     1      42.271 -16.895   2.360  1.00  0.00     0.172 C 
HETATM    6  C   UNL     1      40.738 -17.023   2.321  1.00  0.00     0.073 C 
HETATM    7  C   UNL     1      40.026 -15.799   1.759  1.00  0.00     0.238 C 
HETATM    8  N   UNL     1      40.590 -15.440   0.408  1.00  0.00    -0.067 N 
HETATM    9  H   UNL     1      40.356 -16.202  -0.248  1.00  0.00     0.280 HD
HETATM   10  C   UNL     1      42.078 -15.228   0.413  1.00  0.00     0.238 C 
HETATM   11  C   UNL     1      42.790 -16.449   0.978  1.00  0.00     0.073 C 
HETATM   12  C   UNL     1      42.909 -18.191   2.787  1.00  0.00     0.053 A 
HETATM   13  C   UNL     1      43.498 -18.467   4.014  1.00  0.00    -0.018 A 
HETATM   14  C   UNL     1      43.592 -17.478   5.129  1.00  0.00     0.085 C 
HETATM   15  N   UNL     1      43.002 -19.338   2.029  1.00  0.00    -0.356 N 
HETATM   16  H   UNL     1      42.663 -19.488   1.086  1.00  0.00     0.166 HD
HETATM   17  C   UNL     1      43.664 -20.319   2.732  1.00  0.00     0.043 A 
HETATM   18  C   UNL     1      43.983 -19.800   3.985  1.00  0.00    -0.001 A 
HETATM   19  C   UNL     1      43.999 -21.623   2.349  1.00  0.00     0.030 A 
HETATM   20  C   UNL     1      44.680 -22.416   3.276  1.00  0.00     0.002 A 
HETATM   21  C   UNL     1      45.010 -21.924   4.535  1.00  0.00     0.001 A 
HETATM   22  C   UNL     1      44.667 -20.618   4.905  1.00  0.00     0.014 A 
ENDROOT
BRANCH   1  23
HETATM   23  C   UNL     1      42.884 -15.117   5.773  1.00  0.00     0.289 C 
HETATM   24  O   UNL     1      42.263 -14.075   5.576  1.00  0.00    -0.263 OA
BRANCH  23  25
HETATM   25  O   UNL     1      43.784 -15.362   6.743  1.00  0.00    -0.325 OA
HETATM   26  C   UNL     1      44.746 -14.319   6.954  1.00  0.00     0.213 C 
ENDBRANCH  23  25
ENDBRANCH   1  23
BRANCH   8  27
HETATM   27  C   UNL     1      39.884 -14.220  -0.215  1.00  0.00     0.273 C 
BRANCH  27  28
HETATM   28  C   UNL     1      39.318 -14.491  -1.579  1.00  0.00    -0.033 A 
HETATM   29  C   UNL     1      38.038 -14.022  -1.918  1.00  0.00     0.009 A 
HETATM   30  C   UNL     1      37.498 -14.293  -3.177  1.00  0.00     0.001 A 
HETATM   31  C   UNL     1      38.228 -15.030  -4.106  1.00  0.00     0.000 A 
HETATM   32  C   UNL     1      39.503 -15.490  -3.784  1.00  0.00     0.001 A 
HETATM   33  C   UNL     1      40.049 -15.222  -2.528  1.00  0.00     0.009 A 
ENDBRANCH  27  28
ENDBRANCH   8  27
TORSDOF 4
ENDMDL
MODEL 2
REMARK VINA RESULT:      -9.4      1.051      1.389
REMARK  4 active torsions:
REMARK  status: ('A' for Active; 'I' for Inactive)
REMARK    1  A    between atoms: O_2  and  C_3 
REMARK    2  A    between atoms: C_3  and  C_4 
REMARK    3  A    between atoms: N_11  and  C_13 
REMARK    4  A    between atoms: C_13  and  C_14 
ROOT
HETATM    1  C   UNL     1      42.577 -16.325   4.905  1.00  0.00     0.290 C 
HETATM    2  N   UNL     1      42.565 -15.800   3.418  1.00  0.00    -0.047 N 
HETATM    3  H   UNL     1      43.560 -15.583   3.237  1.00  0.00     0.279 HD
HETATM    4  H   UNL     1      42.113 -14.874   3.454  1.00  0.00     0.279 HD
HETATM    5  C   UNL     1      42.088 -16.786   2.371  1.00  0.00     0.172 C 
HETATM    6  C   UNL     1      40.558 -16.941   2.425  1.00  0.00     0.073 C 
HETATM    7  C   UNL     1      39.791 -15.707   1.965  1.00  0.00     0.238 C 
HETATM    8  N   UNL     1      40.261 -15.280   0.598  1.00  0.00    -0.067 N 
HETATM    9  H   UNL     1      39.996 -16.017  -0.075  1.00  0.00     0.280 HD
HETATM   10  C   UNL     1      41.742 -15.041   0.516  1.00  0.00     0.238 C 
HETATM   11  C   UNL     1      42.509 -16.271   0.979  1.00  0.00     0.073 C 
HETATM   12  C   UNL     1      42.772 -18.087   2.698  1.00  0.00     0.053 A 
HETATM   13  C   UNL     1      43.445 -18.404   3.871  1.00  0.00    -0.018 A 
HETATM   14  C   UNL     1      43.595 -17.464   5.021  1.00  0.00     0.085 C 
HETATM   15  N   UNL     1      42.834 -19.199   1.886  1.00  0.00    -0.356 N 
HETATM   16  H   UNL     1      42.437 -19.314   0.961  1.00  0.00     0.166 HD
HETATM   17  C   UNL     1      43.556 -20.197   2.501  1.00  0.00     0.043 A 
HETATM   18  C   UNL     1      43.948 -19.726   3.752  1.00  0.00    -0.001 A 
HETATM   19  C   UNL     1      43.886 -21.476   2.039  1.00  0.00     0.030 A 
HETATM   20  C   UNL     1      44.639 -22.296   2.885  1.00  0.00     0.002 A 
HETATM   21  C   UNL     1      45.042 -21.853   4.141  1.00  0.00     0.001 A 
HETATM   22  C   UNL     1      44.704 -20.570   4.589  1.00  0.00     0.014 A 
ENDROOT
BRANCH   1  23
HETATM   23  C   UNL     1      42.894 -15.145   5.813  1.00  0.00     0.289 C 
HETATM   24  O   UNL     1      42.206 -14.130   5.744  1.00  0.00    -0.263 OA
BRANCH  23  25
HETATM   25  O   UNL     1      43.907 -15.393   6.664  1.00  0.00    -0.325 OA
HETATM   26  C   UNL     1      44.754 -14.268   6.938  1.00  0.00     0.213 C 
ENDBRANCH  23  25
ENDBRANCH   1  23
BRANCH   8  27
HETATM   27  C   UNL     1      39.496 -14.048   0.076  1.00  0.00     0.273 C 
BRANCH  27  28
HETATM   28  C   UNL     1      39.982 -13.564  -1.259  1.00  0.00    -0.033 A 
HETATM   29  C   UNL     1      39.941 -14.415  -2.376  1.00  0.00     0.009 A 
HETATM   30  C   UNL     1      40.415 -13.977  -3.614  1.00  0.00     0.001 A 
HETATM   31  C   UNL     1      40.933 -12.692  -3.749  1.00  0.00     0.000 A 
HETATM   32  C   UNL     1      40.970 -11.836  -2.650  1.00  0.00     0.001 A 
HETATM   33  C   UNL     1      40.496 -12.267  -1.410  1.00  0.00     0.009 A 
ENDBRANCH  27  28
ENDBRANCH   8  27
TORSDOF 4
ENDMDL
MODEL 3
REMARK VINA RESULT:      -9.2      2.048      2.718
REMARK  4 active torsions:
REMARK  status: ('A' for Active; 'I' for Inactive)
REMARK    1  A    between atoms: O_2  and  C_3 
REMARK    2  A    between atoms: C_3  and  C_4 
REMARK    3  A    between atoms: N_11  and  C_13 
REMARK    4  A    between atoms: C_13  and  C_14 
ROOT
HETATM    1  C   UNL     1      43.397 -16.743   6.114  1.00  0.00     0.290 C 
HETATM    2  N   UNL     1      43.356 -15.784   4.862  1.00  0.00    -0.047 N 
HETATM    3  H   UNL     1      44.355 -15.662   4.626  1.00  0.00     0.279 HD
HETATM    4  H   UNL     1      43.074 -14.862   5.228  1.00  0.00     0.279 HD
HETATM    5  C   UNL     1      42.633 -16.318   3.643  1.00  0.00     0.172 C 
HETATM    6  C   UNL     1      41.109 -16.268   3.846  1.00  0.00     0.073 C 
HETATM    7  C   UNL     1      40.532 -14.859   3.873  1.00  0.00     0.238 C 
HETATM    8  N   UNL     1      40.955 -14.096   2.644  1.00  0.00    -0.067 N 
HETATM    9  H   UNL     1      40.515 -14.542   1.824  1.00  0.00     0.280 HD
HETATM   10  C   UNL     1      42.445 -14.052   2.445  1.00  0.00     0.238 C 
HETATM   11  C   UNL     1      43.023 -15.460   2.422  1.00  0.00     0.073 C 
HETATM   12  C   UNL     1      43.108 -17.739   3.480  1.00  0.00     0.053 A 
HETATM   13  C   UNL     1      43.808 -18.496   4.410  1.00  0.00    -0.018 A 
HETATM   14  C   UNL     1      44.211 -17.991   5.756  1.00  0.00     0.085 C 
HETATM   15  N   UNL     1      42.912 -18.539   2.375  1.00  0.00    -0.356 N 
HETATM   16  H   UNL     1      42.427 -18.304   1.517  1.00  0.00     0.166 HD
HETATM   17  C   UNL     1      43.498 -19.769   2.569  1.00  0.00     0.043 A 
HETATM   18  C   UNL     1      44.066 -19.771   3.842  1.00  0.00    -0.001 A 
HETATM   19  C   UNL     1      43.565 -20.874   1.712  1.00  0.00     0.030 A 
HETATM   20  C   UNL     1      44.231 -22.013   2.174  1.00  0.00     0.002 A 
HETATM   21  C   UNL     1      44.805 -22.044   3.442  1.00  0.00     0.001 A 
HETATM   22  C   UNL     1      44.729 -20.931   4.288  1.00  0.00     0.014 A 
ENDROOT
BRANCH   1  23
HETATM   23  C   UNL     1      43.985 -15.961   7.280  1.00  0.00     0.289 C 
HETATM   24  O   UNL     1      43.694 -16.283   8.430  1.00  0.00    -0.263 OA
BRANCH  23  25
HETATM   25  O   UNL     1      44.841 -14.998   6.891  1.00  0.00    -0.325 OA
HETATM   26  C   UNL     1      44.677 -13.739   7.559  1.00  0.00     0.213 C 
ENDBRANCH  23  25
ENDBRANCH   1  23
BRANCH   8  27
HETATM   27  C   UNL     1      40.374 -12.669   2.612  1.00  0.00     0.273 C 
BRANCH  27  28
HETATM   28  C   UNL     1      39.169 -12.535   1.727  1.00  0.00    -0.033 A 
HETATM   29  C   UNL     1      39.105 -13.234   0.510  1.00  0.00     0.009 A 
HETATM   30  C   UNL     1      37.997 -13.093  -0.327  1.00  0.00     0.001 A 
HETATM   31  C   UNL     1      36.946 -12.256   0.040  1.00  0.00     0.000 A 
HETATM   32  C   UNL     1      36.994 -11.567   1.250  1.00  0.00     0.001 A 
HETATM   33  C   UNL     1      38.098 -11.704   2.093  1.00  0.00     0.009 A 
ENDBRANCH  27  28
ENDBRANCH   8  27
TORSDOF 4
ENDMDL
MODEL 4
REMARK VINA RESULT:      -8.9      1.734      2.758
REMARK  4 active torsions:
REMARK  status: ('A' for Active; 'I' for Inactive)
REMARK    1  A    between atoms: O_2  and  C_3 
REMARK    2  A    between atoms: C_3  and  C_4 
REMARK    3  A    between atoms: N_11  and  C_13 
REMARK    4  A    between atoms: C_13  and  C_14 
ROOT
HETATM    1  C   UNL     1      42.577 -16.032   4.624  1.00  0.00     0.290 C 
HETATM    2  N   UNL     1      42.481 -15.550   3.125  1.00  0.00    -0.047 N 
HETATM    3  H   UNL     1      43.465 -15.355   2.877  1.00  0.00     0.279 HD
HETATM    4  H   UNL     1      42.045 -14.616   3.161  1.00  0.00     0.279 HD
HETATM    5  C   UNL     1      41.924 -16.558   2.141  1.00  0.00     0.172 C 
HETATM    6  C   UNL     1      40.399 -16.686   2.293  1.00  0.00     0.073 C 
HETATM    7  C   UNL     1      39.623 -15.453   1.844  1.00  0.00     0.238 C 
HETATM    8  N   UNL     1      40.013 -15.074   0.439  1.00  0.00    -0.067 N 
HETATM    9  H   UNL     1      39.697 -15.826  -0.194  1.00  0.00     0.280 HD
HETATM   10  C   UNL     1      41.490 -14.862   0.258  1.00  0.00     0.238 C 
HETATM   11  C   UNL     1      42.266 -16.092   0.710  1.00  0.00     0.073 C 
HETATM   12  C   UNL     1      42.608 -17.861   2.464  1.00  0.00     0.053 A 
HETATM   13  C   UNL     1      43.347 -18.155   3.602  1.00  0.00    -0.018 A 
HETATM   14  C   UNL     1      43.583 -17.183   4.711  1.00  0.00     0.085 C 
HETATM   15  N   UNL     1      42.603 -18.996   1.683  1.00  0.00    -0.356 N 
HETATM   16  H   UNL     1      42.147 -19.131   0.789  1.00  0.00     0.166 HD
HETATM   17  C   UNL     1      43.346 -19.988   2.282  1.00  0.00     0.043 A 
HETATM   18  C   UNL     1      43.822 -19.488   3.492  1.00  0.00    -0.001 A 
HETATM   19  C   UNL     1      43.628 -21.286   1.840  1.00  0.00     0.030 A 
HETATM   20  C   UNL     1      44.419 -22.093   2.662  1.00  0.00     0.002 A 
HETATM   21  C   UNL     1      44.906 -21.620   3.877  1.00  0.00     0.001 A 
HETATM   22  C   UNL     1      44.615 -20.320   4.306  1.00  0.00     0.014 A 
ENDROOT
BRANCH   1  23
HETATM   23  C   UNL     1      42.967 -14.832   5.475  1.00  0.00     0.289 C 
HETATM   24  O   UNL     1      42.613 -13.707   5.130  1.00  0.00    -0.263 OA
BRANCH  23  25
HETATM   25  O   UNL     1      43.640 -15.172   6.590  1.00  0.00    -0.325 OA
HETATM   26  C   UNL     1      44.749 -14.319   6.910  1.00  0.00     0.213 C 
ENDBRANCH  23  25
ENDBRANCH   1  23
BRANCH   8  27
HETATM   27  C   UNL     1      39.236 -13.845  -0.072  1.00  0.00     0.273 C 
BRANCH  27  28
HETATM   28  C   UNL     1      39.243 -12.693   0.890  1.00  0.00    -0.033 A 
HETATM   29  C   UNL     1      38.081 -12.364   1.608  1.00  0.00     0.009 A 
HETATM   30  C   UNL     1      38.076 -11.278   2.485  1.00  0.00     0.001 A 
HETATM   31  C   UNL     1      39.227 -10.513   2.655  1.00  0.00     0.000 A 
HETATM   32  C   UNL     1      40.388 -10.836   1.956  1.00  0.00     0.001 A 
HETATM   33  C   UNL     1      40.400 -11.921   1.079  1.00  0.00     0.009 A 
ENDBRANCH  27  28
ENDBRANCH   8  27
TORSDOF 4
ENDMDL
MODEL 5
REMARK VINA RESULT:      -8.9      3.410      7.041
REMARK  4 active torsions:
REMARK  status: ('A' for Active; 'I' for Inactive)
REMARK    1  A    between atoms: O_2  and  C_3 
REMARK    2  A    between atoms: C_3  and  C_4 
REMARK    3  A    between atoms: N_11  and  C_13 
REMARK    4  A    between atoms: C_13  and  C_14 
ROOT
HETATM    1  C   UNL     1      41.898 -15.657   1.326  1.00  0.00     0.290 C 
HETATM    2  N   UNL     1      41.137 -15.291   2.659  1.00  0.00    -0.047 N 
HETATM    3  H   UNL     1      40.381 -15.994   2.699  1.00  0.00     0.279 HD
HETATM    4  H   UNL     1      40.643 -14.407   2.463  1.00  0.00     0.279 HD
HETATM    5  C   UNL     1      41.952 -15.384   3.932  1.00  0.00     0.172 C 
HETATM    6  C   UNL     1      42.920 -14.194   4.050  1.00  0.00     0.073 C 
HETATM    7  C   UNL     1      42.233 -12.856   4.297  1.00  0.00     0.238 C 
HETATM    8  N   UNL     1      41.319 -12.951   5.491  1.00  0.00    -0.067 N 
HETATM    9  H   UNL     1      41.903 -13.103   6.329  1.00  0.00     0.280 HD
HETATM   10  C   UNL     1      40.303 -14.053   5.388  1.00  0.00     0.238 C 
HETATM   11  C   UNL     1      40.988 -15.389   5.136  1.00  0.00     0.073 C 
HETATM   12  C   UNL     1      42.707 -16.684   3.836  1.00  0.00     0.053 A 
HETATM   13  C   UNL     1      42.868 -17.473   2.705  1.00  0.00    -0.018 A 
HETATM   14  C   UNL     1      42.291 -17.137   1.370  1.00  0.00     0.085 C 
HETATM   15  N   UNL     1      43.385 -17.307   4.862  1.00  0.00    -0.356 N 
HETATM   16  H   UNL     1      43.481 -16.995   5.821  1.00  0.00     0.166 HD
HETATM   17  C   UNL     1      43.941 -18.485   4.417  1.00  0.00     0.043 A 
HETATM   18  C   UNL     1      43.636 -18.612   3.063  1.00  0.00    -0.001 A 
HETATM   19  C   UNL     1      44.689 -19.441   5.114  1.00  0.00     0.030 A 
HETATM   20  C   UNL     1      45.138 -20.557   4.403  1.00  0.00     0.002 A 
HETATM   21  C   UNL     1      44.850 -20.709   3.050  1.00  0.00     0.001 A 
HETATM   22  C   UNL     1      44.100 -19.744   2.366  1.00  0.00     0.014 A 
ENDROOT
BRANCH   1  23
HETATM   23  C   UNL     1      40.981 -15.317   0.159  1.00  0.00     0.289 C 
HETATM   24  O   UNL     1      40.105 -14.469   0.307  1.00  0.00    -0.263 OA
BRANCH  23  25
HETATM   25  O   UNL     1      41.295 -15.981  -0.969  1.00  0.00    -0.325 OA
HETATM   26  C   UNL     1      40.766 -15.411  -2.174  1.00  0.00     0.213 C 
ENDBRANCH  23  25
ENDBRANCH   1  23
BRANCH   8  27
HETATM   27  C   UNL     1      40.619 -11.613   5.799  1.00  0.00     0.273 C 
BRANCH  27  28
HETATM   28  C   UNL     1      40.722 -11.202   7.239  1.00  0.00    -0.033 A 
HETATM   29  C   UNL     1      41.951 -10.768   7.764  1.00  0.00     0.009 A 
HETATM   30  C   UNL     1      42.057 -10.409   9.108  1.00  0.00     0.001 A 
HETATM   31  C   UNL     1      40.942 -10.478   9.940  1.00  0.00     0.000 A 
HETATM   32  C   UNL     1      39.716 -10.897   9.428  1.00  0.00     0.001 A 
HETATM   33  C   UNL     1      39.602 -11.257   8.084  1.00  0.00     0.009 A 
ENDBRANCH  27  28
ENDBRANCH   8  27
TORSDOF 4
ENDMDL
MODEL 6
REMARK VINA RESULT:      -8.7      3.175      8.376
REMARK  4 active torsions:
REMARK  status: ('A' for Active; 'I' for Inactive)
REMARK    1  A    between atoms: O_2  and  C_3 
REMARK    2  A    between atoms: C_3  and  C_4 
REMARK    3  A    between atoms: N_11  and  C_13 
REMARK    4  A    between atoms: C_13  and  C_14 
ROOT
HETATM    1  C   UNL     1      40.559 -14.746  -0.250  1.00  0.00     0.290 C 
HETATM    2  N   UNL     1      41.872 -15.280   0.442  1.00  0.00    -0.047 N 
HETATM    3  H   UNL     1      42.521 -14.479   0.364  1.00  0.00     0.279 HD
HETATM    4  H   UNL     1      42.264 -15.979  -0.207  1.00  0.00     0.279 HD
HETATM    5  C   UNL     1      41.744 -15.658   1.903  1.00  0.00     0.172 C 
HETATM    6  C   UNL     1      41.008 -17.000   2.057  1.00  0.00     0.073 C 
HETATM    7  C   UNL     1      41.800 -18.204   1.563  1.00  0.00     0.238 C 
HETATM    8  N   UNL     1      43.160 -18.236   2.212  1.00  0.00    -0.067 N 
HETATM    9  H   UNL     1      43.029 -18.408   3.221  1.00  0.00     0.280 HD
HETATM   10  C   UNL     1      43.950 -16.972   2.022  1.00  0.00     0.238 C 
HETATM   11  C   UNL     1      43.157 -15.768   2.511  1.00  0.00     0.073 C 
HETATM   12  C   UNL     1      40.963 -14.540   2.544  1.00  0.00     0.053 A 
HETATM   13  C   UNL     1      40.250 -13.541   1.894  1.00  0.00    -0.018 A 
HETATM   14  C   UNL     1      40.153 -13.424   0.409  1.00  0.00     0.085 C 
HETATM   15  N   UNL     1      40.812 -14.327   3.897  1.00  0.00    -0.356 N 
HETATM   16  H   UNL     1      41.192 -14.878   4.657  1.00  0.00     0.166 HD
HETATM   17  C   UNL     1      40.050 -13.202   4.118  1.00  0.00     0.043 A 
HETATM   18  C   UNL     1      39.680 -12.690   2.876  1.00  0.00    -0.001 A 
HETATM   19  C   UNL     1      39.665 -12.605   5.325  1.00  0.00     0.030 A 
HETATM   20  C   UNL     1      38.878 -11.453   5.255  1.00  0.00     0.002 A 
HETATM   21  C   UNL     1      38.491 -10.921   4.029  1.00  0.00     0.001 A 
HETATM   22  C   UNL     1      38.884 -11.529   2.830  1.00  0.00     0.014 A 
ENDROOT
BRANCH   1  23
HETATM   23  C   UNL     1      40.840 -14.610  -1.740  1.00  0.00     0.289 C 
HETATM   24  O   UNL     1      40.785 -15.606  -2.458  1.00  0.00    -0.263 OA
BRANCH  23  25
HETATM   25  O   UNL     1      41.072 -13.339  -2.118  1.00  0.00    -0.325 OA
HETATM   26  C   UNL     1      42.412 -13.074  -2.556  1.00  0.00     0.213 C 
ENDBRANCH  23  25
ENDBRANCH   1  23
BRANCH   8  27
HETATM   27  C   UNL     1      43.993 -19.453   1.762  1.00  0.00     0.273 C 
BRANCH  27  28
HETATM   28  C   UNL     1      44.267 -20.430   2.869  1.00  0.00    -0.033 A 
HETATM   29  C   UNL     1      44.411 -19.979   4.191  1.00  0.00     0.009 A 
HETATM   30  C   UNL     1      44.690 -20.881   5.218  1.00  0.00     0.001 A 
HETATM   31  C   UNL     1      44.825 -22.239   4.938  1.00  0.00     0.000 A 
HETATM   32  C   UNL     1      44.673 -22.699   3.632  1.00  0.00     0.001 A 
HETATM   33  C   UNL     1      44.393 -21.802   2.600  1.00  0.00     0.009 A 
ENDBRANCH  27  28
ENDBRANCH   8  27
TORSDOF 4
ENDMDL
MODEL 7
REMARK VINA RESULT:      -8.7      3.792      7.999
REMARK  4 active torsions:
REMARK  status: ('A' for Active; 'I' for Inactive)
REMARK    1  A    between atoms: O_2  and  C_3 
REMARK    2  A    between atoms: C_3  and  C_4 
REMARK    3  A    between atoms: N_11  and  C_13 
REMARK    4  A    between atoms: C_13  and  C_14 
ROOT
HETATM    1  C   UNL     1      40.485 -12.324   6.121  1.00  0.00     0.290 C 
HETATM    2  N   UNL     1      41.531 -12.907   5.094  1.00  0.00    -0.047 N 
HETATM    3  H   UNL     1      41.947 -12.059   4.674  1.00  0.00     0.279 HD
HETATM    4  H   UNL     1      40.972 -13.313   4.328  1.00  0.00     0.279 HD
HETATM    5  C   UNL     1      42.643 -13.748   5.687  1.00  0.00     0.172 C 
HETATM    6  C   UNL     1      42.121 -15.139   6.086  1.00  0.00     0.073 C 
HETATM    7  C   UNL     1      41.749 -16.027   4.905  1.00  0.00     0.238 C 
HETATM    8  N   UNL     1      42.901 -16.120   3.937  1.00  0.00    -0.067 N 
HETATM    9  H   UNL     1      43.672 -16.621   4.407  1.00  0.00     0.280 HD
HETATM   10  C   UNL     1      43.396 -14.784   3.458  1.00  0.00     0.238 C 
HETATM   11  C   UNL     1      43.764 -13.895   4.638  1.00  0.00     0.073 C 
HETATM   12  C   UNL     1      43.126 -12.988   6.894  1.00  0.00     0.053 A 
HETATM   13  C   UNL     1      42.496 -11.916   7.512  1.00  0.00    -0.018 A 
HETATM   14  C   UNL     1      41.200 -11.337   7.049  1.00  0.00     0.085 C 
HETATM   15  N   UNL     1      44.279 -13.241   7.605  1.00  0.00    -0.356 N 
HETATM   16  H   UNL     1      44.968 -13.963   7.432  1.00  0.00     0.166 HD
HETATM   17  C   UNL     1      44.411 -12.336   8.634  1.00  0.00     0.043 A 
HETATM   18  C   UNL     1      43.301 -11.494   8.602  1.00  0.00    -0.001 A 
HETATM   19  C   UNL     1      45.429 -12.206   9.586  1.00  0.00     0.030 A 
HETATM   20  C   UNL     1      45.304 -11.184  10.532  1.00  0.00     0.002 A 
HETATM   21  C   UNL     1      44.205 -10.331  10.525  1.00  0.00     0.001 A 
HETATM   22  C   UNL     1      43.195 -10.473   9.567  1.00  0.00     0.014 A 
ENDROOT
BRANCH   1  23
HETATM   23  C   UNL     1      39.357 -11.685   5.324  1.00  0.00     0.289 C 
HETATM   24  O   UNL     1      38.839 -10.649   5.735  1.00  0.00    -0.263 OA
BRANCH  23  25
HETATM   25  O   UNL     1      39.088 -12.335   4.177  1.00  0.00    -0.325 OA
HETATM   26  C   UNL     1      38.715 -11.492   3.077  1.00  0.00     0.213 C 
ENDBRANCH  23  25
ENDBRANCH   1  23
BRANCH   8  27
HETATM   27  C   UNL     1      42.582 -17.029   2.734  1.00  0.00     0.273 C 
BRANCH  27  28
HETATM   28  C   UNL     1      43.212 -18.388   2.830  1.00  0.00    -0.033 A 
HETATM   29  C   UNL     1      44.002 -18.724   3.942  1.00  0.00     0.009 A 
HETATM   30  C   UNL     1      44.610 -19.978   4.023  1.00  0.00     0.001 A 
HETATM   31  C   UNL     1      44.435 -20.906   3.000  1.00  0.00     0.000 A 
HETATM   32  C   UNL     1      43.645 -20.588   1.898  1.00  0.00     0.001 A 
HETATM   33  C   UNL     1      43.033 -19.336   1.811  1.00  0.00     0.009 A 
ENDBRANCH  27  28
ENDBRANCH   8  27
TORSDOF 4
ENDMDL
MODEL 8
REMARK VINA RESULT:      -8.7      2.542      7.334
REMARK  4 active torsions:
REMARK  status: ('A' for Active; 'I' for Inactive)
REMARK    1  A    between atoms: O_2  and  C_3 
REMARK    2  A    between atoms: C_3  and  C_4 
REMARK    3  A    between atoms: N_11  and  C_13 
REMARK    4  A    between atoms: C_13  and  C_14 
ROOT
HETATM    1  C   UNL     1      42.116 -15.994   1.654  1.00  0.00     0.290 C 
HETATM    2  N   UNL     1      41.704 -15.701   3.148  1.00  0.00    -0.047 N 
HETATM    3  H   UNL     1      40.833 -16.247   3.263  1.00  0.00     0.279 HD
HETATM    4  H   UNL     1      41.385 -14.721   3.161  1.00  0.00     0.279 HD
HETATM    5  C   UNL     1      42.694 -16.142   4.206  1.00  0.00     0.172 C 
HETATM    6  C   UNL     1      43.900 -15.189   4.256  1.00  0.00     0.073 C 
HETATM    7  C   UNL     1      43.574 -13.801   4.792  1.00  0.00     0.238 C 
HETATM    8  N   UNL     1      42.890 -13.905   6.131  1.00  0.00    -0.067 N 
HETATM    9  H   UNL     1      43.568 -14.292   6.807  1.00  0.00     0.280 HD
HETATM   10  C   UNL     1      41.658 -14.766   6.114  1.00  0.00     0.238 C 
HETATM   11  C   UNL     1      41.983 -16.152   5.575  1.00  0.00     0.073 C 
HETATM   12  C   UNL     1      43.121 -17.531   3.807  1.00  0.00     0.053 A 
HETATM   13  C   UNL     1      42.904 -18.152   2.584  1.00  0.00    -0.018 A 
HETATM   14  C   UNL     1      42.183 -17.510   1.445  1.00  0.00     0.085 C 
HETATM   15  N   UNL     1      43.821 -18.422   4.592  1.00  0.00    -0.356 N 
HETATM   16  H   UNL     1      44.152 -18.286   5.539  1.00  0.00     0.166 HD
HETATM   17  C   UNL     1      44.022 -19.600   3.909  1.00  0.00     0.043 A 
HETATM   18  C   UNL     1      43.459 -19.457   2.643  1.00  0.00    -0.001 A 
HETATM   19  C   UNL     1      44.659 -20.776   4.322  1.00  0.00     0.030 A 
HETATM   20  C   UNL     1      44.721 -21.834   3.410  1.00  0.00     0.002 A 
HETATM   21  C   UNL     1      44.170 -21.717   2.138  1.00  0.00     0.001 A 
HETATM   22  C   UNL     1      43.536 -20.534   1.739  1.00  0.00     0.014 A 
ENDROOT
BRANCH   1  23
HETATM   23  C   UNL     1      41.101 -15.310   0.748  1.00  0.00     0.289 C 
HETATM   24  O   UNL     1      40.319 -14.493   1.228  1.00  0.00    -0.263 OA
BRANCH  23  25
HETATM   25  O   UNL     1      41.226 -15.662  -0.545  1.00  0.00    -0.325 OA
HETATM   26  C   UNL     1      40.954 -14.614  -1.485  1.00  0.00     0.213 C 
ENDBRANCH  23  25
ENDBRANCH   1  23
BRANCH   8  27
HETATM   27  C   UNL     1      42.561 -12.523   6.728  1.00  0.00     0.273 C 
BRANCH  27  28
HETATM   28  C   UNL     1      43.436 -12.151   7.890  1.00  0.00    -0.033 A 
HETATM   29  C   UNL     1      43.052 -11.120   8.763  1.00  0.00     0.009 A 
HETATM   30  C   UNL     1      43.875 -10.754   9.829  1.00  0.00     0.001 A 
HETATM   31  C   UNL     1      45.084 -11.412  10.035  1.00  0.00     0.000 A 
HETATM   32  C   UNL     1      45.471 -12.444   9.182  1.00  0.00     0.001 A 
HETATM   33  C   UNL     1      44.652 -12.815   8.114  1.00  0.00     0.009 A 
ENDBRANCH  27  28
ENDBRANCH   8  27
TORSDOF 4
ENDMDL
MODEL 9
REMARK VINA RESULT:      -8.6      3.211      5.490
REMARK  4 active torsions:
REMARK  status: ('A' for Active; 'I' for Inactive)
REMARK    1  A    between atoms: O_2  and  C_3 
REMARK    2  A    between atoms: C_3  and  C_4 
REMARK    3  A    between atoms: N_11  and  C_13 
REMARK    4  A    between atoms: C_13  and  C_14 
ROOT
HETATM    1  C   UNL     1      41.833 -15.974   1.515  1.00  0.00     0.290 C 
HETATM    2  N   UNL     1      41.159 -15.660   2.906  1.00  0.00    -0.047 N 
HETATM    3  H   UNL     1      40.359 -16.314   2.933  1.00  0.00     0.279 HD
HETATM    4  H   UNL     1      40.719 -14.734   2.799  1.00  0.00     0.279 HD
HETATM    5  C   UNL     1      42.022 -15.901   4.128  1.00  0.00     0.172 C 
HETATM    6  C   UNL     1      43.072 -14.789   4.283  1.00  0.00     0.073 C 
HETATM    7  C   UNL     1      42.491 -13.432   4.659  1.00  0.00     0.238 C 
HETATM    8  N   UNL     1      41.626 -13.556   5.887  1.00  0.00    -0.067 N 
HETATM    9  H   UNL     1      42.235 -13.808   6.682  1.00  0.00     0.280 HD
HETATM   10  C   UNL     1      40.533 -14.580   5.755  1.00  0.00     0.238 C 
HETATM   11  C   UNL     1      41.113 -15.935   5.374  1.00  0.00     0.073 C 
HETATM   12  C   UNL     1      42.681 -17.237   3.902  1.00  0.00     0.053 A 
HETATM   13  C   UNL     1      42.738 -17.948   2.710  1.00  0.00    -0.018 A 
HETATM   14  C   UNL     1      42.126 -17.475   1.433  1.00  0.00     0.085 C 
HETATM   15  N   UNL     1      43.359 -17.978   4.845  1.00  0.00    -0.356 N 
HETATM   16  H   UNL     1      43.518 -17.746   5.818  1.00  0.00     0.166 HD
HETATM   17  C   UNL     1      43.813 -19.152   4.290  1.00  0.00     0.043 A 
HETATM   18  C   UNL     1      43.440 -19.158   2.947  1.00  0.00    -0.001 A 
HETATM   19  C   UNL     1      44.524 -20.205   4.879  1.00  0.00     0.030 A 
HETATM   20  C   UNL     1      44.863 -21.291   4.068  1.00  0.00     0.002 A 
HETATM   21  C   UNL     1      44.506 -21.322   2.724  1.00  0.00     0.001 A 
HETATM   22  C   UNL     1      43.795 -20.262   2.148  1.00  0.00     0.014 A 
ENDROOT
BRANCH   1  23
HETATM   23  C   UNL     1      40.891 -15.489   0.421  1.00  0.00     0.289 C 
HETATM   24  O   UNL     1      39.978 -14.719   0.710  1.00  0.00    -0.263 OA
BRANCH  23  25
HETATM   25  O   UNL     1      41.226 -15.941  -0.801  1.00  0.00    -0.325 OA
HETATM   26  C   UNL     1      40.831 -15.091  -1.888  1.00  0.00     0.213 C 
ENDBRANCH  23  25
ENDBRANCH   1  23
BRANCH   8  27
HETATM   27  C   UNL     1      41.033 -12.202   6.324  1.00  0.00     0.273 C 
BRANCH  27  28
HETATM   28  C   UNL     1      40.388 -11.443   5.202  1.00  0.00    -0.033 A 
HETATM   29  C   UNL     1      39.103 -11.796   4.757  1.00  0.00     0.009 A 
HETATM   30  C   UNL     1      38.509 -11.109   3.697  1.00  0.00     0.001 A 
HETATM   31  C   UNL     1      39.188 -10.066   3.073  1.00  0.00     0.000 A 
HETATM   32  C   UNL     1      40.459  -9.700   3.513  1.00  0.00     0.001 A 
HETATM   33  C   UNL     1      41.058 -10.382   4.573  1.00  0.00     0.009 A 
ENDBRANCH  27  28
ENDBRANCH   8  27
TORSDOF 4
ENDMDL
MODEL 10
REMARK VINA RESULT:      -8.4      3.132      4.456
REMARK  4 active torsions:
REMARK  status: ('A' for Active; 'I' for Inactive)
REMARK    1  A    between atoms: O_2  and  C_3 
REMARK    2  A    between atoms: C_3  and  C_4 
REMARK    3  A    between atoms: N_11  and  C_13 
REMARK    4  A    between atoms: C_13  and  C_14 
ROOT
HETATM    1  C   UNL     1      43.327 -16.766   6.097  1.00  0.00     0.290 C 
HETATM    2  N   UNL     1      43.205 -15.800   4.856  1.00  0.00    -0.047 N 
HETATM    3  H   UNL     1      44.190 -15.630   4.592  1.00  0.00     0.279 HD
HETATM    4  H   UNL     1      42.891 -14.895   5.238  1.00  0.00     0.279 HD
HETATM    5  C   UNL     1      42.471 -16.358   3.654  1.00  0.00     0.172 C 
HETATM    6  C   UNL     1      40.953 -16.380   3.901  1.00  0.00     0.073 C 
HETATM    7  C   UNL     1      40.312 -14.999   3.958  1.00  0.00     0.238 C 
HETATM    8  N   UNL     1      40.664 -14.208   2.724  1.00  0.00    -0.067 N 
HETATM    9  H   UNL     1      40.221 -14.668   1.913  1.00  0.00     0.280 HD
HETATM   10  C   UNL     1      42.143 -14.093   2.482  1.00  0.00     0.238 C 
HETATM   11  C   UNL     1      42.785 -15.473   2.430  1.00  0.00     0.073 C 
HETATM   12  C   UNL     1      43.006 -17.753   3.464  1.00  0.00     0.053 A 
HETATM   13  C   UNL     1      43.768 -18.485   4.367  1.00  0.00    -0.018 A 
HETATM   14  C   UNL     1      44.186 -17.972   5.705  1.00  0.00     0.085 C 
HETATM   15  N   UNL     1      42.815 -18.553   2.358  1.00  0.00    -0.356 N 
HETATM   16  H   UNL     1      42.295 -18.334   1.517  1.00  0.00     0.166 HD
HETATM   17  C   UNL     1      43.462 -19.756   2.525  1.00  0.00     0.043 A 
HETATM   18  C   UNL     1      44.066 -19.742   3.780  1.00  0.00    -0.001 A 
HETATM   19  C   UNL     1      43.555 -20.850   1.656  1.00  0.00     0.030 A 
HETATM   20  C   UNL     1      44.286 -21.960   2.088  1.00  0.00     0.002 A 
HETATM   21  C   UNL     1      44.897 -21.974   3.338  1.00  0.00     0.001 A 
HETATM   22  C   UNL     1      44.796 -20.873   4.196  1.00  0.00     0.014 A 
ENDROOT
BRANCH   1  23
HETATM   23  C   UNL     1      43.912 -15.967   7.253  1.00  0.00     0.289 C 
HETATM   24  O   UNL     1      43.619 -16.272   8.407  1.00  0.00    -0.263 OA
BRANCH  23  25
HETATM   25  O   UNL     1      44.767 -15.008   6.852  1.00  0.00    -0.325 OA
HETATM   26  C   UNL     1      44.680 -13.776   7.582  1.00  0.00     0.213 C 
ENDBRANCH  23  25
ENDBRANCH   1  23
BRANCH   8  27
HETATM   27  C   UNL     1      40.017 -12.809   2.722  1.00  0.00     0.273 C 
BRANCH  27  28
HETATM   28  C   UNL     1      40.410 -11.968   3.902  1.00  0.00    -0.033 A 
HETATM   29  C   UNL     1      40.951 -10.686   3.708  1.00  0.00     0.009 A 
HETATM   30  C   UNL     1      41.340  -9.912   4.802  1.00  0.00     0.001 A 
HETATM   31  C   UNL     1      41.194 -10.406   6.095  1.00  0.00     0.000 A 
HETATM   32  C   UNL     1      40.648 -11.671   6.301  1.00  0.00     0.001 A 
HETATM   33  C   UNL     1      40.256 -12.451   5.211  1.00  0.00     0.009 A 
ENDBRANCH  27  28
ENDBRANCH   8  27
TORSDOF 4
ENDMDL
