MODEL 1
REMARK VINA RESULT:     -10.2      0.000      0.000
REMARK  4 active torsions:
REMARK  status: ('A' for Active; 'I' for Inactive)
REMARK    1  A    between atoms: C_2  and  C_3 
REMARK    2  A    between atoms: N_16  and  C_17 
REMARK    3  A    between atoms: C_17  and  C_18 
REMARK       I    between atoms: C_18  and  N_19 
REMARK    4  A    between atoms: N_19  and  C_20 
ROOT
HETATM    1  C   UNL     1      43.302 -17.122   8.374  1.00  0.00     0.054 C 
HETATM    2  C   UNL     1      43.118 -16.876   6.875  1.00  0.00     0.140 A 
HETATM    3  N   UNL     1      41.723 -16.573   6.614  1.00  0.00    -0.321 N 
HETATM    4  C   UNL     1      41.543 -15.326   6.066  1.00  0.00     0.326 A 
HETATM    5  O   UNL     1      40.473 -14.910   5.663  1.00  0.00    -0.247 OA
HETATM    6  N   UNL     1      42.747 -14.696   6.020  1.00  0.00    -0.259 N 
HETATM    7  C   UNL     1      43.734 -15.501   6.517  1.00  0.00     0.261 A 
HETATM    8  O   UNL     1      44.900 -15.154   6.669  1.00  0.00    -0.270 OA
HETATM    9  H   UNL     1      40.968 -17.246   6.629  1.00  0.00     0.165 HD
ENDROOT
BRANCH   6  10
HETATM   10  C   UNL     1      42.949 -13.363   5.496  1.00  0.00     0.240 C 
BRANCH  10  11
HETATM   11  C   UNL     1      43.141 -13.410   3.982  1.00  0.00     0.240 C 
HETATM   12  N   UNL     1      42.000 -13.062   3.269  1.00  0.00    -0.325 N 
HETATM   13  H   UNL     1      41.217 -12.724   3.821  1.00  0.00     0.169 HD
HETATM   14  O   UNL     1      44.245 -13.650   3.502  1.00  0.00    -0.271 OA
BRANCH  12  15
HETATM   15  C   UNL     1      41.859 -13.019   1.855  1.00  0.00     0.047 A 
HETATM   16  C   UNL     1      41.628 -14.227   1.123  1.00  0.00     0.019 A 
HETATM   17  C   UNL     1      41.497 -14.166  -0.287  1.00  0.00     0.069 A 
HETATM   18  C   UNL     1      41.484 -15.514   1.695  1.00  0.00     0.017 A 
HETATM   19  N   UNL     1      41.259 -15.242  -1.058  1.00  0.00    -0.260 NA
HETATM   20  C   UNL     1      41.609 -12.945  -0.928  1.00  0.00     0.032 A 
HETATM   21  C   UNL     1      41.125 -16.441  -0.460  1.00  0.00     0.117 A 
HETATM   22  C   UNL     1      41.228 -16.628   0.900  1.00  0.00     0.020 A 
HETATM   23  C   UNL     1      41.843 -11.770  -0.223  1.00  0.00     0.005 A 
HETATM   24  C   UNL     1      41.967 -11.808   1.160  1.00  0.00     0.030 A 
ENDBRANCH  12  15
ENDBRANCH  10  11
ENDBRANCH   6  10
BRANCH   2  25
HETATM   25  C   UNL     1      43.605 -17.985   5.941  1.00  0.00    -0.020 A 
HETATM   26  C   UNL     1      43.122 -18.067   4.615  1.00  0.00     0.022 A 
HETATM   27  C   UNL     1      43.513 -19.092   3.734  1.00  0.00    -0.025 A 
HETATM   28  C   UNL     1      44.427 -20.068   4.177  1.00  0.00    -0.026 A 
HETATM   29  C   UNL     1      43.006 -19.169   2.426  1.00  0.00     0.012 A 
HETATM   30  C   UNL     1      44.927 -19.987   5.485  1.00  0.00     0.013 A 
HETATM   31  C   UNL     1      44.812 -21.099   3.302  1.00  0.00     0.012 A 
HETATM   32  C   UNL     1      44.524 -18.963   6.350  1.00  0.00     0.011 A 
HETATM   33  C   UNL     1      44.299 -21.163   2.006  1.00  0.00     0.001 A 
HETATM   34  C   UNL     1      43.396 -20.198   1.568  1.00  0.00     0.001 A 
ENDBRANCH   2  25
TORSDOF 4
ENDMDL
MODEL 2
REMARK VINA RESULT:     -10.1      1.765      3.318
REMARK  4 active torsions:
REMARK  status: ('A' for Active; 'I' for Inactive)
REMARK    1  A    between atoms: C_2  and  C_3 
REMARK    2  A    between atoms: N_16  and  C_17 
REMARK    3  A    between atoms: C_17  and  C_18 
REMARK       I    between atoms: C_18  and  N_19 
REMARK    4  A    between atoms: N_19  and  C_20 
ROOT
HETATM    1  C   UNL     1      43.988 -15.527   6.019  1.00  0.00     0.054 C 
HETATM    2  C   UNL     1      42.991 -15.688   4.870  1.00  0.00     0.140 A 
HETATM    3  N   UNL     1      41.644 -15.543   5.390  1.00  0.00    -0.321 N 
HETATM    4  C   UNL     1      40.965 -14.493   4.821  1.00  0.00     0.326 A 
HETATM    5  O   UNL     1      39.787 -14.258   5.023  1.00  0.00    -0.247 OA
HETATM    6  N   UNL     1      41.811 -13.828   3.991  1.00  0.00    -0.259 N 
HETATM    7  C   UNL     1      43.044 -14.419   3.983  1.00  0.00     0.261 A 
HETATM    8  O   UNL     1      44.020 -13.978   3.386  1.00  0.00    -0.270 OA
HETATM    9  H   UNL     1      41.159 -16.232   5.950  1.00  0.00     0.165 HD
ENDROOT
BRANCH   6  10
HETATM   10  C   UNL     1      41.443 -12.668   3.212  1.00  0.00     0.240 C 
BRANCH  10  11
HETATM   11  C   UNL     1      40.880 -13.092   1.858  1.00  0.00     0.240 C 
HETATM   12  N   UNL     1      41.860 -13.447   0.939  1.00  0.00    -0.325 N 
HETATM   13  H   UNL     1      42.811 -13.482   1.294  1.00  0.00     0.169 HD
HETATM   14  O   UNL     1      39.667 -13.181   1.689  1.00  0.00    -0.271 OA
BRANCH  12  15
HETATM   15  C   UNL     1      41.656 -13.876  -0.401  1.00  0.00     0.047 A 
HETATM   16  C   UNL     1      41.893 -12.971  -1.485  1.00  0.00     0.019 A 
HETATM   17  C   UNL     1      41.678 -13.413  -2.814  1.00  0.00     0.069 A 
HETATM   18  C   UNL     1      42.367 -11.643  -1.352  1.00  0.00     0.017 A 
HETATM   19  N   UNL     1      41.893 -12.645  -3.896  1.00  0.00    -0.260 NA
HETATM   20  C   UNL     1      41.230 -14.703  -3.037  1.00  0.00     0.032 A 
HETATM   21  C   UNL     1      42.349 -11.391  -3.712  1.00  0.00     0.117 A 
HETATM   22  C   UNL     1      42.599 -10.848  -2.471  1.00  0.00     0.020 A 
HETATM   23  C   UNL     1      40.988 -15.583  -1.989  1.00  0.00     0.005 A 
HETATM   24  C   UNL     1      41.200 -15.171  -0.678  1.00  0.00     0.030 A 
ENDBRANCH  12  15
ENDBRANCH  10  11
ENDBRANCH   6  10
BRANCH   2  25
HETATM   25  C   UNL     1      43.107 -16.971   4.045  1.00  0.00    -0.020 A 
HETATM   26  C   UNL     1      43.761 -18.106   4.577  1.00  0.00     0.022 A 
HETATM   27  C   UNL     1      43.926 -19.293   3.839  1.00  0.00    -0.025 A 
HETATM   28  C   UNL     1      43.413 -19.366   2.529  1.00  0.00    -0.026 A 
HETATM   29  C   UNL     1      44.597 -20.404   4.377  1.00  0.00     0.012 A 
HETATM   30  C   UNL     1      42.745 -18.253   1.999  1.00  0.00     0.013 A 
HETATM   31  C   UNL     1      43.583 -20.547   1.787  1.00  0.00     0.012 A 
HETATM   32  C   UNL     1      42.595 -17.077   2.744  1.00  0.00     0.011 A 
HETATM   33  C   UNL     1      44.255 -21.642   2.334  1.00  0.00     0.001 A 
HETATM   34  C   UNL     1      44.761 -21.570   3.628  1.00  0.00     0.001 A 
ENDBRANCH   2  25
TORSDOF 4
ENDMDL
MODEL 3
REMARK VINA RESULT:      -9.9      1.360      2.570
REMARK  4 active torsions:
REMARK  status: ('A' for Active; 'I' for Inactive)
REMARK    1  A    between atoms: C_2  and  C_3 
REMARK    2  A    between atoms: N_16  and  C_17 
REMARK    3  A    between atoms: C_17  and  C_18 
REMARK       I    between atoms: C_18  and  N_19 
REMARK    4  A    between atoms: N_19  and  C_20 
ROOT
HETATM    1  C   UNL     1      44.346 -14.844   7.283  1.00  0.00     0.054 C 
HETATM    2  C   UNL     1      43.455 -15.270   6.114  1.00  0.00     0.140 A 
HETATM    3  N   UNL     1      42.069 -15.236   6.541  1.00  0.00    -0.321 N 
HETATM    4  C   UNL     1      41.307 -14.359   5.807  1.00  0.00     0.326 A 
HETATM    5  O   UNL     1      40.100 -14.253   5.916  1.00  0.00    -0.247 OA
HETATM    6  N   UNL     1      42.122 -13.697   4.943  1.00  0.00    -0.259 N 
HETATM    7  C   UNL     1      43.414 -14.122   5.075  1.00  0.00     0.261 A 
HETATM    8  O   UNL     1      44.368 -13.637   4.476  1.00  0.00    -0.270 OA
HETATM    9  H   UNL     1      41.633 -15.907   7.160  1.00  0.00     0.165 HD
ENDROOT
BRANCH   6  10
HETATM   10  C   UNL     1      41.669 -12.697   4.001  1.00  0.00     0.240 C 
BRANCH  10  11
HETATM   11  C   UNL     1      41.058 -13.363   2.771  1.00  0.00     0.240 C 
HETATM   12  N   UNL     1      41.992 -13.677   1.792  1.00  0.00    -0.325 N 
HETATM   13  H   UNL     1      42.965 -13.527   2.041  1.00  0.00     0.169 HD
HETATM   14  O   UNL     1      39.864 -13.649   2.748  1.00  0.00    -0.271 OA
BRANCH  12  15
HETATM   15  C   UNL     1      41.735 -14.291   0.535  1.00  0.00     0.047 A 
HETATM   16  C   UNL     1      41.824 -13.521  -0.668  1.00  0.00     0.019 A 
HETATM   17  C   UNL     1      41.558 -14.148  -1.911  1.00  0.00     0.069 A 
HETATM   18  C   UNL     1      42.195 -12.156  -0.739  1.00  0.00     0.017 A 
HETATM   19  N   UNL     1      41.636 -13.514  -3.094  1.00  0.00    -0.260 NA
HETATM   20  C   UNL     1      41.203 -15.486  -1.936  1.00  0.00     0.032 A 
HETATM   21  C   UNL     1      41.998 -12.217  -3.104  1.00  0.00     0.117 A 
HETATM   22  C   UNL     1      42.284 -11.500  -1.964  1.00  0.00     0.020 A 
HETATM   23  C   UNL     1      41.105 -16.236  -0.770  1.00  0.00     0.005 A 
HETATM   24  C   UNL     1      41.370 -15.641   0.458  1.00  0.00     0.030 A 
ENDBRANCH  12  15
ENDBRANCH  10  11
ENDBRANCH   6  10
BRANCH   2  25
HETATM   25  C   UNL     1      43.780 -16.618   5.470  1.00  0.00    -0.020 A 
HETATM   26  C   UNL     1      43.300 -16.928   4.178  1.00  0.00     0.022 A 
HETATM   27  C   UNL     1      43.543 -18.171   3.563  1.00  0.00    -0.025 A 
HETATM   28  C   UNL     1      44.300 -19.141   4.248  1.00  0.00    -0.026 A 
HETATM   29  C   UNL     1      43.039 -18.468   2.285  1.00  0.00     0.012 A 
HETATM   30  C   UNL     1      44.798 -18.838   5.523  1.00  0.00     0.013 A 
HETATM   31  C   UNL     1      44.536 -20.386   3.640  1.00  0.00     0.012 A 
HETATM   32  C   UNL     1      44.543 -17.599   6.123  1.00  0.00     0.011 A 
HETATM   33  C   UNL     1      44.028 -20.668   2.371  1.00  0.00     0.001 A 
HETATM   34  C   UNL     1      43.280 -19.709   1.695  1.00  0.00     0.001 A 
ENDBRANCH   2  25
TORSDOF 4
ENDMDL
MODEL 4
REMARK VINA RESULT:      -9.8      1.976      3.216
REMARK  4 active torsions:
REMARK  status: ('A' for Active; 'I' for Inactive)
REMARK    1  A    between atoms: C_2  and  C_3 
REMARK    2  A    between atoms: N_16  and  C_17 
REMARK    3  A    between atoms: C_17  and  C_18 
REMARK       I    between atoms: C_18  and  N_19 
REMARK    4  A    between atoms: N_19  and  C_20 
ROOT
HETATM    1  C   UNL     1      43.927 -15.517   6.007  1.00  0.00     0.054 C 
HETATM    2  C   UNL     1      42.982 -15.650   4.811  1.00  0.00     0.140 A 
HETATM    3  N   UNL     1      41.616 -15.472   5.267  1.00  0.00    -0.321 N 
HETATM    4  C   UNL     1      40.991 -14.403   4.671  1.00  0.00     0.326 A 
HETATM    5  O   UNL     1      39.812 -14.139   4.818  1.00  0.00    -0.247 OA
HETATM    6  N   UNL     1      41.893 -13.759   3.884  1.00  0.00    -0.259 N 
HETATM    7  C   UNL     1      43.109 -14.381   3.932  1.00  0.00     0.261 A 
HETATM    8  O   UNL     1      44.123 -13.964   3.382  1.00  0.00    -0.270 OA
HETATM    9  H   UNL     1      41.088 -16.149   5.802  1.00  0.00     0.165 HD
ENDROOT
BRANCH   6  10
HETATM   10  C   UNL     1      41.591 -12.588   3.091  1.00  0.00     0.240 C 
BRANCH  10  11
HETATM   11  C   UNL     1      41.675 -12.916   1.603  1.00  0.00     0.240 C 
HETATM   12  N   UNL     1      40.721 -13.835   1.185  1.00  0.00    -0.325 N 
HETATM   13  H   UNL     1      40.026 -14.100   1.877  1.00  0.00     0.169 HD
HETATM   14  O   UNL     1      42.471 -12.323   0.880  1.00  0.00    -0.271 OA
BRANCH  12  15
HETATM   15  C   UNL     1      40.549 -14.345  -0.131  1.00  0.00     0.047 A 
HETATM   16  C   UNL     1      39.532 -13.804  -0.980  1.00  0.00     0.019 A 
HETATM   17  C   UNL     1      39.370 -14.328  -2.287  1.00  0.00     0.069 A 
HETATM   18  C   UNL     1      38.663 -12.739  -0.638  1.00  0.00     0.017 A 
HETATM   19  N   UNL     1      38.458 -13.872  -3.163  1.00  0.00    -0.260 NA
HETATM   20  C   UNL     1      40.188 -15.362  -2.710  1.00  0.00     0.032 A 
HETATM   21  C   UNL     1      37.661 -12.854  -2.787  1.00  0.00     0.117 A 
HETATM   22  C   UNL     1      37.723 -12.259  -1.547  1.00  0.00     0.020 A 
HETATM   23  C   UNL     1      41.171 -15.898  -1.887  1.00  0.00     0.005 A 
HETATM   24  C   UNL     1      41.350 -15.392  -0.605  1.00  0.00     0.030 A 
ENDBRANCH  12  15
ENDBRANCH  10  11
ENDBRANCH   6  10
BRANCH   2  25
HETATM   25  C   UNL     1      43.105 -16.934   3.989  1.00  0.00    -0.020 A 
HETATM   26  C   UNL     1      43.748 -18.070   4.529  1.00  0.00     0.022 A 
HETATM   27  C   UNL     1      43.918 -19.258   3.794  1.00  0.00    -0.025 A 
HETATM   28  C   UNL     1      43.421 -19.331   2.478  1.00  0.00    -0.026 A 
HETATM   29  C   UNL     1      44.579 -20.371   4.341  1.00  0.00     0.012 A 
HETATM   30  C   UNL     1      42.764 -18.216   1.939  1.00  0.00     0.013 A 
HETATM   31  C   UNL     1      43.597 -20.513   1.739  1.00  0.00     0.012 A 
HETATM   32  C   UNL     1      42.608 -17.039   2.681  1.00  0.00     0.011 A 
HETATM   33  C   UNL     1      44.258 -21.610   2.295  1.00  0.00     0.001 A 
HETATM   34  C   UNL     1      44.748 -21.539   3.595  1.00  0.00     0.001 A 
ENDBRANCH   2  25
TORSDOF 4
ENDMDL
MODEL 5
REMARK VINA RESULT:      -9.6      2.576      3.786
REMARK  4 active torsions:
REMARK  status: ('A' for Active; 'I' for Inactive)
REMARK    1  A    between atoms: C_2  and  C_3 
REMARK    2  A    between atoms: N_16  and  C_17 
REMARK    3  A    between atoms: C_17  and  C_18 
REMARK       I    between atoms: C_18  and  N_19 
REMARK    4  A    between atoms: N_19  and  C_20 
ROOT
HETATM    1  C   UNL     1      43.021 -17.053   0.648  1.00  0.00     0.054 C 
HETATM    2  C   UNL     1      43.110 -16.791   2.153  1.00  0.00     0.140 A 
HETATM    3  N   UNL     1      43.957 -15.636   2.381  1.00  0.00    -0.321 N 
HETATM    4  C   UNL     1      43.298 -14.609   3.013  1.00  0.00     0.326 A 
HETATM    5  O   UNL     1      43.843 -13.593   3.404  1.00  0.00    -0.247 OA
HETATM    6  N   UNL     1      41.991 -14.954   3.151  1.00  0.00    -0.259 N 
HETATM    7  C   UNL     1      41.762 -16.199   2.634  1.00  0.00     0.261 A 
HETATM    8  O   UNL     1      40.655 -16.722   2.553  1.00  0.00    -0.270 OA
HETATM    9  H   UNL     1      44.965 -15.625   2.288  1.00  0.00     0.165 HD
ENDROOT
BRANCH   6  10
HETATM   10  C   UNL     1      40.991 -14.120   3.780  1.00  0.00     0.240 C 
BRANCH  10  11
HETATM   11  C   UNL     1      40.336 -13.205   2.749  1.00  0.00     0.240 C 
HETATM   12  N   UNL     1      39.445 -13.865   1.911  1.00  0.00    -0.325 N 
HETATM   13  H   UNL     1      39.257 -14.836   2.139  1.00  0.00     0.169 HD
HETATM   14  O   UNL     1      40.547 -11.995   2.768  1.00  0.00    -0.271 OA
BRANCH  12  15
HETATM   15  C   UNL     1      38.690 -13.292   0.850  1.00  0.00     0.047 A 
HETATM   16  C   UNL     1      39.070 -13.533  -0.508  1.00  0.00     0.019 A 
HETATM   17  C   UNL     1      38.309 -12.949  -1.552  1.00  0.00     0.069 A 
HETATM   18  C   UNL     1      40.150 -14.349  -0.923  1.00  0.00     0.017 A 
HETATM   19  N   UNL     1      38.575 -13.133  -2.857  1.00  0.00    -0.260 NA
HETATM   20  C   UNL     1      37.225 -12.149  -1.238  1.00  0.00     0.032 A 
HETATM   21  C   UNL     1      39.612 -13.924  -3.195  1.00  0.00     0.117 A 
HETATM   22  C   UNL     1      40.423 -14.548  -2.274  1.00  0.00     0.020 A 
HETATM   23  C   UNL     1      36.857 -11.904   0.081  1.00  0.00     0.005 A 
HETATM   24  C   UNL     1      37.586 -12.473   1.118  1.00  0.00     0.030 A 
ENDBRANCH  12  15
ENDBRANCH  10  11
ENDBRANCH   6  10
BRANCH   2  25
HETATM   25  C   UNL     1      43.565 -17.965   3.020  1.00  0.00    -0.020 A 
HETATM   26  C   UNL     1      43.782 -19.237   2.445  1.00  0.00     0.022 A 
HETATM   27  C   UNL     1      44.163 -20.354   3.212  1.00  0.00    -0.025 A 
HETATM   28  C   UNL     1      44.349 -20.205   4.600  1.00  0.00    -0.026 A 
HETATM   29  C   UNL     1      44.355 -21.616   2.625  1.00  0.00     0.012 A 
HETATM   30  C   UNL     1      44.154 -18.943   5.179  1.00  0.00     0.013 A 
HETATM   31  C   UNL     1      44.720 -21.321   5.370  1.00  0.00     0.012 A 
HETATM   32  C   UNL     1      43.770 -17.843   4.403  1.00  0.00     0.011 A 
HETATM   33  C   UNL     1      44.905 -22.569   4.773  1.00  0.00     0.001 A 
HETATM   34  C   UNL     1      44.722 -22.716   3.401  1.00  0.00     0.001 A 
ENDBRANCH   2  25
TORSDOF 4
ENDMDL
MODEL 6
REMARK VINA RESULT:      -9.5      1.641      2.129
REMARK  4 active torsions:
REMARK  status: ('A' for Active; 'I' for Inactive)
REMARK    1  A    between atoms: C_2  and  C_3 
REMARK    2  A    between atoms: N_16  and  C_17 
REMARK    3  A    between atoms: C_17  and  C_18 
REMARK       I    between atoms: C_18  and  N_19 
REMARK    4  A    between atoms: N_19  and  C_20 
ROOT
HETATM    1  C   UNL     1      43.972 -14.955   7.376  1.00  0.00     0.054 C 
HETATM    2  C   UNL     1      43.321 -15.345   6.047  1.00  0.00     0.140 A 
HETATM    3  N   UNL     1      41.879 -15.277   6.190  1.00  0.00    -0.321 N 
HETATM    4  C   UNL     1      41.301 -14.371   5.334  1.00  0.00     0.326 A 
HETATM    5  O   UNL     1      40.098 -14.234   5.203  1.00  0.00    -0.247 OA
HETATM    6  N   UNL     1      42.287 -13.723   4.660  1.00  0.00    -0.259 N 
HETATM    7  C   UNL     1      43.517 -14.185   5.039  1.00  0.00     0.261 A 
HETATM    8  O   UNL     1      44.582 -13.719   4.650  1.00  0.00    -0.270 OA
HETATM    9  H   UNL     1      41.313 -15.943   6.700  1.00  0.00     0.165 HD
ENDROOT
BRANCH   6  10
HETATM   10  C   UNL     1      42.056 -12.701   3.663  1.00  0.00     0.240 C 
BRANCH  10  11
HETATM   11  C   UNL     1      42.008 -13.318   2.268  1.00  0.00     0.240 C 
HETATM   12  N   UNL     1      41.725 -12.398   1.266  1.00  0.00    -0.325 N 
HETATM   13  H   UNL     1      41.685 -11.425   1.555  1.00  0.00     0.169 HD
HETATM   14  O   UNL     1      42.291 -14.502   2.102  1.00  0.00    -0.271 OA
BRANCH  12  15
HETATM   15  C   UNL     1      41.605 -12.664  -0.125  1.00  0.00     0.047 A 
HETATM   16  C   UNL     1      40.366 -13.148  -0.656  1.00  0.00     0.019 A 
HETATM   17  C   UNL     1      40.265 -13.414  -2.044  1.00  0.00     0.069 A 
HETATM   18  C   UNL     1      39.184 -13.363   0.095  1.00  0.00     0.017 A 
HETATM   19  N   UNL     1      39.141 -13.850  -2.637  1.00  0.00    -0.260 NA
HETATM   20  C   UNL     1      41.369 -13.215  -2.856  1.00  0.00     0.032 A 
HETATM   21  C   UNL     1      38.045 -14.033  -1.876  1.00  0.00     0.117 A 
HETATM   22  C   UNL     1      38.016 -13.807  -0.519  1.00  0.00     0.020 A 
HETATM   23  C   UNL     1      42.577 -12.755  -2.345  1.00  0.00     0.005 A 
HETATM   24  C   UNL     1      42.693 -12.481  -0.987  1.00  0.00     0.030 A 
ENDBRANCH  12  15
ENDBRANCH  10  11
ENDBRANCH   6  10
BRANCH   2  25
HETATM   25  C   UNL     1      43.735 -16.694   5.459  1.00  0.00    -0.020 A 
HETATM   26  C   UNL     1      43.257 -17.099   4.192  1.00  0.00     0.022 A 
HETATM   27  C   UNL     1      43.581 -18.348   3.631  1.00  0.00    -0.025 A 
HETATM   28  C   UNL     1      44.420 -19.226   4.343  1.00  0.00    -0.026 A 
HETATM   29  C   UNL     1      43.078 -18.742   2.378  1.00  0.00     0.012 A 
HETATM   30  C   UNL     1      44.916 -18.827   5.592  1.00  0.00     0.013 A 
HETATM   31  C   UNL     1      44.738 -20.478   3.788  1.00  0.00     0.012 A 
HETATM   32  C   UNL     1      44.580 -17.583   6.140  1.00  0.00     0.011 A 
HETATM   33  C   UNL     1      44.230 -20.856   2.544  1.00  0.00     0.001 A 
HETATM   34  C   UNL     1      43.401 -19.988   1.840  1.00  0.00     0.001 A 
ENDBRANCH   2  25
TORSDOF 4
ENDMDL
MODEL 7
REMARK VINA RESULT:      -9.4      3.623      6.372
REMARK  4 active torsions:
REMARK  status: ('A' for Active; 'I' for Inactive)
REMARK    1  A    between atoms: C_2  and  C_3 
REMARK    2  A    between atoms: N_16  and  C_17 
REMARK    3  A    between atoms: C_17  and  C_18 
REMARK       I    between atoms: C_18  and  N_19 
REMARK    4  A    between atoms: N_19  and  C_20 
ROOT
HETATM    1  C   UNL     1      40.484 -16.379   6.445  1.00  0.00     0.054 C 
HETATM    2  C   UNL     1      41.046 -15.925   5.096  1.00  0.00     0.140 A 
HETATM    3  N   UNL     1      39.990 -15.282   4.338  1.00  0.00    -0.321 N 
HETATM    4  C   UNL     1      40.274 -13.971   4.036  1.00  0.00     0.326 A 
HETATM    5  O   UNL     1      39.584 -13.278   3.312  1.00  0.00    -0.247 OA
HETATM    6  N   UNL     1      41.445 -13.633   4.637  1.00  0.00    -0.259 N 
HETATM    7  C   UNL     1      41.960 -14.695   5.327  1.00  0.00     0.261 A 
HETATM    8  O   UNL     1      42.965 -14.644   6.028  1.00  0.00    -0.270 OA
HETATM    9  H   UNL     1      39.219 -15.761   3.891  1.00  0.00     0.165 HD
ENDROOT
BRANCH   6  10
HETATM   10  C   UNL     1      42.065 -12.330   4.535  1.00  0.00     0.240 C 
BRANCH  10  11
HETATM   11  C   UNL     1      41.408 -11.351   5.504  1.00  0.00     0.240 C 
HETATM   12  N   UNL     1      41.426 -11.784   6.825  1.00  0.00    -0.325 N 
HETATM   13  H   UNL     1      41.953 -12.634   7.007  1.00  0.00     0.169 HD
HETATM   14  O   UNL     1      41.003 -10.262   5.109  1.00  0.00    -0.271 OA
BRANCH  12  15
HETATM   15  C   UNL     1      40.889 -11.104   7.952  1.00  0.00     0.047 A 
HETATM   16  C   UNL     1      41.746 -10.725   9.033  1.00  0.00     0.019 A 
HETATM   17  C   UNL     1      41.193 -10.053  10.152  1.00  0.00     0.069 A 
HETATM   18  C   UNL     1      43.146 -10.938   9.080  1.00  0.00     0.017 A 
HETATM   19  N   UNL     1      41.919  -9.640  11.205  1.00  0.00    -0.260 NA
HETATM   20  C   UNL     1      39.834  -9.789  10.182  1.00  0.00     0.032 A 
HETATM   21  C   UNL     1      43.247  -9.864  11.195  1.00  0.00     0.117 A 
HETATM   22  C   UNL     1      43.902 -10.504  10.166  1.00  0.00     0.020 A 
HETATM   23  C   UNL     1      38.995 -10.163   9.139  1.00  0.00     0.005 A 
HETATM   24  C   UNL     1      39.520 -10.816   8.030  1.00  0.00     0.030 A 
ENDBRANCH  12  15
ENDBRANCH  10  11
ENDBRANCH   6  10
BRANCH   2  25
HETATM   25  C   UNL     1      41.731 -16.999   4.251  1.00  0.00    -0.020 A 
HETATM   26  C   UNL     1      42.660 -17.887   4.838  1.00  0.00     0.022 A 
HETATM   27  C   UNL     1      43.343 -18.864   4.089  1.00  0.00    -0.025 A 
HETATM   28  C   UNL     1      43.087 -18.977   2.709  1.00  0.00    -0.026 A 
HETATM   29  C   UNL     1      44.279 -19.725   4.687  1.00  0.00     0.012 A 
HETATM   30  C   UNL     1      42.153 -18.114   2.119  1.00  0.00     0.013 A 
HETATM   31  C   UNL     1      43.773 -19.946   1.957  1.00  0.00     0.012 A 
HETATM   32  C   UNL     1      41.486 -17.143   2.876  1.00  0.00     0.011 A 
HETATM   33  C   UNL     1      44.703 -20.793   2.564  1.00  0.00     0.001 A 
HETATM   34  C   UNL     1      44.955 -20.682   3.929  1.00  0.00     0.001 A 
ENDBRANCH   2  25
TORSDOF 4
ENDMDL
MODEL 8
REMARK VINA RESULT:      -9.3      2.144      3.547
REMARK  4 active torsions:
REMARK  status: ('A' for Active; 'I' for Inactive)
REMARK    1  A    between atoms: C_2  and  C_3 
REMARK    2  A    between atoms: N_16  and  C_17 
REMARK    3  A    between atoms: C_17  and  C_18 
REMARK       I    between atoms: C_18  and  N_19 
REMARK    4  A    between atoms: N_19  and  C_20 
ROOT
HETATM    1  C   UNL     1      40.591 -14.972   5.765  1.00  0.00     0.054 C 
HETATM    2  C   UNL     1      40.800 -14.906   4.251  1.00  0.00     0.140 A 
HETATM    3  N   UNL     1      39.534 -14.599   3.612  1.00  0.00    -0.321 N 
HETATM    4  C   UNL     1      39.567 -13.424   2.901  1.00  0.00     0.326 A 
HETATM    5  O   UNL     1      38.656 -13.033   2.195  1.00  0.00    -0.247 OA
HETATM    6  N   UNL     1      40.778 -12.837   3.092  1.00  0.00    -0.259 N 
HETATM    7  C   UNL     1      41.563 -13.601   3.910  1.00  0.00     0.261 A 
HETATM    8  O   UNL     1      42.672 -13.269   4.314  1.00  0.00    -0.270 OA
HETATM    9  H   UNL     1      38.762 -15.245   3.510  1.00  0.00     0.165 HD
ENDROOT
BRANCH   6  10
HETATM   10  C   UNL     1      41.179 -11.585   2.491  1.00  0.00     0.240 C 
BRANCH  10  11
HETATM   11  C   UNL     1      41.580 -11.798   1.034  1.00  0.00     0.240 C 
HETATM   12  N   UNL     1      40.506 -11.751   0.153  1.00  0.00    -0.325 N 
HETATM   13  H   UNL     1      39.612 -11.484   0.556  1.00  0.00     0.169 HD
HETATM   14  O   UNL     1      42.763 -11.903   0.723  1.00  0.00    -0.271 OA
BRANCH  12  15
HETATM   15  C   UNL     1      40.553 -11.921  -1.258  1.00  0.00     0.047 A 
HETATM   16  C   UNL     1      40.725 -13.228  -1.815  1.00  0.00     0.019 A 
HETATM   17  C   UNL     1      40.777 -13.379  -3.223  1.00  0.00     0.069 A 
HETATM   18  C   UNL     1      40.822 -14.428  -1.068  1.00  0.00     0.017 A 
HETATM   19  N   UNL     1      40.915 -14.566  -3.839  1.00  0.00    -0.260 NA
HETATM   20  C   UNL     1      40.675 -12.259  -4.030  1.00  0.00     0.032 A 
HETATM   21  C   UNL     1      40.997 -15.676  -3.080  1.00  0.00     0.117 A 
HETATM   22  C   UNL     1      40.956 -15.660  -1.704  1.00  0.00     0.020 A 
HETATM   23  C   UNL     1      40.517 -10.986  -3.495  1.00  0.00     0.005 A 
HETATM   24  C   UNL     1      40.457 -10.819  -2.116  1.00  0.00     0.030 A 
ENDBRANCH  12  15
ENDBRANCH  10  11
ENDBRANCH   6  10
BRANCH   2  25
HETATM   25  C   UNL     1      41.441 -16.133   3.601  1.00  0.00    -0.020 A 
HETATM   26  C   UNL     1      42.332 -16.948   4.335  1.00  0.00     0.022 A 
HETATM   27  C   UNL     1      42.974 -18.063   3.765  1.00  0.00    -0.025 A 
HETATM   28  C   UNL     1      42.715 -18.394   2.421  1.00  0.00    -0.026 A 
HETATM   29  C   UNL     1      43.873 -18.849   4.505  1.00  0.00     0.012 A 
HETATM   30  C   UNL     1      41.818 -17.603   1.688  1.00  0.00     0.013 A 
HETATM   31  C   UNL     1      43.362 -19.502   1.846  1.00  0.00     0.012 A 
HETATM   32  C   UNL     1      41.191 -16.494   2.268  1.00  0.00     0.011 A 
HETATM   33  C   UNL     1      44.254 -20.272   2.593  1.00  0.00     0.001 A 
HETATM   34  C   UNL     1      44.509 -19.946   3.922  1.00  0.00     0.001 A 
ENDBRANCH   2  25
TORSDOF 4
ENDMDL
MODEL 9
REMARK VINA RESULT:      -9.1      2.984      3.862
REMARK  4 active torsions:
REMARK  status: ('A' for Active; 'I' for Inactive)
REMARK    1  A    between atoms: C_2  and  C_3 
REMARK    2  A    between atoms: N_16  and  C_17 
REMARK    3  A    between atoms: C_17  and  C_18 
REMARK       I    between atoms: C_18  and  N_19 
REMARK    4  A    between atoms: N_19  and  C_20 
ROOT
HETATM    1  C   UNL     1      44.002 -15.629   6.984  1.00  0.00     0.054 C 
HETATM    2  C   UNL     1      43.040 -15.520   5.798  1.00  0.00     0.140 A 
HETATM    3  N   UNL     1      41.691 -15.344   6.300  1.00  0.00    -0.321 N 
HETATM    4  C   UNL     1      41.121 -14.162   5.892  1.00  0.00     0.326 A 
HETATM    5  O   UNL     1      39.960 -13.861   6.099  1.00  0.00    -0.247 OA
HETATM    6  N   UNL     1      42.051 -13.450   5.201  1.00  0.00    -0.259 N 
HETATM    7  C   UNL     1      43.231 -14.136   5.130  1.00  0.00     0.261 A 
HETATM    8  O   UNL     1      44.262 -13.691   4.636  1.00  0.00    -0.270 OA
HETATM    9  H   UNL     1      41.130 -16.068   6.730  1.00  0.00     0.165 HD
ENDROOT
BRANCH   6  10
HETATM   10  C   UNL     1      41.808 -12.153   4.610  1.00  0.00     0.240 C 
BRANCH  10  11
HETATM   11  C   UNL     1      41.095 -12.304   3.269  1.00  0.00     0.240 C 
HETATM   12  N   UNL     1      39.717 -12.436   3.387  1.00  0.00    -0.325 N 
HETATM   13  H   UNL     1      39.337 -12.315   4.322  1.00  0.00     0.169 HD
HETATM   14  O   UNL     1      41.723 -12.218   2.217  1.00  0.00    -0.271 OA
BRANCH  12  15
HETATM   15  C   UNL     1      38.783 -12.602   2.328  1.00  0.00     0.047 A 
HETATM   16  C   UNL     1      37.865 -11.550   2.013  1.00  0.00     0.019 A 
HETATM   17  C   UNL     1      36.936 -11.734   0.959  1.00  0.00     0.069 A 
HETATM   18  C   UNL     1      37.814 -10.289   2.658  1.00  0.00     0.017 A 
HETATM   19  N   UNL     1      36.050 -10.798   0.576  1.00  0.00    -0.260 NA
HETATM   20  C   UNL     1      36.926 -12.932   0.264  1.00  0.00     0.032 A 
HETATM   21  C   UNL     1      36.050  -9.615   1.220  1.00  0.00     0.117 A 
HETATM   22  C   UNL     1      36.903  -9.315   2.258  1.00  0.00     0.020 A 
HETATM   23  C   UNL     1      37.809 -13.961   0.572  1.00  0.00     0.005 A 
HETATM   24  C   UNL     1      38.732 -13.795   1.598  1.00  0.00     0.030 A 
ENDBRANCH  12  15
ENDBRANCH  10  11
ENDBRANCH   6  10
BRANCH   2  25
HETATM   25  C   UNL     1      43.085 -16.661   4.781  1.00  0.00    -0.020 A 
HETATM   26  C   UNL     1      43.790 -17.851   5.072  1.00  0.00     0.022 A 
HETATM   27  C   UNL     1      43.889 -18.910   4.150  1.00  0.00    -0.025 A 
HETATM   28  C   UNL     1      43.257 -18.793   2.897  1.00  0.00    -0.026 A 
HETATM   29  C   UNL     1      44.612 -20.077   4.449  1.00  0.00     0.012 A 
HETATM   30  C   UNL     1      42.540 -17.625   2.605  1.00  0.00     0.013 A 
HETATM   31  C   UNL     1      43.363 -19.846   1.971  1.00  0.00     0.012 A 
HETATM   32  C   UNL     1      42.454 -16.578   3.531  1.00  0.00     0.011 A 
HETATM   33  C   UNL     1      44.086 -20.999   2.282  1.00  0.00     0.001 A 
HETATM   34  C   UNL     1      44.710 -21.114   3.520  1.00  0.00     0.001 A 
ENDBRANCH   2  25
TORSDOF 4
ENDMDL
MODEL 10
REMARK VINA RESULT:      -9.0      2.364      7.095
REMARK  4 active torsions:
REMARK  status: ('A' for Active; 'I' for Inactive)
REMARK    1  A    between atoms: C_2  and  C_3 
REMARK    2  A    between atoms: N_16  and  C_17 
REMARK    3  A    between atoms: C_17  and  C_18 
REMARK       I    between atoms: C_18  and  N_19 
REMARK    4  A    between atoms: N_19  and  C_20 
ROOT
HETATM    1  C   UNL     1      39.216 -13.054   1.826  1.00  0.00     0.054 C 
HETATM    2  C   UNL     1      40.233 -14.015   2.445  1.00  0.00     0.140 A 
HETATM    3  N   UNL     1      39.583 -15.286   2.706  1.00  0.00    -0.321 N 
HETATM    4  C   UNL     1      40.158 -16.328   2.020  1.00  0.00     0.326 A 
HETATM    5  O   UNL     1      39.850 -17.495   2.176  1.00  0.00    -0.247 OA
HETATM    6  N   UNL     1      41.127 -15.829   1.207  1.00  0.00    -0.259 N 
HETATM    7  C   UNL     1      41.221 -14.472   1.343  1.00  0.00     0.261 A 
HETATM    8  O   UNL     1      41.955 -13.757   0.669  1.00  0.00    -0.270 OA
HETATM    9  H   UNL     1      38.919 -15.458   3.449  1.00  0.00     0.165 HD
ENDROOT
BRANCH   6  10
HETATM   10  C   UNL     1      41.954 -16.635   0.337  1.00  0.00     0.240 C 
BRANCH  10  11
HETATM   11  C   UNL     1      43.018 -17.372   1.146  1.00  0.00     0.240 C 
HETATM   12  N   UNL     1      42.562 -18.561   1.704  1.00  0.00    -0.325 N 
HETATM   13  H   UNL     1      41.626 -18.849   1.432  1.00  0.00     0.169 HD
HETATM   14  O   UNL     1      44.171 -16.953   1.187  1.00  0.00    -0.271 OA
BRANCH  12  15
HETATM   15  C   UNL     1      43.306 -19.462   2.513  1.00  0.00     0.047 A 
HETATM   16  C   UNL     1      43.547 -19.155   3.890  1.00  0.00     0.019 A 
HETATM   17  C   UNL     1      44.296 -20.061   4.681  1.00  0.00     0.069 A 
HETATM   18  C   UNL     1      43.067 -18.007   4.567  1.00  0.00     0.017 A 
HETATM   19  N   UNL     1      44.557 -19.870   5.985  1.00  0.00    -0.260 NA
HETATM   20  C   UNL     1      44.792 -21.218   4.103  1.00  0.00     0.032 A 
HETATM   21  C   UNL     1      44.072 -18.764   6.580  1.00  0.00     0.117 A 
HETATM   22  C   UNL     1      43.328 -17.811   5.921  1.00  0.00     0.020 A 
HETATM   23  C   UNL     1      44.569 -21.517   2.764  1.00  0.00     0.005 A 
HETATM   24  C   UNL     1      43.830 -20.644   1.975  1.00  0.00     0.030 A 
ENDBRANCH  12  15
ENDBRANCH  10  11
ENDBRANCH   6  10
BRANCH   2  25
HETATM   25  C   UNL     1      40.958 -13.520   3.698  1.00  0.00    -0.020 A 
HETATM   26  C   UNL     1      42.167 -14.125   4.110  1.00  0.00     0.022 A 
HETATM   27  C   UNL     1      42.846 -13.728   5.277  1.00  0.00    -0.025 A 
HETATM   28  C   UNL     1      42.316 -12.684   6.060  1.00  0.00    -0.026 A 
HETATM   29  C   UNL     1      44.037 -14.355   5.682  1.00  0.00     0.012 A 
HETATM   30  C   UNL     1      41.127 -12.065   5.651  1.00  0.00     0.013 A 
HETATM   31  C   UNL     1      42.988 -12.292   7.231  1.00  0.00     0.012 A 
HETATM   32  C   UNL     1      40.460 -12.475   4.490  1.00  0.00     0.011 A 
HETATM   33  C   UNL     1      44.169 -12.925   7.622  1.00  0.00     0.001 A 
HETATM   34  C   UNL     1      44.692 -13.956   6.848  1.00  0.00     0.001 A 
ENDBRANCH   2  25
TORSDOF 4
ENDMDL
