MODEL 1
REMARK VINA RESULT:      -9.5      0.000      0.000
REMARK  4 active torsions:
REMARK  status: ('A' for Active; 'I' for Inactive)
REMARK    1  A    between atoms: C_5  and  N_6 
REMARK       I    between atoms: N_6  and  C_7 
REMARK    2  A    between atoms: C_7  and  C_8 
REMARK    3  A    between atoms: N_10  and  C_11 
REMARK    4  A    between atoms: C_12  and  O_13 
ROOT
HETATM    1  C   UNL     1      42.082 -17.460   2.059  1.00  0.00     0.086 A 
HETATM    2  C   UNL     1      42.655 -17.031   3.361  1.00  0.00     0.186 A 
HETATM    3  N   UNL     1      42.368 -15.879   3.890  1.00  0.00    -0.221 NA
HETATM    4  O   UNL     1      43.513 -17.912   4.009  1.00  0.00    -0.290 OA
HETATM    5  C   UNL     1      43.796 -19.184   3.489  1.00  0.00     0.088 A 
HETATM    6  C   UNL     1      43.228 -19.600   2.292  1.00  0.00    -0.001 A 
HETATM    7  C   UNL     1      44.658 -20.001   4.216  1.00  0.00     0.038 A 
HETATM    8  C   UNL     1      44.958 -21.271   3.727  1.00  0.00     0.003 A 
HETATM    9  C   UNL     1      44.394 -21.708   2.526  1.00  0.00     0.001 A 
HETATM   10  C   UNL     1      43.530 -20.874   1.808  1.00  0.00     0.014 A 
HETATM   11  C   UNL     1      42.357 -18.683   1.575  1.00  0.00     0.035 A 
ENDROOT
BRANCH   1  12
HETATM   12  C   UNL     1      41.211 -16.580   1.197  1.00  0.00     0.260 C 
HETATM   13  N   UNL     1      41.883 -15.889   0.213  1.00  0.00    -0.323 N 
HETATM   14  H   UNL     1      42.900 -15.984   0.207  1.00  0.00     0.169 HD
HETATM   15  O   UNL     1      39.998 -16.535   1.394  1.00  0.00    -0.267 OA
BRANCH  13  16
HETATM   16  C   UNL     1      41.349 -15.098  -0.823  1.00  0.00     0.035 A 
HETATM   17  C   UNL     1      40.986 -15.588  -2.077  1.00  0.00     0.030 A 
HETATM   18  C   UNL     1      40.503 -14.720  -3.065  1.00  0.00     0.009 A 
HETATM   19  C   UNL     1      40.365 -13.352  -2.809  1.00  0.00    -0.062 A 
HETATM   20  C   UNL     1      39.895 -12.423  -3.889  1.00  0.00     0.048 C 
HETATM   21  C   UNL     1      40.731 -12.861  -1.554  1.00  0.00     0.009 A 
HETATM   22  C   UNL     1      41.213 -13.729  -0.569  1.00  0.00     0.030 A 
ENDBRANCH  13  16
ENDBRANCH   1  12
BRANCH   3  23
HETATM   23  C   UNL     1      42.969 -15.531   5.114  1.00  0.00     0.093 A 
HETATM   24  C   UNL     1      43.532 -14.264   5.342  1.00  0.00     0.097 A 
HETATM   25  C   UNL     1      44.210 -13.991   6.534  1.00  0.00     0.039 A 
HETATM   26  C   UNL     1      44.309 -14.970   7.522  1.00  0.00     0.003 A 
HETATM   27  C   UNL     1      43.751 -16.228   7.311  1.00  0.00     0.002 A 
HETATM   28  C   UNL     1      43.094 -16.508   6.110  1.00  0.00     0.034 A 
BRANCH  24  29
HETATM   29  O   UNL     1      43.538 -13.263   4.403  1.00  0.00    -0.354 OA
HETATM   30  C   UNL     1      42.306 -12.544   4.382  1.00  0.00     0.210 C 
ENDBRANCH  24  29
ENDBRANCH   3  23
TORSDOF 4
ENDMDL
MODEL 2
REMARK VINA RESULT:      -9.5      1.605      1.894
REMARK  4 active torsions:
REMARK  status: ('A' for Active; 'I' for Inactive)
REMARK    1  A    between atoms: C_5  and  N_6 
REMARK       I    between atoms: N_6  and  C_7 
REMARK    2  A    between atoms: C_7  and  C_8 
REMARK    3  A    between atoms: N_10  and  C_11 
REMARK    4  A    between atoms: C_12  and  O_13 
ROOT
HETATM    1  C   UNL     1      42.212 -17.507   1.900  1.00  0.00     0.086 A 
HETATM    2  C   UNL     1      42.740 -17.054   3.213  1.00  0.00     0.186 A 
HETATM    3  N   UNL     1      42.462 -15.878   3.694  1.00  0.00    -0.221 NA
HETATM    4  O   UNL     1      43.542 -17.937   3.925  1.00  0.00    -0.290 OA
HETATM    5  C   UNL     1      43.812 -19.232   3.456  1.00  0.00     0.088 A 
HETATM    6  C   UNL     1      43.286 -19.669   2.247  1.00  0.00    -0.001 A 
HETATM    7  C   UNL     1      44.618 -20.048   4.245  1.00  0.00     0.038 A 
HETATM    8  C   UNL     1      44.903 -21.341   3.808  1.00  0.00     0.003 A 
HETATM    9  C   UNL     1      44.380 -21.800   2.596  1.00  0.00     0.001 A 
HETATM   10  C   UNL     1      43.573 -20.965   1.816  1.00  0.00     0.014 A 
HETATM   11  C   UNL     1      42.474 -18.752   1.466  1.00  0.00     0.035 A 
ENDROOT
BRANCH   1  12
HETATM   12  C   UNL     1      41.405 -16.631   0.974  1.00  0.00     0.260 C 
HETATM   13  N   UNL     1      40.493 -15.813   1.602  1.00  0.00    -0.323 N 
HETATM   14  H   UNL     1      40.402 -15.928   2.613  1.00  0.00     0.169 HD
HETATM   15  O   UNL     1      41.602 -16.676  -0.239  1.00  0.00    -0.267 OA
BRANCH  13  16
HETATM   16  C   UNL     1      39.692 -14.800   1.040  1.00  0.00     0.035 A 
HETATM   17  C   UNL     1      40.176 -13.781   0.219  1.00  0.00     0.030 A 
HETATM   18  C   UNL     1      39.313 -12.788  -0.262  1.00  0.00     0.009 A 
HETATM   19  C   UNL     1      37.953 -12.804   0.062  1.00  0.00    -0.062 A 
HETATM   20  C   UNL     1      37.048 -11.708  -0.416  1.00  0.00     0.048 C 
HETATM   21  C   UNL     1      37.468 -13.823   0.885  1.00  0.00     0.009 A 
HETATM   22  C   UNL     1      38.330 -14.815   1.364  1.00  0.00     0.030 A 
ENDBRANCH  13  16
ENDBRANCH   1  12
BRANCH   3  23
HETATM   23  C   UNL     1      43.018 -15.509   4.933  1.00  0.00     0.093 A 
HETATM   24  C   UNL     1      43.506 -14.216   5.183  1.00  0.00     0.097 A 
HETATM   25  C   UNL     1      44.145 -13.917   6.390  1.00  0.00     0.039 A 
HETATM   26  C   UNL     1      44.277 -14.898   7.373  1.00  0.00     0.003 A 
HETATM   27  C   UNL     1      43.792 -16.183   7.141  1.00  0.00     0.002 A 
HETATM   28  C   UNL     1      43.176 -16.487   5.925  1.00  0.00     0.034 A 
BRANCH  24  29
HETATM   29  O   UNL     1      43.477 -13.208   4.252  1.00  0.00    -0.354 OA
HETATM   30  C   UNL     1      42.227 -12.521   4.249  1.00  0.00     0.210 C 
ENDBRANCH  24  29
ENDBRANCH   3  23
TORSDOF 4
ENDMDL
MODEL 3
REMARK VINA RESULT:      -9.4      1.024      1.543
REMARK  4 active torsions:
REMARK  status: ('A' for Active; 'I' for Inactive)
REMARK    1  A    between atoms: C_5  and  N_6 
REMARK       I    between atoms: N_6  and  C_7 
REMARK    2  A    between atoms: C_7  and  C_8 
REMARK    3  A    between atoms: N_10  and  C_11 
REMARK    4  A    between atoms: C_12  and  O_13 
ROOT
HETATM    1  C   UNL     1      42.168 -17.392   2.066  1.00  0.00     0.086 A 
HETATM    2  C   UNL     1      42.800 -16.980   3.346  1.00  0.00     0.186 A 
HETATM    3  N   UNL     1      42.572 -15.817   3.880  1.00  0.00    -0.221 NA
HETATM    4  O   UNL     1      43.646 -17.889   3.969  1.00  0.00    -0.290 OA
HETATM    5  C   UNL     1      43.866 -19.173   3.445  1.00  0.00     0.088 A 
HETATM    6  C   UNL     1      43.243 -19.571   2.269  1.00  0.00    -0.001 A 
HETATM    7  C   UNL     1      44.722 -20.018   4.146  1.00  0.00     0.038 A 
HETATM    8  C   UNL     1      44.959 -21.299   3.653  1.00  0.00     0.003 A 
HETATM    9  C   UNL     1      44.340 -21.719   2.473  1.00  0.00     0.001 A 
HETATM   10  C   UNL     1      43.483 -20.857   1.781  1.00  0.00     0.014 A 
HETATM   11  C   UNL     1      42.382 -18.626   1.578  1.00  0.00     0.035 A 
ENDROOT
BRANCH   1  12
HETATM   12  C   UNL     1      41.301 -16.483   1.230  1.00  0.00     0.260 C 
HETATM   13  N   UNL     1      41.961 -15.835   0.209  1.00  0.00    -0.323 N 
HETATM   14  H   UNL     1      42.971 -15.975   0.162  1.00  0.00     0.169 HD
HETATM   15  O   UNL     1      40.101 -16.382   1.477  1.00  0.00    -0.267 OA
BRANCH  13  16
HETATM   16  C   UNL     1      41.418 -15.033  -0.814  1.00  0.00     0.035 A 
HETATM   17  C   UNL     1      40.966 -15.522  -2.039  1.00  0.00     0.030 A 
HETATM   18  C   UNL     1      40.481 -14.645  -3.017  1.00  0.00     0.009 A 
HETATM   19  C   UNL     1      40.431 -13.267  -2.781  1.00  0.00    -0.062 A 
HETATM   20  C   UNL     1      39.958 -12.332  -3.853  1.00  0.00     0.048 C 
HETATM   21  C   UNL     1      40.885 -12.777  -1.555  1.00  0.00     0.009 A 
HETATM   22  C   UNL     1      41.369 -13.654  -0.579  1.00  0.00     0.030 A 
ENDBRANCH  13  16
ENDBRANCH   1  12
BRANCH   3  23
HETATM   23  C   UNL     1      43.226 -15.487   5.082  1.00  0.00     0.093 A 
HETATM   24  C   UNL     1      42.959 -16.154   6.290  1.00  0.00     0.097 A 
HETATM   25  C   UNL     1      43.552 -15.729   7.483  1.00  0.00     0.039 A 
HETATM   26  C   UNL     1      44.439 -14.653   7.478  1.00  0.00     0.003 A 
HETATM   27  C   UNL     1      44.716 -13.987   6.287  1.00  0.00     0.002 A 
HETATM   28  C   UNL     1      44.105 -14.396   5.100  1.00  0.00     0.034 A 
BRANCH  24  29
HETATM   29  O   UNL     1      42.053 -17.179   6.399  1.00  0.00    -0.354 OA
HETATM   30  C   UNL     1      40.716 -16.698   6.517  1.00  0.00     0.210 C 
ENDBRANCH  24  29
ENDBRANCH   3  23
TORSDOF 4
ENDMDL
MODEL 4
REMARK VINA RESULT:      -9.3      2.079      6.928
REMARK  4 active torsions:
REMARK  status: ('A' for Active; 'I' for Inactive)
REMARK    1  A    between atoms: C_5  and  N_6 
REMARK       I    between atoms: N_6  and  C_7 
REMARK    2  A    between atoms: C_7  and  C_8 
REMARK    3  A    between atoms: N_10  and  C_11 
REMARK    4  A    between atoms: C_12  and  O_13 
ROOT
HETATM    1  C   UNL     1      42.441 -16.050   1.255  1.00  0.00     0.086 A 
HETATM    2  C   UNL     1      41.875 -15.002   2.143  1.00  0.00     0.186 A 
HETATM    3  N   UNL     1      42.274 -14.855   3.371  1.00  0.00    -0.221 NA
HETATM    4  O   UNL     1      40.900 -14.165   1.613  1.00  0.00    -0.290 OA
HETATM    5  C   UNL     1      40.490 -14.264   0.273  1.00  0.00     0.088 A 
HETATM    6  C   UNL     1      41.049 -15.219  -0.566  1.00  0.00    -0.001 A 
HETATM    7  C   UNL     1      39.515 -13.375  -0.170  1.00  0.00     0.038 A 
HETATM    8  C   UNL     1      39.089 -13.445  -1.495  1.00  0.00     0.003 A 
HETATM    9  C   UNL     1      39.641 -14.397  -2.356  1.00  0.00     0.001 A 
HETATM   10  C   UNL     1      40.619 -15.283  -1.893  1.00  0.00     0.014 A 
HETATM   11  C   UNL     1      42.044 -16.130  -0.027  1.00  0.00     0.035 A 
ENDROOT
BRANCH   1  12
HETATM   12  C   UNL     1      43.437 -17.087   1.713  1.00  0.00     0.260 C 
HETATM   13  N   UNL     1      42.964 -17.957   2.670  1.00  0.00    -0.323 N 
HETATM   14  H   UNL     1      42.023 -17.776   3.023  1.00  0.00     0.169 HD
HETATM   15  O   UNL     1      44.564 -17.114   1.222  1.00  0.00    -0.267 OA
BRANCH  13  16
HETATM   16  C   UNL     1      43.593 -19.101   3.200  1.00  0.00     0.035 A 
HETATM   17  C   UNL     1      43.904 -20.241   2.459  1.00  0.00     0.030 A 
HETATM   18  C   UNL     1      44.490 -21.352   3.079  1.00  0.00     0.009 A 
HETATM   19  C   UNL     1      44.786 -21.335   4.446  1.00  0.00    -0.062 A 
HETATM   20  C   UNL     1      45.367 -22.547   5.110  1.00  0.00     0.048 C 
HETATM   21  C   UNL     1      44.473 -20.194   5.189  1.00  0.00     0.009 A 
HETATM   22  C   UNL     1      43.887 -19.086   4.569  1.00  0.00     0.030 A 
ENDBRANCH  13  16
ENDBRANCH   1  12
BRANCH   3  23
HETATM   23  C   UNL     1      41.675 -13.855   4.160  1.00  0.00     0.093 A 
HETATM   24  C   UNL     1      40.641 -14.134   5.070  1.00  0.00     0.097 A 
HETATM   25  C   UNL     1      40.002 -13.099   5.759  1.00  0.00     0.039 A 
HETATM   26  C   UNL     1      40.405 -11.778   5.569  1.00  0.00     0.003 A 
HETATM   27  C   UNL     1      41.432 -11.488   4.673  1.00  0.00     0.002 A 
HETATM   28  C   UNL     1      42.054 -12.520   3.967  1.00  0.00     0.034 A 
BRANCH  24  29
HETATM   29  O   UNL     1      40.138 -15.394   5.273  1.00  0.00    -0.354 OA
HETATM   30  C   UNL     1      40.885 -16.116   6.251  1.00  0.00     0.210 C 
ENDBRANCH  24  29
ENDBRANCH   3  23
TORSDOF 4
ENDMDL
MODEL 5
REMARK VINA RESULT:      -9.2      1.649      6.882
REMARK  4 active torsions:
REMARK  status: ('A' for Active; 'I' for Inactive)
REMARK    1  A    between atoms: C_5  and  N_6 
REMARK       I    between atoms: N_6  and  C_7 
REMARK    2  A    between atoms: C_7  and  C_8 
REMARK    3  A    between atoms: N_10  and  C_11 
REMARK    4  A    between atoms: C_12  and  O_13 
ROOT
HETATM    1  C   UNL     1      41.413 -15.999   0.514  1.00  0.00     0.086 A 
HETATM    2  C   UNL     1      41.142 -14.769   1.302  1.00  0.00     0.186 A 
HETATM    3  N   UNL     1      41.223 -14.753   2.599  1.00  0.00    -0.221 NA
HETATM    4  O   UNL     1      40.802 -13.617   0.602  1.00  0.00    -0.290 OA
HETATM    5  C   UNL     1      40.761 -13.590  -0.801  1.00  0.00     0.088 A 
HETATM    6  C   UNL     1      41.054 -14.731  -1.537  1.00  0.00    -0.001 A 
HETATM    7  C   UNL     1      40.421 -12.387  -1.413  1.00  0.00     0.038 A 
HETATM    8  C   UNL     1      40.374 -12.327  -2.804  1.00  0.00     0.003 A 
HETATM    9  C   UNL     1      40.668 -13.463  -3.563  1.00  0.00     0.001 A 
HETATM   10  C   UNL     1      41.007 -14.664  -2.931  1.00  0.00     0.014 A 
HETATM   11  C   UNL     1      41.376 -15.958  -0.828  1.00  0.00     0.035 A 
ENDROOT
BRANCH   1  12
HETATM   12  C   UNL     1      41.703 -17.343   1.134  1.00  0.00     0.260 C 
HETATM   13  N   UNL     1      42.985 -17.492   1.617  1.00  0.00    -0.323 N 
HETATM   14  H   UNL     1      43.626 -16.715   1.448  1.00  0.00     0.169 HD
HETATM   15  O   UNL     1      40.820 -18.197   1.191  1.00  0.00    -0.267 OA
BRANCH  13  16
HETATM   16  C   UNL     1      43.523 -18.562   2.358  1.00  0.00     0.035 A 
HETATM   17  C   UNL     1      43.779 -19.829   1.835  1.00  0.00     0.030 A 
HETATM   18  C   UNL     1      44.275 -20.849   2.656  1.00  0.00     0.009 A 
HETATM   19  C   UNL     1      44.533 -20.614   4.011  1.00  0.00    -0.062 A 
HETATM   20  C   UNL     1      45.016 -21.727   4.893  1.00  0.00     0.048 C 
HETATM   21  C   UNL     1      44.275 -19.346   4.536  1.00  0.00     0.009 A 
HETATM   22  C   UNL     1      43.780 -18.329   3.714  1.00  0.00     0.030 A 
ENDBRANCH  13  16
ENDBRANCH   1  12
BRANCH   3  23
HETATM   23  C   UNL     1      40.928 -13.557   3.279  1.00  0.00     0.093 A 
HETATM   24  C   UNL     1      41.921 -12.781   3.901  1.00  0.00     0.097 A 
HETATM   25  C   UNL     1      41.576 -11.655   4.654  1.00  0.00     0.039 A 
HETATM   26  C   UNL     1      40.240 -11.274   4.771  1.00  0.00     0.003 A 
HETATM   27  C   UNL     1      39.246 -12.032   4.155  1.00  0.00     0.002 A 
HETATM   28  C   UNL     1      39.589 -13.170   3.423  1.00  0.00     0.034 A 
BRANCH  24  29
HETATM   29  O   UNL     1      43.252 -13.116   3.892  1.00  0.00    -0.354 OA
HETATM   30  C   UNL     1      43.631 -13.824   5.071  1.00  0.00     0.210 C 
ENDBRANCH  24  29
ENDBRANCH   3  23
TORSDOF 4
ENDMDL
MODEL 6
REMARK VINA RESULT:      -9.0      2.241      7.766
REMARK  4 active torsions:
REMARK  status: ('A' for Active; 'I' for Inactive)
REMARK    1  A    between atoms: C_5  and  N_6 
REMARK       I    between atoms: N_6  and  C_7 
REMARK    2  A    between atoms: C_7  and  C_8 
REMARK    3  A    between atoms: N_10  and  C_11 
REMARK    4  A    between atoms: C_12  and  O_13 
ROOT
HETATM    1  C   UNL     1      41.198 -15.119   4.328  1.00  0.00     0.086 A 
HETATM    2  C   UNL     1      40.464 -14.511   3.188  1.00  0.00     0.186 A 
HETATM    3  N   UNL     1      40.018 -15.228   2.200  1.00  0.00    -0.221 NA
HETATM    4  O   UNL     1      40.259 -13.137   3.212  1.00  0.00    -0.290 OA
HETATM    5  C   UNL     1      40.681 -12.346   4.293  1.00  0.00     0.088 A 
HETATM    6  C   UNL     1      41.332 -12.922   5.377  1.00  0.00    -0.001 A 
HETATM    7  C   UNL     1      40.421 -10.980   4.232  1.00  0.00     0.038 A 
HETATM    8  C   UNL     1      40.824 -10.168   5.290  1.00  0.00     0.003 A 
HETATM    9  C   UNL     1      41.478 -10.729   6.391  1.00  0.00     0.001 A 
HETATM   10  C   UNL     1      41.732 -12.104   6.434  1.00  0.00     0.014 A 
HETATM   11  C   UNL     1      41.591 -14.352   5.359  1.00  0.00     0.035 A 
ENDROOT
BRANCH   1  12
HETATM   12  C   UNL     1      41.576 -16.578   4.399  1.00  0.00     0.260 C 
HETATM   13  N   UNL     1      42.371 -17.019   3.364  1.00  0.00    -0.323 N 
HETATM   14  H   UNL     1      42.567 -16.344   2.624  1.00  0.00     0.169 HD
HETATM   15  O   UNL     1      41.187 -17.268   5.340  1.00  0.00    -0.267 OA
BRANCH  13  16
HETATM   16  C   UNL     1      42.993 -18.274   3.211  1.00  0.00     0.035 A 
HETATM   17  C   UNL     1      43.915 -18.808   4.110  1.00  0.00     0.030 A 
HETATM   18  C   UNL     1      44.518 -20.047   3.855  1.00  0.00     0.009 A 
HETATM   19  C   UNL     1      44.199 -20.774   2.704  1.00  0.00    -0.062 A 
HETATM   20  C   UNL     1      44.887 -22.075   2.415  1.00  0.00     0.048 C 
HETATM   21  C   UNL     1      43.276 -20.239   1.803  1.00  0.00     0.009 A 
HETATM   22  C   UNL     1      42.675 -19.002   2.058  1.00  0.00     0.030 A 
ENDBRANCH  13  16
ENDBRANCH   1  12
BRANCH   3  23
HETATM   23  C   UNL     1      39.353 -14.580   1.143  1.00  0.00     0.093 A 
HETATM   24  C   UNL     1      40.037 -14.055   0.033  1.00  0.00     0.097 A 
HETATM   25  C   UNL     1      39.353 -13.327  -0.945  1.00  0.00     0.039 A 
HETATM   26  C   UNL     1      37.974 -13.139  -0.841  1.00  0.00     0.003 A 
HETATM   27  C   UNL     1      37.284 -13.659   0.251  1.00  0.00     0.002 A 
HETATM   28  C   UNL     1      37.971 -14.365   1.240  1.00  0.00     0.034 A 
BRANCH  24  29
HETATM   29  O   UNL     1      41.398 -14.136  -0.118  1.00  0.00    -0.354 OA
HETATM   30  C   UNL     1      42.018 -12.852  -0.068  1.00  0.00     0.210 C 
ENDBRANCH  24  29
ENDBRANCH   3  23
TORSDOF 4
ENDMDL
MODEL 7
REMARK VINA RESULT:      -8.8      2.433      8.408
REMARK  4 active torsions:
REMARK  status: ('A' for Active; 'I' for Inactive)
REMARK    1  A    between atoms: C_5  and  N_6 
REMARK       I    between atoms: N_6  and  C_7 
REMARK    2  A    between atoms: C_7  and  C_8 
REMARK    3  A    between atoms: N_10  and  C_11 
REMARK    4  A    between atoms: C_12  and  O_13 
ROOT
HETATM    1  C   UNL     1      40.487 -14.709   2.023  1.00  0.00     0.086 A 
HETATM    2  C   UNL     1      40.668 -13.957   0.754  1.00  0.00     0.186 A 
HETATM    3  N   UNL     1      41.159 -14.518  -0.311  1.00  0.00    -0.221 NA
HETATM    4  O   UNL     1      40.284 -12.621   0.736  1.00  0.00    -0.290 OA
HETATM    5  C   UNL     1      39.699 -12.005   1.854  1.00  0.00     0.088 A 
HETATM    6  C   UNL     1      39.494 -12.720   3.027  1.00  0.00    -0.001 A 
HETATM    7  C   UNL     1      39.337 -10.666   1.736  1.00  0.00     0.038 A 
HETATM    8  C   UNL     1      38.752 -10.026   2.827  1.00  0.00     0.003 A 
HETATM    9  C   UNL     1      38.535 -10.729   4.015  1.00  0.00     0.001 A 
HETATM   10  C   UNL     1      38.906 -12.074   4.116  1.00  0.00     0.014 A 
HETATM   11  C   UNL     1      39.921 -14.108   3.084  1.00  0.00     0.035 A 
ENDROOT
BRANCH   1  12
HETATM   12  C   UNL     1      40.939 -16.134   2.224  1.00  0.00     0.260 C 
HETATM   13  N   UNL     1      42.287 -16.283   2.461  1.00  0.00    -0.323 N 
HETATM   14  H   UNL     1      42.854 -15.435   2.409  1.00  0.00     0.169 HD
HETATM   15  O   UNL     1      40.119 -17.049   2.183  1.00  0.00    -0.267 OA
BRANCH  13  16
HETATM   16  C   UNL     1      42.990 -17.453   2.813  1.00  0.00     0.035 A 
HETATM   17  C   UNL     1      43.348 -18.455   1.911  1.00  0.00     0.030 A 
HETATM   18  C   UNL     1      44.009 -19.607   2.357  1.00  0.00     0.009 A 
HETATM   19  C   UNL     1      44.332 -19.768   3.708  1.00  0.00    -0.062 A 
HETATM   20  C   UNL     1      44.994 -21.027   4.182  1.00  0.00     0.048 C 
HETATM   21  C   UNL     1      43.973 -18.766   4.611  1.00  0.00     0.009 A 
HETATM   22  C   UNL     1      43.313 -17.616   4.165  1.00  0.00     0.030 A 
ENDBRANCH  13  16
ENDBRANCH   1  12
BRANCH   3  23
HETATM   23  C   UNL     1      41.323 -13.736  -1.469  1.00  0.00     0.093 A 
HETATM   24  C   UNL     1      40.448 -13.823  -2.565  1.00  0.00     0.097 A 
HETATM   25  C   UNL     1      40.703 -13.106  -3.738  1.00  0.00     0.039 A 
HETATM   26  C   UNL     1      41.819 -12.274  -3.820  1.00  0.00     0.003 A 
HETATM   27  C   UNL     1      42.692 -12.175  -2.739  1.00  0.00     0.002 A 
HETATM   28  C   UNL     1      42.449 -12.909  -1.576  1.00  0.00     0.034 A 
BRANCH  24  29
HETATM   29  O   UNL     1      39.363 -14.663  -2.596  1.00  0.00    -0.354 OA
HETATM   30  C   UNL     1      39.392 -15.529  -3.729  1.00  0.00     0.210 C 
ENDBRANCH  24  29
ENDBRANCH   3  23
TORSDOF 4
ENDMDL
MODEL 8
REMARK VINA RESULT:      -8.6      1.781      2.675
REMARK  4 active torsions:
REMARK  status: ('A' for Active; 'I' for Inactive)
REMARK    1  A    between atoms: C_5  and  N_6 
REMARK       I    between atoms: N_6  and  C_7 
REMARK    2  A    between atoms: C_7  and  C_8 
REMARK    3  A    between atoms: N_10  and  C_11 
REMARK    4  A    between atoms: C_12  and  O_13 
ROOT
HETATM    1  C   UNL     1      41.949 -16.143   0.835  1.00  0.00     0.086 A 
HETATM    2  C   UNL     1      41.718 -15.506   2.157  1.00  0.00     0.186 A 
HETATM    3  N   UNL     1      41.077 -14.380   2.273  1.00  0.00    -0.221 NA
HETATM    4  O   UNL     1      42.205 -16.160   3.283  1.00  0.00    -0.290 OA
HETATM    5  C   UNL     1      42.850 -17.404   3.192  1.00  0.00     0.088 A 
HETATM    6  C   UNL     1      43.031 -18.017   1.959  1.00  0.00    -0.001 A 
HETATM    7  C   UNL     1      43.294 -17.988   4.375  1.00  0.00     0.038 A 
HETATM    8  C   UNL     1      43.936 -19.223   4.320  1.00  0.00     0.003 A 
HETATM    9  C   UNL     1      44.125 -19.857   3.089  1.00  0.00     0.001 A 
HETATM   10  C   UNL     1      43.673 -19.255   1.910  1.00  0.00     0.014 A 
HETATM   11  C   UNL     1      42.564 -17.336   0.763  1.00  0.00     0.035 A 
ENDROOT
BRANCH   1  12
HETATM   12  C   UNL     1      41.562 -15.510  -0.479  1.00  0.00     0.260 C 
HETATM   13  N   UNL     1      41.816 -14.159  -0.566  1.00  0.00    -0.323 N 
HETATM   14  H   UNL     1      42.172 -13.709   0.279  1.00  0.00     0.169 HD
HETATM   15  O   UNL     1      41.074 -16.200  -1.372  1.00  0.00    -0.267 OA
BRANCH  13  16
HETATM   16  C   UNL     1      41.693 -13.315  -1.687  1.00  0.00     0.035 A 
HETATM   17  C   UNL     1      42.770 -12.826  -2.424  1.00  0.00     0.030 A 
HETATM   18  C   UNL     1      42.557 -11.955  -3.500  1.00  0.00     0.009 A 
HETATM   19  C   UNL     1      41.262 -11.570  -3.862  1.00  0.00    -0.062 A 
HETATM   20  C   UNL     1      41.047 -10.597  -4.983  1.00  0.00     0.048 C 
HETATM   21  C   UNL     1      40.182 -12.059  -3.123  1.00  0.00     0.009 A 
HETATM   22  C   UNL     1      40.397 -12.928  -2.049  1.00  0.00     0.030 A 
ENDBRANCH  13  16
ENDBRANCH   1  12
BRANCH   3  23
HETATM   23  C   UNL     1      40.917 -13.825   3.557  1.00  0.00     0.093 A 
HETATM   24  C   UNL     1      41.977 -13.219   4.251  1.00  0.00     0.097 A 
HETATM   25  C   UNL     1      41.804 -12.772   5.565  1.00  0.00     0.039 A 
HETATM   26  C   UNL     1      40.563 -12.899   6.189  1.00  0.00     0.003 A 
HETATM   27  C   UNL     1      39.502 -13.494   5.509  1.00  0.00     0.002 A 
HETATM   28  C   UNL     1      39.683 -13.962   4.206  1.00  0.00     0.034 A 
BRANCH  24  29
HETATM   29  O   UNL     1      43.246 -13.110   3.740  1.00  0.00    -0.354 OA
HETATM   30  C   UNL     1      44.192 -13.863   4.497  1.00  0.00     0.210 C 
ENDBRANCH  24  29
ENDBRANCH   3  23
TORSDOF 4
ENDMDL
MODEL 9
REMARK VINA RESULT:      -8.3      2.318      7.232
REMARK  4 active torsions:
REMARK  status: ('A' for Active; 'I' for Inactive)
REMARK    1  A    between atoms: C_5  and  N_6 
REMARK       I    between atoms: N_6  and  C_7 
REMARK    2  A    between atoms: C_7  and  C_8 
REMARK    3  A    between atoms: N_10  and  C_11 
REMARK    4  A    between atoms: C_12  and  O_13 
ROOT
HETATM    1  C   UNL     1      41.379 -15.672   0.390  1.00  0.00     0.086 A 
HETATM    2  C   UNL     1      41.010 -14.415   1.092  1.00  0.00     0.186 A 
HETATM    3  N   UNL     1      40.957 -14.344   2.389  1.00  0.00    -0.221 NA
HETATM    4  O   UNL     1      40.728 -13.300   0.311  1.00  0.00    -0.290 OA
HETATM    5  C   UNL     1      40.832 -13.333  -1.088  1.00  0.00     0.088 A 
HETATM    6  C   UNL     1      41.215 -14.498  -1.740  1.00  0.00    -0.001 A 
HETATM    7  C   UNL     1      40.539 -12.163  -1.784  1.00  0.00     0.038 A 
HETATM    8  C   UNL     1      40.635 -12.162  -3.174  1.00  0.00     0.003 A 
HETATM    9  C   UNL     1      41.022 -13.323  -3.848  1.00  0.00     0.001 A 
HETATM   10  C   UNL     1      41.311 -14.490  -3.133  1.00  0.00     0.014 A 
HETATM   11  C   UNL     1      41.480 -15.688  -0.950  1.00  0.00     0.035 A 
ENDROOT
BRANCH   1  12
HETATM   12  C   UNL     1      41.623 -16.984   1.095  1.00  0.00     0.260 C 
HETATM   13  N   UNL     1      42.859 -17.097   1.691  1.00  0.00    -0.323 N 
HETATM   14  H   UNL     1      43.508 -16.323   1.540  1.00  0.00     0.169 HD
HETATM   15  O   UNL     1      40.742 -17.842   1.116  1.00  0.00    -0.267 OA
BRANCH  13  16
HETATM   16  C   UNL     1      43.339 -18.127   2.524  1.00  0.00     0.035 A 
HETATM   17  C   UNL     1      43.436 -18.034   3.911  1.00  0.00     0.030 A 
HETATM   18  C   UNL     1      43.967 -19.093   4.659  1.00  0.00     0.009 A 
HETATM   19  C   UNL     1      44.398 -20.266   4.030  1.00  0.00    -0.062 A 
HETATM   20  C   UNL     1      45.011 -21.374   4.833  1.00  0.00     0.048 C 
HETATM   21  C   UNL     1      44.302 -20.359   2.640  1.00  0.00     0.009 A 
HETATM   22  C   UNL     1      43.772 -19.301   1.895  1.00  0.00     0.030 A 
ENDBRANCH  13  16
ENDBRANCH   1  12
BRANCH   3  23
HETATM   23  C   UNL     1      40.577 -13.126   2.982  1.00  0.00     0.093 A 
HETATM   24  C   UNL     1      39.281 -12.599   2.853  1.00  0.00     0.097 A 
HETATM   25  C   UNL     1      38.971 -11.337   3.369  1.00  0.00     0.039 A 
HETATM   26  C   UNL     1      39.943 -10.600   4.045  1.00  0.00     0.003 A 
HETATM   27  C   UNL     1      41.231 -11.114   4.185  1.00  0.00     0.002 A 
HETATM   28  C   UNL     1      41.546 -12.364   3.648  1.00  0.00     0.034 A 
BRANCH  24  29
HETATM   29  O   UNL     1      38.281 -13.224   2.150  1.00  0.00    -0.354 OA
HETATM   30  C   UNL     1      37.616 -12.330   1.260  1.00  0.00     0.210 C 
ENDBRANCH  24  29
ENDBRANCH   3  23
TORSDOF 4
ENDMDL
MODEL 10
REMARK VINA RESULT:      -8.3      2.238      3.015
REMARK  4 active torsions:
REMARK  status: ('A' for Active; 'I' for Inactive)
REMARK    1  A    between atoms: C_5  and  N_6 
REMARK       I    between atoms: N_6  and  C_7 
REMARK    2  A    between atoms: C_7  and  C_8 
REMARK    3  A    between atoms: N_10  and  C_11 
REMARK    4  A    between atoms: C_12  and  O_13 
ROOT
HETATM    1  C   UNL     1      41.775 -15.881   0.700  1.00  0.00     0.086 A 
HETATM    2  C   UNL     1      41.458 -15.289   2.025  1.00  0.00     0.186 A 
HETATM    3  N   UNL     1      40.736 -14.215   2.142  1.00  0.00    -0.221 NA
HETATM    4  O   UNL     1      41.957 -15.930   3.153  1.00  0.00    -0.290 OA
HETATM    5  C   UNL     1      42.692 -17.122   3.061  1.00  0.00     0.088 A 
HETATM    6  C   UNL     1      42.954 -17.696   1.822  1.00  0.00    -0.001 A 
HETATM    7  C   UNL     1      43.140 -17.697   4.246  1.00  0.00     0.038 A 
HETATM    8  C   UNL     1      43.871 -18.882   4.189  1.00  0.00     0.003 A 
HETATM    9  C   UNL     1      44.142 -19.476   2.953  1.00  0.00     0.001 A 
HETATM   10  C   UNL     1      43.685 -18.884   1.771  1.00  0.00     0.014 A 
HETATM   11  C   UNL     1      42.475 -17.025   0.625  1.00  0.00     0.035 A 
ENDROOT
BRANCH   1  12
HETATM   12  C   UNL     1      41.383 -15.250  -0.614  1.00  0.00     0.260 C 
HETATM   13  N   UNL     1      41.523 -13.881  -0.661  1.00  0.00    -0.323 N 
HETATM   14  H   UNL     1      41.808 -13.424   0.207  1.00  0.00     0.169 HD
HETATM   15  O   UNL     1      40.990 -15.957  -1.541  1.00  0.00    -0.267 OA
BRANCH  13  16
HETATM   16  C   UNL     1      41.369 -13.022  -1.768  1.00  0.00     0.035 A 
HETATM   17  C   UNL     1      40.142 -12.542  -2.223  1.00  0.00     0.030 A 
HETATM   18  C   UNL     1      40.077 -11.726  -3.360  1.00  0.00     0.009 A 
HETATM   19  C   UNL     1      41.240 -11.370  -4.052  1.00  0.00    -0.062 A 
HETATM   20  C   UNL     1      41.155 -10.539  -5.297  1.00  0.00     0.048 C 
HETATM   21  C   UNL     1      42.469 -11.853  -3.597  1.00  0.00     0.009 A 
HETATM   22  C   UNL     1      42.532 -12.667  -2.462  1.00  0.00     0.030 A 
ENDBRANCH  13  16
ENDBRANCH   1  12
BRANCH   3  23
HETATM   23  C   UNL     1      40.498 -13.699   3.429  1.00  0.00     0.093 A 
HETATM   24  C   UNL     1      40.851 -12.388   3.791  1.00  0.00     0.097 A 
HETATM   25  C   UNL     1      40.692 -11.946   5.108  1.00  0.00     0.039 A 
HETATM   26  C   UNL     1      40.153 -12.799   6.071  1.00  0.00     0.003 A 
HETATM   27  C   UNL     1      39.794 -14.099   5.724  1.00  0.00     0.002 A 
HETATM   28  C   UNL     1      39.975 -14.547   4.414  1.00  0.00     0.034 A 
BRANCH  24  29
HETATM   29  O   UNL     1      41.445 -11.503   2.926  1.00  0.00    -0.354 OA
HETATM   30  C   UNL     1      40.547 -10.475   2.514  1.00  0.00     0.210 C 
ENDBRANCH  24  29
ENDBRANCH   3  23
TORSDOF 4
ENDMDL
