MODEL 1
REMARK VINA RESULT:      -8.8      0.000      0.000
REMARK  3 active torsions:
REMARK  status: ('A' for Active; 'I' for Inactive)
REMARK    1  A    between atoms: N_8  and  C_9 
REMARK    2  A    between atoms: C_18  and  C_19 
REMARK    3  A    between atoms: C_19  and  C_20 
ROOT
HETATM    1  C   UNL     1      41.105 -17.817   4.972  1.00  0.00     0.069 C 
HETATM    2  C   UNL     1      41.296 -17.102   3.659  1.00  0.00     0.017 A 
HETATM    3  N   UNL     1      40.162 -16.510   3.123  1.00  0.00    -0.348 N 
HETATM    4  C   UNL     1      40.192 -15.758   1.986  1.00  0.00     0.119 A 
HETATM    5  C   UNL     1      41.326 -15.612   1.288  1.00  0.00     0.124 A 
HETATM    6  C   UNL     1      40.995 -14.823   0.091  1.00  0.00     0.280 A 
HETATM    7  O   UNL     1      41.782 -14.516  -0.786  1.00  0.00    -0.265 OA
HETATM    8  N   UNL     1      39.624 -14.541   0.204  1.00  0.00    -0.236 N 
HETATM    9  N   UNL     1      39.128 -15.098   1.401  1.00  0.00    -0.179 NA
HETATM   10  C   UNL     1      42.570 -16.229   1.746  1.00  0.00     0.199 A 
HETATM   11  O   UNL     1      43.623 -16.106   1.132  1.00  0.00    -0.287 OA
HETATM   12  C   UNL     1      42.498 -17.029   3.031  1.00  0.00     0.020 A 
HETATM   13  H   UNL     1      39.320 -16.469   3.689  1.00  0.00     0.167 HD
HETATM   14  H   UNL     1      38.356 -15.743   1.234  1.00  0.00     0.155 HD
ENDROOT
BRANCH  12  15
HETATM   15  C   UNL     1      43.804 -17.618   3.515  1.00  0.00     0.085 C 
BRANCH  15  16
HETATM   16  C   UNL     1      43.951 -19.106   3.249  1.00  0.00    -0.032 A 
HETATM   17  C   UNL     1      44.460 -20.017   4.191  1.00  0.00     0.040 A 
HETATM   18 CL   UNL     1      44.991 -19.533   5.764  1.00  0.00    -0.084 Cl
HETATM   19  C   UNL     1      44.578 -21.377   3.880  1.00  0.00     0.024 A 
HETATM   20  C   UNL     1      44.201 -21.851   2.624  1.00  0.00     0.002 A 
HETATM   21  C   UNL     1      43.712 -20.963   1.674  1.00  0.00     0.001 A 
HETATM   22  C   UNL     1      43.593 -19.605   1.981  1.00  0.00     0.009 A 
ENDBRANCH  15  16
ENDBRANCH  12  15
BRANCH   8  23
HETATM   23  C   UNL     1      38.785 -13.782  -0.641  1.00  0.00     0.055 A 
HETATM   24  C   UNL     1      38.065 -12.683  -0.156  1.00  0.00     0.031 A 
HETATM   25  C   UNL     1      37.241 -11.933  -1.001  1.00  0.00     0.002 A 
HETATM   26  C   UNL     1      37.119 -12.273  -2.344  1.00  0.00     0.000 A 
HETATM   27  C   UNL     1      37.822 -13.366  -2.844  1.00  0.00     0.002 A 
HETATM   28  C   UNL     1      38.648 -14.114  -1.999  1.00  0.00     0.031 A 
ENDBRANCH   8  23
TORSDOF 3
ENDMDL
MODEL 2
REMARK VINA RESULT:      -8.6      1.919      2.539
REMARK  3 active torsions:
REMARK  status: ('A' for Active; 'I' for Inactive)
REMARK    1  A    between atoms: N_8  and  C_9 
REMARK    2  A    between atoms: C_18  and  C_19 
REMARK    3  A    between atoms: C_19  and  C_20 
ROOT
HETATM    1  C   UNL     1      42.847 -18.100   7.345  1.00  0.00     0.069 C 
HETATM    2  C   UNL     1      42.651 -17.589   5.940  1.00  0.00     0.017 A 
HETATM    3  N   UNL     1      41.523 -16.812   5.733  1.00  0.00    -0.348 N 
HETATM    4  C   UNL     1      41.253 -16.209   4.539  1.00  0.00     0.119 A 
HETATM    5  C   UNL     1      42.048 -16.401   3.478  1.00  0.00     0.124 A 
HETATM    6  C   UNL     1      41.434 -15.686   2.347  1.00  0.00     0.280 A 
HETATM    7  O   UNL     1      41.873 -15.662   1.212  1.00  0.00    -0.265 OA
HETATM    8  N   UNL     1      40.280 -15.085   2.875  1.00  0.00    -0.236 N 
HETATM    9  N   UNL     1      40.181 -15.385   4.250  1.00  0.00    -0.179 NA
HETATM   10  C   UNL     1      43.243 -17.238   3.580  1.00  0.00     0.199 A 
HETATM   11  O   UNL     1      43.990 -17.425   2.628  1.00  0.00    -0.287 OA
HETATM   12  C   UNL     1      43.521 -17.861   4.933  1.00  0.00     0.020 A 
HETATM   13  H   UNL     1      40.978 -16.518   6.538  1.00  0.00     0.167 HD
HETATM   14  H   UNL     1      39.303 -15.850   4.480  1.00  0.00     0.155 HD
ENDROOT
BRANCH  12  15
HETATM   15  C   UNL     1      44.788 -18.681   5.033  1.00  0.00     0.085 C 
BRANCH  15  16
HETATM   16  C   UNL     1      44.665 -20.085   4.467  1.00  0.00    -0.032 A 
HETATM   17  C   UNL     1      44.440 -21.224   5.259  1.00  0.00     0.040 A 
HETATM   18 CL   UNL     1      44.292 -21.150   6.980  1.00  0.00    -0.084 Cl
HETATM   19  C   UNL     1      44.344 -22.494   4.676  1.00  0.00     0.024 A 
HETATM   20  C   UNL     1      44.482 -22.651   3.298  1.00  0.00     0.002 A 
HETATM   21  C   UNL     1      44.721 -21.539   2.500  1.00  0.00     0.001 A 
HETATM   22  C   UNL     1      44.817 -20.271   3.079  1.00  0.00     0.009 A 
ENDBRANCH  15  16
ENDBRANCH  12  15
BRANCH   8  23
HETATM   23  C   UNL     1      39.331 -14.246   2.250  1.00  0.00     0.055 A 
HETATM   24  C   UNL     1      39.305 -12.868   2.498  1.00  0.00     0.031 A 
HETATM   25  C   UNL     1      38.366 -12.042   1.870  1.00  0.00     0.002 A 
HETATM   26  C   UNL     1      37.436 -12.583   0.989  1.00  0.00     0.000 A 
HETATM   27  C   UNL     1      37.442 -13.951   0.734  1.00  0.00     0.002 A 
HETATM   28  C   UNL     1      38.383 -14.776   1.360  1.00  0.00     0.031 A 
ENDBRANCH   8  23
TORSDOF 3
ENDMDL
MODEL 3
REMARK VINA RESULT:      -8.4      2.777      3.072
REMARK  3 active torsions:
REMARK  status: ('A' for Active; 'I' for Inactive)
REMARK    1  A    between atoms: N_8  and  C_9 
REMARK    2  A    between atoms: C_18  and  C_19 
REMARK    3  A    between atoms: C_19  and  C_20 
ROOT
HETATM    1  C   UNL     1      43.405 -15.274   5.771  1.00  0.00     0.069 C 
HETATM    2  C   UNL     1      42.732 -15.149   4.428  1.00  0.00     0.017 A 
HETATM    3  N   UNL     1      42.928 -13.948   3.764  1.00  0.00    -0.348 N 
HETATM    4  C   UNL     1      42.454 -13.717   2.506  1.00  0.00     0.119 A 
HETATM    5  C   UNL     1      41.708 -14.633   1.874  1.00  0.00     0.124 A 
HETATM    6  C   UNL     1      41.297 -14.040   0.591  1.00  0.00     0.280 A 
HETATM    7  O   UNL     1      40.587 -14.583  -0.237  1.00  0.00    -0.265 OA
HETATM    8  N   UNL     1      41.886 -12.765   0.569  1.00  0.00    -0.236 N 
HETATM    9  N   UNL     1      42.633 -12.574   1.750  1.00  0.00    -0.179 NA
HETATM   10  C   UNL     1      41.409 -15.918   2.504  1.00  0.00     0.199 A 
HETATM   11  O   UNL     1      40.736 -16.776   1.946  1.00  0.00    -0.287 OA
HETATM   12  C   UNL     1      41.983 -16.145   3.888  1.00  0.00     0.020 A 
HETATM   13  H   UNL     1      43.604 -13.289   4.137  1.00  0.00     0.167 HD
HETATM   14  H   UNL     1      42.326 -11.751   2.270  1.00  0.00     0.155 HD
ENDROOT
BRANCH  12  15
HETATM   15  C   UNL     1      41.706 -17.499   4.503  1.00  0.00     0.085 C 
BRANCH  15  16
HETATM   16  C   UNL     1      42.836 -18.499   4.337  1.00  0.00    -0.032 A 
HETATM   17  C   UNL     1      43.567 -19.030   5.413  1.00  0.00     0.040 A 
HETATM   18 CL   UNL     1      43.264 -18.585   7.057  1.00  0.00    -0.084 Cl
HETATM   19  C   UNL     1      44.605 -19.944   5.192  1.00  0.00     0.024 A 
HETATM   20  C   UNL     1      44.938 -20.336   3.897  1.00  0.00     0.002 A 
HETATM   21  C   UNL     1      44.238 -19.809   2.818  1.00  0.00     0.001 A 
HETATM   22  C   UNL     1      43.202 -18.898   3.035  1.00  0.00     0.009 A 
ENDBRANCH  15  16
ENDBRANCH  12  15
BRANCH   8  23
HETATM   23  C   UNL     1      41.860 -11.775  -0.437  1.00  0.00     0.055 A 
HETATM   24  C   UNL     1      40.761 -10.921  -0.589  1.00  0.00     0.031 A 
HETATM   25  C   UNL     1      40.746  -9.937  -1.584  1.00  0.00     0.002 A 
HETATM   26  C   UNL     1      41.828  -9.797  -2.447  1.00  0.00     0.000 A 
HETATM   27  C   UNL     1      42.928 -10.641  -2.315  1.00  0.00     0.002 A 
HETATM   28  C   UNL     1      42.943 -11.621  -1.318  1.00  0.00     0.031 A 
ENDBRANCH   8  23
TORSDOF 3
ENDMDL
MODEL 4
REMARK VINA RESULT:      -8.3      3.299      7.910
REMARK  3 active torsions:
REMARK  status: ('A' for Active; 'I' for Inactive)
REMARK    1  A    between atoms: N_8  and  C_9 
REMARK    2  A    between atoms: C_18  and  C_19 
REMARK    3  A    between atoms: C_19  and  C_20 
ROOT
HETATM    1  C   UNL     1      37.485 -14.091   0.828  1.00  0.00     0.069 C 
HETATM    2  C   UNL     1      38.894 -14.458   1.217  1.00  0.00     0.017 A 
HETATM    3  N   UNL     1      39.031 -15.143   2.415  1.00  0.00    -0.348 N 
HETATM    4  C   UNL     1      40.231 -15.616   2.859  1.00  0.00     0.119 A 
HETATM    5  C   UNL     1      41.359 -15.376   2.178  1.00  0.00     0.124 A 
HETATM    6  C   UNL     1      42.465 -15.945   2.965  1.00  0.00     0.280 A 
HETATM    7  O   UNL     1      43.643 -15.891   2.659  1.00  0.00    -0.265 OA
HETATM    8  N   UNL     1      41.856 -16.519   4.092  1.00  0.00    -0.236 N 
HETATM    9  N   UNL     1      40.459 -16.341   4.013  1.00  0.00    -0.179 NA
HETATM   10  C   UNL     1      41.329 -14.627   0.922  1.00  0.00     0.199 A 
HETATM   11  O   UNL     1      42.344 -14.399   0.275  1.00  0.00    -0.287 OA
HETATM   12  C   UNL     1      39.971 -14.149   0.449  1.00  0.00     0.020 A 
HETATM   13  H   UNL     1      38.195 -15.475   2.885  1.00  0.00     0.167 HD
HETATM   14  H   UNL     1      40.088 -15.847   4.825  1.00  0.00     0.155 HD
ENDROOT
BRANCH  12  15
HETATM   15  C   UNL     1      39.953 -13.421  -0.876  1.00  0.00     0.085 C 
BRANCH  15  16
HETATM   16  C   UNL     1      39.546 -14.288  -2.056  1.00  0.00    -0.032 A 
HETATM   17  C   UNL     1      38.404 -14.048  -2.838  1.00  0.00     0.040 A 
HETATM   18 CL   UNL     1      37.320 -12.736  -2.529  1.00  0.00    -0.084 Cl
HETATM   19  C   UNL     1      38.079 -14.891  -3.908  1.00  0.00     0.024 A 
HETATM   20  C   UNL     1      38.880 -15.990  -4.210  1.00  0.00     0.002 A 
HETATM   21  C   UNL     1      40.005 -16.253  -3.438  1.00  0.00     0.001 A 
HETATM   22  C   UNL     1      40.332 -15.415  -2.370  1.00  0.00     0.009 A 
ENDBRANCH  15  16
ENDBRANCH  12  15
BRANCH   8  23
HETATM   23  C   UNL     1      42.433 -17.238   5.163  1.00  0.00     0.055 A 
HETATM   24  C   UNL     1      42.395 -16.746   6.473  1.00  0.00     0.031 A 
HETATM   25  C   UNL     1      42.962 -17.467   7.529  1.00  0.00     0.002 A 
HETATM   26  C   UNL     1      43.581 -18.689   7.290  1.00  0.00     0.000 A 
HETATM   27  C   UNL     1      43.635 -19.192   5.993  1.00  0.00     0.002 A 
HETATM   28  C   UNL     1      43.065 -18.472   4.938  1.00  0.00     0.031 A 
ENDBRANCH   8  23
TORSDOF 3
ENDMDL
MODEL 5
REMARK VINA RESULT:      -8.1      3.091      8.045
REMARK  3 active torsions:
REMARK  status: ('A' for Active; 'I' for Inactive)
REMARK    1  A    between atoms: N_8  and  C_9 
REMARK    2  A    between atoms: C_18  and  C_19 
REMARK    3  A    between atoms: C_19  and  C_20 
ROOT
HETATM    1  C   UNL     1      39.843 -14.043   5.454  1.00  0.00     0.069 C 
HETATM    2  C   UNL     1      40.711 -14.746   4.442  1.00  0.00     0.017 A 
HETATM    3  N   UNL     1      41.121 -16.026   4.783  1.00  0.00    -0.348 N 
HETATM    4  C   UNL     1      41.839 -16.819   3.937  1.00  0.00     0.119 A 
HETATM    5  C   UNL     1      42.244 -16.362   2.744  1.00  0.00     0.124 A 
HETATM    6  C   UNL     1      43.054 -17.426   2.130  1.00  0.00     0.280 A 
HETATM    7  O   UNL     1      43.606 -17.349   1.047  1.00  0.00    -0.265 OA
HETATM    8  N   UNL     1      43.038 -18.482   3.055  1.00  0.00    -0.236 N 
HETATM    9  N   UNL     1      42.255 -18.116   4.170  1.00  0.00    -0.179 NA
HETATM   10  C   UNL     1      41.899 -15.011   2.305  1.00  0.00     0.199 A 
HETATM   11  O   UNL     1      42.250 -14.569   1.218  1.00  0.00    -0.287 OA
HETATM   12  C   UNL     1      41.073 -14.176   3.263  1.00  0.00     0.020 A 
HETATM   13  H   UNL     1      40.716 -16.465   5.604  1.00  0.00     0.167 HD
HETATM   14  H   UNL     1      42.780 -18.171   5.043  1.00  0.00     0.155 HD
ENDROOT
BRANCH  12  15
HETATM   15  C   UNL     1      40.683 -12.800   2.771  1.00  0.00     0.085 C 
BRANCH  15  16
HETATM   16  C   UNL     1      39.370 -12.761   2.010  1.00  0.00    -0.032 A 
HETATM   17  C   UNL     1      38.643 -11.582   1.774  1.00  0.00     0.040 A 
HETATM   18 CL   UNL     1      39.165 -10.035   2.344  1.00  0.00    -0.084 Cl
HETATM   19  C   UNL     1      37.432 -11.615   1.071  1.00  0.00     0.024 A 
HETATM   20  C   UNL     1      36.921 -12.823   0.600  1.00  0.00     0.002 A 
HETATM   21  C   UNL     1      37.617 -14.003   0.838  1.00  0.00     0.001 A 
HETATM   22  C   UNL     1      38.825 -13.973   1.539  1.00  0.00     0.009 A 
ENDBRANCH  15  16
ENDBRANCH  12  15
BRANCH   8  23
HETATM   23  C   UNL     1      43.616 -19.767   2.970  1.00  0.00     0.055 A 
HETATM   24  C   UNL     1      44.376 -20.294   4.021  1.00  0.00     0.031 A 
HETATM   25  C   UNL     1      44.940 -21.571   3.932  1.00  0.00     0.002 A 
HETATM   26  C   UNL     1      44.758 -22.339   2.787  1.00  0.00     0.000 A 
HETATM   27  C   UNL     1      44.010 -21.831   1.729  1.00  0.00     0.002 A 
HETATM   28  C   UNL     1      43.444 -20.555   1.820  1.00  0.00     0.031 A 
ENDBRANCH   8  23
TORSDOF 3
ENDMDL
MODEL 6
REMARK VINA RESULT:      -8.1      2.313      3.381
REMARK  3 active torsions:
REMARK  status: ('A' for Active; 'I' for Inactive)
REMARK    1  A    between atoms: N_8  and  C_9 
REMARK    2  A    between atoms: C_18  and  C_19 
REMARK    3  A    between atoms: C_19  and  C_20 
ROOT
HETATM    1  C   UNL     1      43.961 -18.808   1.812  1.00  0.00     0.069 C 
HETATM    2  C   UNL     1      42.901 -17.742   1.712  1.00  0.00     0.017 A 
HETATM    3  N   UNL     1      42.836 -17.067   0.503  1.00  0.00    -0.348 N 
HETATM    4  C   UNL     1      41.877 -16.136   0.230  1.00  0.00     0.119 A 
HETATM    5  C   UNL     1      40.982 -15.778   1.161  1.00  0.00     0.124 A 
HETATM    6  C   UNL     1      40.158 -14.708   0.575  1.00  0.00     0.280 A 
HETATM    7  O   UNL     1      39.255 -14.126   1.149  1.00  0.00    -0.265 OA
HETATM    8  N   UNL     1      40.654 -14.533  -0.727  1.00  0.00    -0.236 N 
HETATM    9  N   UNL     1      41.707 -15.444  -0.954  1.00  0.00    -0.179 NA
HETATM   10  C   UNL     1      40.990 -16.401   2.484  1.00  0.00     0.199 A 
HETATM   11  O   UNL     1      40.179 -16.099   3.351  1.00  0.00    -0.287 OA
HETATM   12  C   UNL     1      42.051 -17.454   2.732  1.00  0.00     0.020 A 
HETATM   13  H   UNL     1      43.392 -17.406  -0.276  1.00  0.00     0.167 HD
HETATM   14  H   UNL     1      42.572 -14.972  -1.219  1.00  0.00     0.155 HD
ENDROOT
BRANCH  12  15
HETATM   15  C   UNL     1      42.012 -18.124   4.088  1.00  0.00     0.085 C 
BRANCH  15  16
HETATM   16  C   UNL     1      43.004 -17.557   5.089  1.00  0.00    -0.032 A 
HETATM   17  C   UNL     1      44.080 -18.292   5.615  1.00  0.00     0.040 A 
HETATM   18 CL   UNL     1      44.384 -19.939   5.187  1.00  0.00    -0.084 Cl
HETATM   19  C   UNL     1      44.956 -17.713   6.543  1.00  0.00     0.024 A 
HETATM   20  C   UNL     1      44.769 -16.400   6.968  1.00  0.00     0.002 A 
HETATM   21  C   UNL     1      43.700 -15.662   6.471  1.00  0.00     0.001 A 
HETATM   22  C   UNL     1      42.825 -16.236   5.546  1.00  0.00     0.009 A 
ENDBRANCH  15  16
ENDBRANCH  12  15
BRANCH   8  23
HETATM   23  C   UNL     1      40.214 -13.668  -1.752  1.00  0.00     0.055 A 
HETATM   24  C   UNL     1      38.922 -13.765  -2.282  1.00  0.00     0.031 A 
HETATM   25  C   UNL     1      38.492 -12.899  -3.292  1.00  0.00     0.002 A 
HETATM   26  C   UNL     1      39.349 -11.926  -3.794  1.00  0.00     0.000 A 
HETATM   27  C   UNL     1      40.641 -11.818  -3.285  1.00  0.00     0.002 A 
HETATM   28  C   UNL     1      41.069 -12.682  -2.272  1.00  0.00     0.031 A 
ENDBRANCH   8  23
TORSDOF 3
ENDMDL
MODEL 7
REMARK VINA RESULT:      -7.9      3.401      7.995
REMARK  3 active torsions:
REMARK  status: ('A' for Active; 'I' for Inactive)
REMARK    1  A    between atoms: N_8  and  C_9 
REMARK    2  A    between atoms: C_18  and  C_19 
REMARK    3  A    between atoms: C_19  and  C_20 
ROOT
HETATM    1  C   UNL     1      37.897 -14.299   0.999  1.00  0.00     0.069 C 
HETATM    2  C   UNL     1      39.234 -14.348   1.692  1.00  0.00     0.017 A 
HETATM    3  N   UNL     1      39.366 -15.310   2.682  1.00  0.00    -0.348 N 
HETATM    4  C   UNL     1      40.540 -15.533   3.340  1.00  0.00     0.119 A 
HETATM    5  C   UNL     1      41.617 -14.773   3.100  1.00  0.00     0.124 A 
HETATM    6  C   UNL     1      42.672 -15.220   4.024  1.00  0.00     0.280 A 
HETATM    7  O   UNL     1      43.786 -14.734   4.103  1.00  0.00    -0.265 OA
HETATM    8  N   UNL     1      42.099 -16.274   4.754  1.00  0.00    -0.236 N 
HETATM    9  N   UNL     1      40.778 -16.491   4.308  1.00  0.00    -0.179 NA
HETATM   10  C   UNL     1      41.571 -13.705   2.102  1.00  0.00     0.199 A 
HETATM   11  O   UNL     1      42.543 -13.000   1.857  1.00  0.00    -0.287 OA
HETATM   12  C   UNL     1      40.257 -13.514   1.373  1.00  0.00     0.020 A 
HETATM   13  H   UNL     1      38.630 -16.000   2.793  1.00  0.00     0.167 HD
HETATM   14  H   UNL     1      40.099 -16.410   5.064  1.00  0.00     0.155 HD
ENDROOT
BRANCH  12  15
HETATM   15  C   UNL     1      40.243 -12.439   0.309  1.00  0.00     0.085 C 
BRANCH  15  16
HETATM   16  C   UNL     1      40.803 -12.883  -1.031  1.00  0.00    -0.032 A 
HETATM   17  C   UNL     1      41.948 -12.321  -1.620  1.00  0.00     0.040 A 
HETATM   18 CL   UNL     1      42.843 -11.039  -0.881  1.00  0.00    -0.084 Cl
HETATM   19  C   UNL     1      42.408 -12.770  -2.864  1.00  0.00     0.024 A 
HETATM   20  C   UNL     1      41.731 -13.779  -3.545  1.00  0.00     0.002 A 
HETATM   21  C   UNL     1      40.586 -14.337  -2.987  1.00  0.00     0.001 A 
HETATM   22  C   UNL     1      40.125 -13.891  -1.747  1.00  0.00     0.009 A 
ENDBRANCH  15  16
ENDBRANCH  12  15
BRANCH   8  23
HETATM   23  C   UNL     1      42.669 -17.098   5.749  1.00  0.00     0.055 A 
HETATM   24  C   UNL     1      43.133 -18.385   5.450  1.00  0.00     0.031 A 
HETATM   25  C   UNL     1      43.702 -19.193   6.440  1.00  0.00     0.002 A 
HETATM   26  C   UNL     1      43.810 -18.729   7.746  1.00  0.00     0.000 A 
HETATM   27  C   UNL     1      43.349 -17.455   8.065  1.00  0.00     0.002 A 
HETATM   28  C   UNL     1      42.782 -16.647   7.074  1.00  0.00     0.031 A 
ENDBRANCH   8  23
TORSDOF 3
ENDMDL
MODEL 8
REMARK VINA RESULT:      -7.9      3.463      8.566
REMARK  3 active torsions:
REMARK  status: ('A' for Active; 'I' for Inactive)
REMARK    1  A    between atoms: N_8  and  C_9 
REMARK    2  A    between atoms: C_18  and  C_19 
REMARK    3  A    between atoms: C_19  and  C_20 
ROOT
HETATM    1  C   UNL     1      41.024 -14.092  -2.080  1.00  0.00     0.069 C 
HETATM    2  C   UNL     1      40.968 -14.817  -0.760  1.00  0.00     0.017 A 
HETATM    3  N   UNL     1      41.893 -15.836  -0.592  1.00  0.00    -0.348 N 
HETATM    4  C   UNL     1      42.023 -16.526   0.578  1.00  0.00     0.119 A 
HETATM    5  C   UNL     1      41.201 -16.291   1.610  1.00  0.00     0.124 A 
HETATM    6  C   UNL     1      41.555 -17.251   2.667  1.00  0.00     0.280 A 
HETATM    7  O   UNL     1      40.996 -17.342   3.746  1.00  0.00    -0.265 OA
HETATM    8  N   UNL     1      42.624 -17.996   2.145  1.00  0.00    -0.236 N 
HETATM    9  N   UNL     1      42.937 -17.525   0.853  1.00  0.00    -0.179 NA
HETATM   10  C   UNL     1      40.165 -15.263   1.520  1.00  0.00     0.199 A 
HETATM   11  O   UNL     1      39.405 -15.022   2.450  1.00  0.00    -0.287 OA
HETATM   12  C   UNL     1      40.078 -14.499   0.215  1.00  0.00     0.020 A 
HETATM   13  H   UNL     1      42.627 -15.948  -1.284  1.00  0.00     0.167 HD
HETATM   14  H   UNL     1      42.882 -18.263   0.151  1.00  0.00     0.155 HD
ENDROOT
BRANCH  12  15
HETATM   15  C   UNL     1      39.033 -13.406   0.159  1.00  0.00     0.085 C 
BRANCH  15  16
HETATM   16  C   UNL     1      39.591 -12.004   0.334  1.00  0.00    -0.032 A 
HETATM   17  C   UNL     1      39.458 -10.990  -0.630  1.00  0.00     0.040 A 
HETATM   18 CL   UNL     1      38.650 -11.236  -2.138  1.00  0.00    -0.084 Cl
HETATM   19  C   UNL     1      40.003  -9.718  -0.411  1.00  0.00     0.024 A 
HETATM   20  C   UNL     1      40.697  -9.440   0.765  1.00  0.00     0.002 A 
HETATM   21  C   UNL     1      40.854 -10.435   1.723  1.00  0.00     0.001 A 
HETATM   22  C   UNL     1      40.311 -11.704   1.507  1.00  0.00     0.009 A 
ENDBRANCH  15  16
ENDBRANCH  12  15
BRANCH   8  23
HETATM   23  C   UNL     1      43.384 -19.026   2.742  1.00  0.00     0.055 A 
HETATM   24  C   UNL     1      43.963 -18.864   4.006  1.00  0.00     0.031 A 
HETATM   25  C   UNL     1      44.709 -19.892   4.593  1.00  0.00     0.002 A 
HETATM   26  C   UNL     1      44.892 -21.096   3.922  1.00  0.00     0.000 A 
HETATM   27  C   UNL     1      44.329 -21.274   2.661  1.00  0.00     0.002 A 
HETATM   28  C   UNL     1      43.581 -20.247   2.076  1.00  0.00     0.031 A 
ENDBRANCH   8  23
TORSDOF 3
ENDMDL
MODEL 9
REMARK VINA RESULT:      -7.8      3.787      8.619
REMARK  3 active torsions:
REMARK  status: ('A' for Active; 'I' for Inactive)
REMARK    1  A    between atoms: N_8  and  C_9 
REMARK    2  A    between atoms: C_18  and  C_19 
REMARK    3  A    between atoms: C_19  and  C_20 
ROOT
HETATM    1  C   UNL     1      40.542 -14.876  -2.420  1.00  0.00     0.069 C 
HETATM    2  C   UNL     1      41.018 -14.977  -0.994  1.00  0.00     0.017 A 
HETATM    3  N   UNL     1      41.584 -16.189  -0.631  1.00  0.00    -0.348 N 
HETATM    4  C   UNL     1      42.136 -16.405   0.597  1.00  0.00     0.119 A 
HETATM    5  C   UNL     1      42.094 -15.460   1.546  1.00  0.00     0.124 A 
HETATM    6  C   UNL     1      42.695 -16.039   2.757  1.00  0.00     0.280 A 
HETATM    7  O   UNL     1      42.803 -15.469   3.828  1.00  0.00    -0.265 OA
HETATM    8  N   UNL     1      43.078 -17.340   2.391  1.00  0.00    -0.236 N 
HETATM    9  N   UNL     1      42.758 -17.559   1.035  1.00  0.00    -0.179 NA
HETATM   10  C   UNL     1      41.482 -14.159   1.277  1.00  0.00     0.199 A 
HETATM   11  O   UNL     1      41.436 -13.273   2.123  1.00  0.00    -0.287 OA
HETATM   12  C   UNL     1      40.911 -13.951  -0.110  1.00  0.00     0.020 A 
HETATM   13  H   UNL     1      41.771 -16.876  -1.354  1.00  0.00     0.167 HD
HETATM   14  H   UNL     1      42.143 -18.364   0.911  1.00  0.00     0.155 HD
ENDROOT
BRANCH  12  15
HETATM   15  C   UNL     1      40.327 -12.583  -0.386  1.00  0.00     0.085 C 
BRANCH  15  16
HETATM   16  C   UNL     1      41.255 -11.655  -1.151  1.00  0.00    -0.032 A 
HETATM   17  C   UNL     1      40.961 -11.141  -2.425  1.00  0.00     0.040 A 
HETATM   18 CL   UNL     1      39.504 -11.526  -3.273  1.00  0.00    -0.084 Cl
HETATM   19  C   UNL     1      41.864 -10.295  -3.082  1.00  0.00     0.024 A 
HETATM   20  C   UNL     1      43.077  -9.956  -2.486  1.00  0.00     0.002 A 
HETATM   21  C   UNL     1      43.393 -10.467  -1.232  1.00  0.00     0.001 A 
HETATM   22  C   UNL     1      42.495 -11.311  -0.575  1.00  0.00     0.009 A 
ENDBRANCH  15  16
ENDBRANCH  12  15
BRANCH   8  23
HETATM   23  C   UNL     1      43.739 -18.333   3.146  1.00  0.00     0.055 A 
HETATM   24  C   UNL     1      44.156 -19.535   2.561  1.00  0.00     0.031 A 
HETATM   25  C   UNL     1      44.817 -20.511   3.314  1.00  0.00     0.002 A 
HETATM   26  C   UNL     1      45.066 -20.304   4.666  1.00  0.00     0.000 A 
HETATM   27  C   UNL     1      44.654 -19.118   5.268  1.00  0.00     0.002 A 
HETATM   28  C   UNL     1      43.996 -18.141   4.514  1.00  0.00     0.031 A 
ENDBRANCH   8  23
TORSDOF 3
ENDMDL
MODEL 10
REMARK VINA RESULT:      -7.8      2.982      8.078
REMARK  3 active torsions:
REMARK  status: ('A' for Active; 'I' for Inactive)
REMARK    1  A    between atoms: N_8  and  C_9 
REMARK    2  A    between atoms: C_18  and  C_19 
REMARK    3  A    between atoms: C_19  and  C_20 
ROOT
HETATM    1  C   UNL     1      37.596 -14.380   0.987  1.00  0.00     0.069 C 
HETATM    2  C   UNL     1      39.046 -14.593   1.338  1.00  0.00     0.017 A 
HETATM    3  N   UNL     1      39.369 -15.846   1.836  1.00  0.00    -0.348 N 
HETATM    4  C   UNL     1      40.651 -16.217   2.119  1.00  0.00     0.119 A 
HETATM    5  C   UNL     1      41.663 -15.349   1.989  1.00  0.00     0.124 A 
HETATM    6  C   UNL     1      42.880 -16.036   2.449  1.00  0.00     0.280 A 
HETATM    7  O   UNL     1      43.991 -15.539   2.494  1.00  0.00    -0.265 OA
HETATM    8  N   UNL     1      42.460 -17.326   2.812  1.00  0.00    -0.236 N 
HETATM    9  N   UNL     1      41.074 -17.450   2.577  1.00  0.00    -0.179 NA
HETATM   10  C   UNL     1      41.423 -13.988   1.509  1.00  0.00     0.199 A 
HETATM   11  O   UNL     1      42.330 -13.176   1.373  1.00  0.00    -0.287 OA
HETATM   12  C   UNL     1      39.990 -13.629   1.175  1.00  0.00     0.020 A 
HETATM   13  H   UNL     1      38.666 -16.577   1.810  1.00  0.00     0.167 HD
HETATM   14  H   UNL     1      40.564 -17.711   3.422  1.00  0.00     0.155 HD
ENDROOT
BRANCH  12  15
HETATM   15  C   UNL     1      39.768 -12.235   0.632  1.00  0.00     0.085 C 
BRANCH  15  16
HETATM   16  C   UNL     1      40.181 -12.060  -0.819  1.00  0.00    -0.032 A 
HETATM   17  C   UNL     1      41.169 -11.155  -1.242  1.00  0.00     0.040 A 
HETATM   18 CL   UNL     1      42.017 -10.121  -0.145  1.00  0.00    -0.084 Cl
HETATM   19  C   UNL     1      41.498 -11.035  -2.598  1.00  0.00     0.024 A 
HETATM   20  C   UNL     1      40.843 -11.808  -3.555  1.00  0.00     0.002 A 
HETATM   21  C   UNL     1      39.851 -12.698  -3.158  1.00  0.00     0.001 A 
HETATM   22  C   UNL     1      39.521 -12.819  -1.806  1.00  0.00     0.009 A 
ENDBRANCH  15  16
ENDBRANCH  12  15
BRANCH   8  23
HETATM   23  C   UNL     1      43.213 -18.423   3.283  1.00  0.00     0.055 A 
HETATM   24  C   UNL     1      43.575 -18.532   4.632  1.00  0.00     0.031 A 
HETATM   25  C   UNL     1      44.315 -19.625   5.092  1.00  0.00     0.002 A 
HETATM   26  C   UNL     1      44.712 -20.624   4.210  1.00  0.00     0.000 A 
HETATM   27  C   UNL     1      44.368 -20.531   2.864  1.00  0.00     0.002 A 
HETATM   28  C   UNL     1      43.625 -19.439   2.405  1.00  0.00     0.031 A 
ENDBRANCH   8  23
TORSDOF 3
ENDMDL
