MODEL 1
REMARK VINA RESULT:      -9.5      0.000      0.000
REMARK  6 active torsions:
REMARK  status: ('A' for Active; 'I' for Inactive)
REMARK    1  A    between atoms: C_2  and  C_3 
REMARK    2  A    between atoms: C_7  and  C_8 
REMARK       I    between atoms: C_8  and  N_9 
REMARK    3  A    between atoms: N_9  and  C_10 
REMARK    4  A    between atoms: C_12  and  N_13 
REMARK       I    between atoms: N_13  and  C_14 
REMARK    5  A    between atoms: C_14  and  C_15 
REMARK    6  A    between atoms: C_23  and  O_24 
ROOT
HETATM    1  C   UNL     1      43.429 -14.253   5.613  1.00  0.00     0.037 A 
HETATM    2  C   UNL     1      43.467 -15.653   5.571  1.00  0.00     0.062 A 
HETATM    3  C   UNL     1      43.409 -16.335   4.352  1.00  0.00     0.070 A 
HETATM    4  C   UNL     1      43.277 -15.609   3.151  1.00  0.00     0.095 A 
HETATM    5  C   UNL     1      43.210 -14.216   3.195  1.00  0.00     0.041 A 
HETATM    6  C   UNL     1      43.293 -13.544   4.420  1.00  0.00     0.032 A 
ENDROOT
BRANCH   1   7
HETATM    7  N   UNL     1      43.532 -13.646   6.882  1.00  0.00    -0.322 N 
HETATM    8  C   UNL     1      44.685 -13.298   7.556  1.00  0.00     0.274 C 
HETATM    9  O   UNL     1      45.828 -13.522   7.171  1.00  0.00    -0.266 OA
HETATM   10  H   UNL     1      42.665 -13.555   7.395  1.00  0.00     0.169 HD
BRANCH   8  11
HETATM   11  C   UNL     1      44.452 -12.673   8.835  1.00  0.00     0.120 A 
HETATM   12  N   UNL     1      44.344 -13.413   9.983  1.00  0.00    -0.273 N 
HETATM   13  N   UNL     1      44.118 -12.684  11.087  1.00  0.00    -0.179 NA
HETATM   14  H   UNL     1      44.408 -14.423  10.063  1.00  0.00     0.189 HD
HETATM   15  C   UNL     1      44.117 -11.421  10.647  1.00  0.00     0.056 A 
HETATM   16  C   UNL     1      44.318 -11.361   9.246  1.00  0.00     0.065 A 
BRANCH  15  17
HETATM   17  C   UNL     1      43.942 -10.286  11.600  1.00  0.00     0.056 C 
HETATM   18  C   UNL     1      43.101 -10.662  12.810  1.00  0.00     0.011 C 
ENDBRANCH  15  17
ENDBRANCH   8  11
ENDBRANCH   1   7
BRANCH   3  19
HETATM   19  N   UNL     1      43.529 -17.740   4.240  1.00  0.00    -0.320 N 
HETATM   20  C   UNL     1      44.448 -18.567   4.852  1.00  0.00     0.256 C 
HETATM   21  O   UNL     1      45.223 -18.257   5.749  1.00  0.00    -0.267 OA
HETATM   22  H   UNL     1      42.831 -18.149   3.627  1.00  0.00     0.169 HD
BRANCH  20  23
HETATM   23  C   UNL     1      44.462 -19.974   4.357  1.00  0.00     0.035 A 
HETATM   24  C   UNL     1      44.333 -20.276   2.997  1.00  0.00     0.059 A 
HETATM   25  C   UNL     1      44.398 -21.602   2.585  1.00  0.00     0.117 A 
HETATM   26  F   UNL     1      44.277 -21.889   1.281  1.00  0.00    -0.206 F 
HETATM   27  C   UNL     1      44.596 -22.634   3.496  1.00  0.00     0.042 A 
HETATM   28  C   UNL     1      44.741 -22.337   4.850  1.00  0.00     0.004 A 
HETATM   29  C   UNL     1      44.678 -21.009   5.279  1.00  0.00     0.017 A 
ENDBRANCH  20  23
ENDBRANCH   3  19
BRANCH   4  30
HETATM   30  O   UNL     1      43.235 -16.367   2.004  1.00  0.00    -0.354 OA
HETATM   31  C   UNL     1      42.179 -16.092   1.089  1.00  0.00     0.210 C 
ENDBRANCH   4  30
TORSDOF 6
ENDMDL
MODEL 2
REMARK VINA RESULT:      -9.1      4.808      8.745
REMARK  6 active torsions:
REMARK  status: ('A' for Active; 'I' for Inactive)
REMARK    1  A    between atoms: C_2  and  C_3 
REMARK    2  A    between atoms: C_7  and  C_8 
REMARK       I    between atoms: C_8  and  N_9 
REMARK    3  A    between atoms: N_9  and  C_10 
REMARK    4  A    between atoms: C_12  and  N_13 
REMARK       I    between atoms: N_13  and  C_14 
REMARK    5  A    between atoms: C_14  and  C_15 
REMARK    6  A    between atoms: C_23  and  O_24 
ROOT
HETATM    1  C   UNL     1      39.906 -15.191   1.743  1.00  0.00     0.037 A 
HETATM    2  C   UNL     1      40.732 -16.320   1.814  1.00  0.00     0.062 A 
HETATM    3  C   UNL     1      41.333 -16.694   3.019  1.00  0.00     0.070 A 
HETATM    4  C   UNL     1      41.133 -15.908   4.172  1.00  0.00     0.095 A 
HETATM    5  C   UNL     1      40.334 -14.767   4.095  1.00  0.00     0.041 A 
HETATM    6  C   UNL     1      39.719 -14.416   2.887  1.00  0.00     0.032 A 
ENDROOT
BRANCH   1   7
HETATM    7  N   UNL     1      39.309 -14.909   0.496  1.00  0.00    -0.322 N 
HETATM    8  C   UNL     1      39.855 -14.202  -0.556  1.00  0.00     0.274 C 
HETATM    9  O   UNL     1      40.948 -13.647  -0.548  1.00  0.00    -0.266 OA
HETATM   10  H   UNL     1      38.334 -15.164   0.411  1.00  0.00     0.169 HD
BRANCH   8  11
HETATM   11  C   UNL     1      38.991 -14.103  -1.708  1.00  0.00     0.120 A 
HETATM   12  N   UNL     1      38.937 -15.096  -2.648  1.00  0.00    -0.273 N 
HETATM   13  N   UNL     1      38.094 -14.848  -3.662  1.00  0.00    -0.179 NA
HETATM   14  H   UNL     1      39.468 -15.963  -2.648  1.00  0.00     0.189 HD
HETATM   15  C   UNL     1      37.550 -13.667  -3.350  1.00  0.00     0.056 A 
HETATM   16  C   UNL     1      38.081 -13.157  -2.139  1.00  0.00     0.065 A 
BRANCH  15  17
HETATM   17  C   UNL     1      36.505 -13.058  -4.223  1.00  0.00     0.056 C 
HETATM   18  C   UNL     1      35.654 -14.100  -4.931  1.00  0.00     0.011 C 
ENDBRANCH  15  17
ENDBRANCH   8  11
ENDBRANCH   1   7
BRANCH   3  19
HETATM   19  N   UNL     1      42.106 -17.868   3.173  1.00  0.00    -0.320 N 
HETATM   20  C   UNL     1      43.343 -18.148   2.633  1.00  0.00     0.256 C 
HETATM   21  O   UNL     1      44.084 -17.358   2.061  1.00  0.00    -0.267 OA
HETATM   22  H   UNL     1      41.660 -18.562   3.765  1.00  0.00     0.169 HD
BRANCH  20  23
HETATM   23  C   UNL     1      43.799 -19.560   2.791  1.00  0.00     0.035 A 
HETATM   24  C   UNL     1      44.438 -19.999   3.956  1.00  0.00     0.059 A 
HETATM   25  C   UNL     1      44.803 -21.336   4.070  1.00  0.00     0.117 A 
HETATM   26  F   UNL     1      45.410 -21.756   5.188  1.00  0.00    -0.206 F 
HETATM   27  C   UNL     1      44.538 -22.247   3.053  1.00  0.00     0.042 A 
HETATM   28  C   UNL     1      43.889 -21.817   1.897  1.00  0.00     0.004 A 
HETATM   29  C   UNL     1      43.516 -20.477   1.768  1.00  0.00     0.017 A 
ENDBRANCH  20  23
ENDBRANCH   3  19
BRANCH   4  30
HETATM   30  O   UNL     1      41.759 -16.359   5.312  1.00  0.00    -0.354 OA
HETATM   31  C   UNL     1      40.922 -16.721   6.405  1.00  0.00     0.210 C 
ENDBRANCH   4  30
TORSDOF 6
ENDMDL
MODEL 3
REMARK VINA RESULT:      -8.5      2.470      2.736
REMARK  6 active torsions:
REMARK  status: ('A' for Active; 'I' for Inactive)
REMARK    1  A    between atoms: C_2  and  C_3 
REMARK    2  A    between atoms: C_7  and  C_8 
REMARK       I    between atoms: C_8  and  N_9 
REMARK    3  A    between atoms: N_9  and  C_10 
REMARK    4  A    between atoms: C_12  and  N_13 
REMARK       I    between atoms: N_13  and  C_14 
REMARK    5  A    between atoms: C_14  and  C_15 
REMARK    6  A    between atoms: C_23  and  O_24 
ROOT
HETATM    1  C   UNL     1      40.776 -14.331   4.961  1.00  0.00     0.037 A 
HETATM    2  C   UNL     1      41.471 -15.545   5.029  1.00  0.00     0.062 A 
HETATM    3  C   UNL     1      41.419 -16.461   3.974  1.00  0.00     0.070 A 
HETATM    4  C   UNL     1      40.631 -16.175   2.840  1.00  0.00     0.095 A 
HETATM    5  C   UNL     1      39.916 -14.979   2.786  1.00  0.00     0.041 A 
HETATM    6  C   UNL     1      39.995 -14.060   3.839  1.00  0.00     0.032 A 
ENDROOT
BRANCH   1   7
HETATM    7  N   UNL     1      40.916 -13.450   6.054  1.00  0.00    -0.322 N 
HETATM    8  C   UNL     1      41.357 -12.142   6.028  1.00  0.00     0.274 C 
HETATM    9  O   UNL     1      41.760 -11.548   5.034  1.00  0.00    -0.266 OA
HETATM   10  H   UNL     1      40.778 -13.861   6.968  1.00  0.00     0.169 HD
BRANCH   8  11
HETATM   11  C   UNL     1      41.369 -11.501   7.320  1.00  0.00     0.120 A 
HETATM   12  N   UNL     1      40.251 -11.462   8.109  1.00  0.00    -0.273 N 
HETATM   13  N   UNL     1      40.423 -10.820   9.275  1.00  0.00    -0.179 NA
HETATM   14  H   UNL     1      39.339 -11.851   7.890  1.00  0.00     0.189 HD
HETATM   15  C   UNL     1      41.712 -10.462   9.261  1.00  0.00     0.056 A 
HETATM   16  C   UNL     1      42.346 -10.860   8.059  1.00  0.00     0.065 A 
BRANCH  15  17
HETATM   17  C   UNL     1      42.315  -9.754  10.428  1.00  0.00     0.056 C 
HETATM   18  C   UNL     1      43.670 -10.320  10.820  1.00  0.00     0.011 C 
ENDBRANCH  15  17
ENDBRANCH   8  11
ENDBRANCH   1   7
BRANCH   3  19
HETATM   19  N   UNL     1      42.165 -17.662   3.947  1.00  0.00    -0.320 N 
HETATM   20  C   UNL     1      43.337 -17.920   3.266  1.00  0.00     0.256 C 
HETATM   21  O   UNL     1      44.046 -17.097   2.698  1.00  0.00    -0.267 OA
HETATM   22  H   UNL     1      41.755 -18.396   4.514  1.00  0.00     0.169 HD
BRANCH  20  23
HETATM   23  C   UNL     1      43.760 -19.350   3.252  1.00  0.00     0.035 A 
HETATM   24  C   UNL     1      43.594 -20.154   2.120  1.00  0.00     0.059 A 
HETATM   25  C   UNL     1      44.047 -21.469   2.146  1.00  0.00     0.117 A 
HETATM   26  F   UNL     1      43.892 -22.236   1.059  1.00  0.00    -0.206 F 
HETATM   27  C   UNL     1      44.669 -21.997   3.272  1.00  0.00     0.042 A 
HETATM   28  C   UNL     1      44.849 -21.195   4.397  1.00  0.00     0.004 A 
HETATM   29  C   UNL     1      44.400 -19.873   4.386  1.00  0.00     0.017 A 
ENDBRANCH  20  23
ENDBRANCH   3  19
BRANCH   4  30
HETATM   30  O   UNL     1      40.648 -17.132   1.852  1.00  0.00    -0.354 OA
HETATM   31  C   UNL     1      41.186 -16.746   0.591  1.00  0.00     0.210 C 
ENDBRANCH   4  30
TORSDOF 6
ENDMDL
MODEL 4
REMARK VINA RESULT:      -8.5      2.799      5.294
REMARK  6 active torsions:
REMARK  status: ('A' for Active; 'I' for Inactive)
REMARK    1  A    between atoms: C_2  and  C_3 
REMARK    2  A    between atoms: C_7  and  C_8 
REMARK       I    between atoms: C_8  and  N_9 
REMARK    3  A    between atoms: N_9  and  C_10 
REMARK    4  A    between atoms: C_12  and  N_13 
REMARK       I    between atoms: N_13  and  C_14 
REMARK    5  A    between atoms: C_14  and  C_15 
REMARK    6  A    between atoms: C_23  and  O_24 
ROOT
HETATM    1  C   UNL     1      43.890 -15.280   6.535  1.00  0.00     0.037 A 
HETATM    2  C   UNL     1      43.194 -14.924   5.373  1.00  0.00     0.062 A 
HETATM    3  C   UNL     1      42.871 -15.883   4.408  1.00  0.00     0.070 A 
HETATM    4  C   UNL     1      43.278 -17.220   4.589  1.00  0.00     0.095 A 
HETATM    5  C   UNL     1      43.997 -17.570   5.733  1.00  0.00     0.041 A 
HETATM    6  C   UNL     1      44.294 -16.604   6.703  1.00  0.00     0.032 A 
ENDROOT
BRANCH   1   7
HETATM    7  N   UNL     1      44.141 -14.257   7.473  1.00  0.00    -0.322 N 
HETATM    8  C   UNL     1      45.188 -13.359   7.478  1.00  0.00     0.274 C 
HETATM    9  O   UNL     1      46.118 -13.348   6.678  1.00  0.00    -0.266 OA
HETATM   10  H   UNL     1      43.542 -14.256   8.289  1.00  0.00     0.169 HD
BRANCH   8  11
HETATM   11  C   UNL     1      45.151 -12.418   8.571  1.00  0.00     0.120 A 
HETATM   12  N   UNL     1      46.082 -11.422   8.688  1.00  0.00    -0.273 N 
HETATM   13  N   UNL     1      45.916 -10.638   9.765  1.00  0.00    -0.179 NA
HETATM   14  H   UNL     1      46.861 -11.241   8.062  1.00  0.00     0.189 HD
HETATM   15  C   UNL     1      44.812 -11.119  10.349  1.00  0.00     0.056 A 
HETATM   16  C   UNL     1      44.299 -12.234   9.643  1.00  0.00     0.065 A 
BRANCH  15  17
HETATM   17  C   UNL     1      44.260 -10.472  11.574  1.00  0.00     0.056 C 
HETATM   18  C   UNL     1      43.246 -11.348  12.293  1.00  0.00     0.011 C 
ENDBRANCH  15  17
ENDBRANCH   8  11
ENDBRANCH   1   7
BRANCH   3  19
HETATM   19  N   UNL     1      42.097 -15.601   3.258  1.00  0.00    -0.320 N 
HETATM   20  C   UNL     1      42.167 -14.495   2.437  1.00  0.00     0.256 C 
HETATM   21  O   UNL     1      43.037 -13.633   2.449  1.00  0.00    -0.267 OA
HETATM   22  H   UNL     1      41.424 -16.329   3.046  1.00  0.00     0.169 HD
BRANCH  20  23
HETATM   23  C   UNL     1      41.067 -14.378   1.437  1.00  0.00     0.035 A 
HETATM   24  C   UNL     1      39.722 -14.488   1.809  1.00  0.00     0.059 A 
HETATM   25  C   UNL     1      38.733 -14.326   0.844  1.00  0.00     0.117 A 
HETATM   26  F   UNL     1      37.446 -14.428   1.203  1.00  0.00    -0.206 F 
HETATM   27  C   UNL     1      39.054 -14.050  -0.480  1.00  0.00     0.042 A 
HETATM   28  C   UNL     1      40.391 -13.925  -0.852  1.00  0.00     0.004 A 
HETATM   29  C   UNL     1      41.396 -14.084   0.105  1.00  0.00     0.017 A 
ENDBRANCH  20  23
ENDBRANCH   3  19
BRANCH   4  30
HETATM   30  O   UNL     1      42.908 -18.091   3.591  1.00  0.00    -0.354 OA
HETATM   31  C   UNL     1      43.823 -19.136   3.277  1.00  0.00     0.210 C 
ENDBRANCH   4  30
TORSDOF 6
ENDMDL
MODEL 5
REMARK VINA RESULT:      -8.4      4.644      7.737
REMARK  6 active torsions:
REMARK  status: ('A' for Active; 'I' for Inactive)
REMARK    1  A    between atoms: C_2  and  C_3 
REMARK    2  A    between atoms: C_7  and  C_8 
REMARK       I    between atoms: C_8  and  N_9 
REMARK    3  A    between atoms: N_9  and  C_10 
REMARK    4  A    between atoms: C_12  and  N_13 
REMARK       I    between atoms: N_13  and  C_14 
REMARK    5  A    between atoms: C_14  and  C_15 
REMARK    6  A    between atoms: C_23  and  O_24 
ROOT
HETATM    1  C   UNL     1      41.653 -14.728   2.024  1.00  0.00     0.037 A 
HETATM    2  C   UNL     1      42.264 -15.985   2.118  1.00  0.00     0.062 A 
HETATM    3  C   UNL     1      42.029 -16.815   3.219  1.00  0.00     0.070 A 
HETATM    4  C   UNL     1      41.194 -16.369   4.264  1.00  0.00     0.095 A 
HETATM    5  C   UNL     1      40.609 -15.105   4.183  1.00  0.00     0.041 A 
HETATM    6  C   UNL     1      40.833 -14.294   3.064  1.00  0.00     0.032 A 
ENDROOT
BRANCH   1   7
HETATM    7  N   UNL     1      41.914 -13.974   0.861  1.00  0.00    -0.322 N 
HETATM    8  C   UNL     1      41.137 -13.884  -0.276  1.00  0.00     0.274 C 
HETATM    9  O   UNL     1      40.101 -14.507  -0.478  1.00  0.00    -0.266 OA
HETATM   10  H   UNL     1      42.826 -13.537   0.819  1.00  0.00     0.169 HD
BRANCH   8  11
HETATM   11  C   UNL     1      41.675 -13.009  -1.288  1.00  0.00     0.120 A 
HETATM   12  N   UNL     1      42.431 -13.492  -2.322  1.00  0.00    -0.273 N 
HETATM   13  N   UNL     1      42.865 -12.550  -3.173  1.00  0.00    -0.179 NA
HETATM   14  H   UNL     1      42.689 -14.461  -2.485  1.00  0.00     0.189 HD
HETATM   15  C   UNL     1      42.339 -11.416  -2.697  1.00  0.00     0.056 A 
HETATM   16  C   UNL     1      41.590 -11.649  -1.518  1.00  0.00     0.065 A 
BRANCH  15  17
HETATM   17  C   UNL     1      42.555 -10.122  -3.409  1.00  0.00     0.056 C 
HETATM   18  C   UNL     1      42.507 -10.270  -4.921  1.00  0.00     0.011 C 
ENDBRANCH  15  17
ENDBRANCH   8  11
ENDBRANCH   1   7
BRANCH   3  19
HETATM   19  N   UNL     1      42.547 -18.126   3.331  1.00  0.00    -0.320 N 
HETATM   20  C   UNL     1      43.708 -18.531   3.956  1.00  0.00     0.256 C 
HETATM   21  O   UNL     1      44.418 -17.850   4.687  1.00  0.00    -0.267 OA
HETATM   22  H   UNL     1      41.959 -18.824   2.887  1.00  0.00     0.169 HD
BRANCH  20  23
HETATM   23  C   UNL     1      44.100 -19.948   3.708  1.00  0.00     0.035 A 
HETATM   24  C   UNL     1      44.627 -20.753   4.724  1.00  0.00     0.059 A 
HETATM   25  C   UNL     1      44.935 -22.082   4.451  1.00  0.00     0.117 A 
HETATM   26  F   UNL     1      45.435 -22.852   5.426  1.00  0.00    -0.206 F 
HETATM   27  C   UNL     1      44.721 -22.628   3.190  1.00  0.00     0.042 A 
HETATM   28  C   UNL     1      44.183 -21.834   2.179  1.00  0.00     0.004 A 
HETATM   29  C   UNL     1      43.869 -20.498   2.439  1.00  0.00     0.017 A 
ENDBRANCH  20  23
ENDBRANCH   3  19
BRANCH   4  30
HETATM   30  O   UNL     1      41.018 -17.257   5.300  1.00  0.00    -0.354 OA
HETATM   31  C   UNL     1      41.389 -16.811   6.600  1.00  0.00     0.210 C 
ENDBRANCH   4  30
TORSDOF 6
ENDMDL
MODEL 6
REMARK VINA RESULT:      -8.2      4.966      9.286
REMARK  6 active torsions:
REMARK  status: ('A' for Active; 'I' for Inactive)
REMARK    1  A    between atoms: C_2  and  C_3 
REMARK    2  A    between atoms: C_7  and  C_8 
REMARK       I    between atoms: C_8  and  N_9 
REMARK    3  A    between atoms: N_9  and  C_10 
REMARK    4  A    between atoms: C_12  and  N_13 
REMARK       I    between atoms: N_13  and  C_14 
REMARK    5  A    between atoms: C_14  and  C_15 
REMARK    6  A    between atoms: C_23  and  O_24 
ROOT
HETATM    1  C   UNL     1      40.746 -14.537   0.037  1.00  0.00     0.037 A 
HETATM    2  C   UNL     1      41.294 -15.770   0.414  1.00  0.00     0.062 A 
HETATM    3  C   UNL     1      42.223 -15.853   1.455  1.00  0.00     0.070 A 
HETATM    4  C   UNL     1      42.639 -14.679   2.115  1.00  0.00     0.095 A 
HETATM    5  C   UNL     1      42.115 -13.448   1.721  1.00  0.00     0.041 A 
HETATM    6  C   UNL     1      41.168 -13.380   0.692  1.00  0.00     0.032 A 
ENDROOT
BRANCH   1   7
HETATM    7  N   UNL     1      39.787 -14.550  -0.997  1.00  0.00    -0.322 N 
HETATM    8  C   UNL     1      39.991 -14.280  -2.336  1.00  0.00     0.274 C 
HETATM    9  O   UNL     1      41.053 -13.923  -2.834  1.00  0.00    -0.266 OA
HETATM   10  H   UNL     1      38.827 -14.665  -0.702  1.00  0.00     0.169 HD
BRANCH   8  11
HETATM   11  C   UNL     1      38.803 -14.396  -3.146  1.00  0.00     0.120 A 
HETATM   12  N   UNL     1      38.602 -15.470  -3.970  1.00  0.00    -0.273 N 
HETATM   13  N   UNL     1      37.454 -15.423  -4.664  1.00  0.00    -0.179 NA
HETATM   14  H   UNL     1      39.227 -16.260  -4.103  1.00  0.00     0.189 HD
HETATM   15  C   UNL     1      36.868 -14.295  -4.246  1.00  0.00     0.056 A 
HETATM   16  C   UNL     1      37.673 -13.615  -3.300  1.00  0.00     0.065 A 
BRANCH  15  17
HETATM   17  C   UNL     1      35.522 -13.905  -4.758  1.00  0.00     0.056 C 
HETATM   18  C   UNL     1      35.188 -12.449  -4.477  1.00  0.00     0.011 C 
ENDBRANCH  15  17
ENDBRANCH   8  11
ENDBRANCH   1   7
BRANCH   3  19
HETATM   19  N   UNL     1      42.746 -17.076   1.937  1.00  0.00    -0.320 N 
HETATM   20  C   UNL     1      42.373 -17.774   3.067  1.00  0.00     0.256 C 
HETATM   21  O   UNL     1      41.395 -17.553   3.770  1.00  0.00    -0.267 OA
HETATM   22  H   UNL     1      43.480 -17.453   1.346  1.00  0.00     0.169 HD
BRANCH  20  23
HETATM   23  C   UNL     1      43.265 -18.912   3.431  1.00  0.00     0.035 A 
HETATM   24  C   UNL     1      43.704 -19.836   2.476  1.00  0.00     0.059 A 
HETATM   25  C   UNL     1      44.571 -20.853   2.860  1.00  0.00     0.117 A 
HETATM   26  F   UNL     1      44.993 -21.734   1.943  1.00  0.00    -0.206 F 
HETATM   27  C   UNL     1      45.016 -20.967   4.172  1.00  0.00     0.042 A 
HETATM   28  C   UNL     1      44.593 -20.040   5.124  1.00  0.00     0.004 A 
HETATM   29  C   UNL     1      43.723 -19.012   4.753  1.00  0.00     0.017 A 
ENDBRANCH  20  23
ENDBRANCH   3  19
BRANCH   4  30
HETATM   30  O   UNL     1      43.549 -14.862   3.131  1.00  0.00    -0.354 OA
HETATM   31  C   UNL     1      43.608 -13.852   4.132  1.00  0.00     0.210 C 
ENDBRANCH   4  30
TORSDOF 6
ENDMDL
MODEL 7
REMARK VINA RESULT:      -8.2      4.228      7.802
REMARK  6 active torsions:
REMARK  status: ('A' for Active; 'I' for Inactive)
REMARK    1  A    between atoms: C_2  and  C_3 
REMARK    2  A    between atoms: C_7  and  C_8 
REMARK       I    between atoms: C_8  and  N_9 
REMARK    3  A    between atoms: N_9  and  C_10 
REMARK    4  A    between atoms: C_12  and  N_13 
REMARK       I    between atoms: N_13  and  C_14 
REMARK    5  A    between atoms: C_14  and  C_15 
REMARK    6  A    between atoms: C_23  and  O_24 
ROOT
HETATM    1  C   UNL     1      41.254 -14.482   2.423  1.00  0.00     0.037 A 
HETATM    2  C   UNL     1      41.840 -15.754   2.369  1.00  0.00     0.062 A 
HETATM    3  C   UNL     1      42.607 -16.235   3.434  1.00  0.00     0.070 A 
HETATM    4  C   UNL     1      42.822 -15.421   4.564  1.00  0.00     0.095 A 
HETATM    5  C   UNL     1      42.263 -14.143   4.605  1.00  0.00     0.041 A 
HETATM    6  C   UNL     1      41.477 -13.681   3.542  1.00  0.00     0.032 A 
ENDROOT
BRANCH   1   7
HETATM    7  N   UNL     1      40.465 -14.092   1.321  1.00  0.00    -0.322 N 
HETATM    8  C   UNL     1      39.142 -14.406   1.081  1.00  0.00     0.274 C 
HETATM    9  O   UNL     1      38.449 -15.140   1.777  1.00  0.00    -0.266 OA
HETATM   10  H   UNL     1      40.958 -13.618   0.576  1.00  0.00     0.169 HD
BRANCH   8  11
HETATM   11  C   UNL     1      38.614 -13.835  -0.134  1.00  0.00     0.120 A 
HETATM   12  N   UNL     1      38.852 -14.406  -1.355  1.00  0.00    -0.273 N 
HETATM   13  N   UNL     1      38.301 -13.748  -2.387  1.00  0.00    -0.179 NA
HETATM   14  H   UNL     1      39.398 -15.243  -1.538  1.00  0.00     0.189 HD
HETATM   15  C   UNL     1      37.646 -12.734  -1.811  1.00  0.00     0.056 A 
HETATM   16  C   UNL     1      37.814 -12.741  -0.405  1.00  0.00     0.065 A 
BRANCH  15  17
HETATM   17  C   UNL     1      36.847 -11.781  -2.637  1.00  0.00     0.056 C 
HETATM   18  C   UNL     1      36.002 -10.840  -1.793  1.00  0.00     0.011 C 
ENDBRANCH  15  17
ENDBRANCH   8  11
ENDBRANCH   1   7
BRANCH   3  19
HETATM   19  N   UNL     1      43.151 -17.540   3.474  1.00  0.00    -0.320 N 
HETATM   20  C   UNL     1      43.923 -18.169   2.519  1.00  0.00     0.256 C 
HETATM   21  O   UNL     1      44.430 -17.648   1.533  1.00  0.00    -0.267 OA
HETATM   22  H   UNL     1      42.926 -18.037   4.330  1.00  0.00     0.169 HD
BRANCH  20  23
HETATM   23  C   UNL     1      44.155 -19.624   2.750  1.00  0.00     0.035 A 
HETATM   24  C   UNL     1      44.675 -20.103   3.958  1.00  0.00     0.059 A 
HETATM   25  C   UNL     1      44.830 -21.473   4.138  1.00  0.00     0.117 A 
HETATM   26  F   UNL     1      45.324 -21.929   5.297  1.00  0.00    -0.206 F 
HETATM   27  C   UNL     1      44.471 -22.377   3.145  1.00  0.00     0.042 A 
HETATM   28  C   UNL     1      43.938 -21.907   1.946  1.00  0.00     0.004 A 
HETATM   29  C   UNL     1      43.776 -20.533   1.751  1.00  0.00     0.017 A 
ENDBRANCH  20  23
ENDBRANCH   3  19
BRANCH   4  30
HETATM   30  O   UNL     1      43.583 -15.983   5.562  1.00  0.00    -0.354 OA
HETATM   31  C   UNL     1      42.917 -16.293   6.782  1.00  0.00     0.210 C 
ENDBRANCH   4  30
TORSDOF 6
ENDMDL
MODEL 8
REMARK VINA RESULT:      -8.0      4.330      9.846
REMARK  6 active torsions:
REMARK  status: ('A' for Active; 'I' for Inactive)
REMARK    1  A    between atoms: C_2  and  C_3 
REMARK    2  A    between atoms: C_7  and  C_8 
REMARK       I    between atoms: C_8  and  N_9 
REMARK    3  A    between atoms: N_9  and  C_10 
REMARK    4  A    between atoms: C_12  and  N_13 
REMARK       I    between atoms: N_13  and  C_14 
REMARK    5  A    between atoms: C_14  and  C_15 
REMARK    6  A    between atoms: C_23  and  O_24 
ROOT
HETATM    1  C   UNL     1      41.864 -12.637   5.062  1.00  0.00     0.037 A 
HETATM    2  C   UNL     1      41.988 -12.401   6.437  1.00  0.00     0.062 A 
HETATM    3  C   UNL     1      41.630 -11.167   6.988  1.00  0.00     0.070 A 
HETATM    4  C   UNL     1      41.171 -10.134   6.146  1.00  0.00     0.095 A 
HETATM    5  C   UNL     1      41.076 -10.359   4.772  1.00  0.00     0.041 A 
HETATM    6  C   UNL     1      41.414 -11.607   4.236  1.00  0.00     0.032 A 
ENDROOT
BRANCH   1   7
HETATM    7  N   UNL     1      42.210 -13.923   4.597  1.00  0.00    -0.322 N 
HETATM    8  C   UNL     1      43.364 -14.296   3.938  1.00  0.00     0.274 C 
HETATM    9  O   UNL     1      44.264 -13.537   3.596  1.00  0.00    -0.266 OA
HETATM   10  H   UNL     1      41.482 -14.622   4.662  1.00  0.00     0.169 HD
BRANCH   8  11
HETATM   11  C   UNL     1      43.425 -15.700   3.609  1.00  0.00     0.120 A 
HETATM   12  N   UNL     1      43.332 -16.665   4.576  1.00  0.00    -0.273 N 
HETATM   13  N   UNL     1      43.417 -17.920   4.109  1.00  0.00    -0.179 NA
HETATM   14  H   UNL     1      43.221 -16.516   5.575  1.00  0.00     0.189 HD
HETATM   15  C   UNL     1      43.530 -17.767   2.785  1.00  0.00     0.056 A 
HETATM   16  C   UNL     1      43.544 -16.398   2.423  1.00  0.00     0.065 A 
BRANCH  15  17
HETATM   17  C   UNL     1      43.601 -18.956   1.887  1.00  0.00     0.056 C 
HETATM   18  C   UNL     1      44.164 -20.184   2.584  1.00  0.00     0.011 C 
ENDBRANCH  15  17
ENDBRANCH   8  11
ENDBRANCH   1   7
BRANCH   3  19
HETATM   19  N   UNL     1      41.651 -10.898   8.376  1.00  0.00    -0.320 N 
HETATM   20  C   UNL     1      42.750 -10.743   9.195  1.00  0.00     0.256 C 
HETATM   21  O   UNL     1      43.917 -10.634   8.837  1.00  0.00    -0.267 OA
HETATM   22  H   UNL     1      40.723 -10.811   8.777  1.00  0.00     0.169 HD
BRANCH  20  23
HETATM   23  C   UNL     1      42.450 -10.694  10.655  1.00  0.00     0.035 A 
HETATM   24  C   UNL     1      43.356 -10.153  11.574  1.00  0.00     0.059 A 
HETATM   25  C   UNL     1      43.008 -10.091  12.919  1.00  0.00     0.117 A 
HETATM   26  F   UNL     1      43.876  -9.569  13.796  1.00  0.00    -0.206 F 
HETATM   27  C   UNL     1      41.774 -10.547  13.368  1.00  0.00     0.042 A 
HETATM   28  C   UNL     1      40.861 -11.073  12.454  1.00  0.00     0.004 A 
HETATM   29  C   UNL     1      41.197 -11.142  11.100  1.00  0.00     0.017 A 
ENDBRANCH  20  23
ENDBRANCH   3  19
BRANCH   4  30
HETATM   30  O   UNL     1      40.837  -8.959   6.780  1.00  0.00    -0.354 OA
HETATM   31  C   UNL     1      41.624  -7.814   6.468  1.00  0.00     0.210 C 
ENDBRANCH   4  30
TORSDOF 6
ENDMDL
MODEL 9
REMARK VINA RESULT:      -7.9      3.166      3.562
REMARK  6 active torsions:
REMARK  status: ('A' for Active; 'I' for Inactive)
REMARK    1  A    between atoms: C_2  and  C_3 
REMARK    2  A    between atoms: C_7  and  C_8 
REMARK       I    between atoms: C_8  and  N_9 
REMARK    3  A    between atoms: N_9  and  C_10 
REMARK    4  A    between atoms: C_12  and  N_13 
REMARK       I    between atoms: N_13  and  C_14 
REMARK    5  A    between atoms: C_14  and  C_15 
REMARK    6  A    between atoms: C_23  and  O_24 
ROOT
HETATM    1  C   UNL     1      41.515 -12.563   5.412  1.00  0.00     0.037 A 
HETATM    2  C   UNL     1      42.005 -13.874   5.371  1.00  0.00     0.062 A 
HETATM    3  C   UNL     1      42.384 -14.461   4.160  1.00  0.00     0.070 A 
HETATM    4  C   UNL     1      42.241 -13.737   2.959  1.00  0.00     0.095 A 
HETATM    5  C   UNL     1      41.725 -12.441   2.996  1.00  0.00     0.041 A 
HETATM    6  C   UNL     1      41.371 -11.857   4.218  1.00  0.00     0.032 A 
ENDROOT
BRANCH   1   7
HETATM    7  N   UNL     1      41.193 -12.037   6.680  1.00  0.00    -0.322 N 
HETATM    8  C   UNL     1      40.001 -11.466   7.076  1.00  0.00     0.274 C 
HETATM    9  O   UNL     1      39.031 -11.271   6.351  1.00  0.00    -0.266 OA
HETATM   10  H   UNL     1      41.961 -11.978   7.336  1.00  0.00     0.169 HD
BRANCH   8  11
HETATM   11  C   UNL     1      39.982 -11.038   8.454  1.00  0.00     0.120 A 
HETATM   12  N   UNL     1      41.095 -11.132   9.246  1.00  0.00    -0.273 N 
HETATM   13  N   UNL     1      40.912 -10.703  10.504  1.00  0.00    -0.179 NA
HETATM   14  H   UNL     1      42.004 -11.495   8.976  1.00  0.00     0.189 HD
HETATM   15  C   UNL     1      39.644 -10.277  10.520  1.00  0.00     0.056 A 
HETATM   16  C   UNL     1      39.018 -10.469   9.264  1.00  0.00     0.065 A 
BRANCH  15  17
HETATM   17  C   UNL     1      39.063  -9.669  11.752  1.00  0.00     0.056 C 
HETATM   18  C   UNL     1      37.774  -8.909  11.481  1.00  0.00     0.011 C 
ENDBRANCH  15  17
ENDBRANCH   8  11
ENDBRANCH   1   7
BRANCH   3  19
HETATM   19  N   UNL     1      42.965 -15.747   4.065  1.00  0.00    -0.320 N 
HETATM   20  C   UNL     1      42.324 -16.963   3.958  1.00  0.00     0.256 C 
HETATM   21  O   UNL     1      41.130 -17.142   3.747  1.00  0.00    -0.267 OA
HETATM   22  H   UNL     1      43.979 -15.725   4.075  1.00  0.00     0.169 HD
BRANCH  20  23
HETATM   23  C   UNL     1      43.204 -18.158   4.106  1.00  0.00     0.035 A 
HETATM   24  C   UNL     1      43.535 -18.966   3.012  1.00  0.00     0.059 A 
HETATM   25  C   UNL     1      44.396 -20.042   3.196  1.00  0.00     0.117 A 
HETATM   26  F   UNL     1      44.716 -20.812   2.147  1.00  0.00    -0.206 F 
HETATM   27  C   UNL     1      44.940 -20.328   4.444  1.00  0.00     0.042 A 
HETATM   28  C   UNL     1      44.625 -19.517   5.533  1.00  0.00     0.004 A 
HETATM   29  C   UNL     1      43.762 -18.432   5.364  1.00  0.00     0.017 A 
ENDBRANCH  20  23
ENDBRANCH   3  19
BRANCH   4  30
HETATM   30  O   UNL     1      42.646 -14.394   1.820  1.00  0.00    -0.354 OA
HETATM   31  C   UNL     1      41.641 -14.694   0.858  1.00  0.00     0.210 C 
ENDBRANCH   4  30
TORSDOF 6
ENDMDL
MODEL 10
REMARK VINA RESULT:      -7.8      4.013      7.498
REMARK  6 active torsions:
REMARK  status: ('A' for Active; 'I' for Inactive)
REMARK    1  A    between atoms: C_2  and  C_3 
REMARK    2  A    between atoms: C_7  and  C_8 
REMARK       I    between atoms: C_8  and  N_9 
REMARK    3  A    between atoms: N_9  and  C_10 
REMARK    4  A    between atoms: C_12  and  N_13 
REMARK       I    between atoms: N_13  and  C_14 
REMARK    5  A    between atoms: C_14  and  C_15 
REMARK    6  A    between atoms: C_23  and  O_24 
ROOT
HETATM    1  C   UNL     1      41.237 -14.166   3.078  1.00  0.00     0.037 A 
HETATM    2  C   UNL     1      41.785 -15.446   2.921  1.00  0.00     0.062 A 
HETATM    3  C   UNL     1      42.623 -15.991   3.898  1.00  0.00     0.070 A 
HETATM    4  C   UNL     1      42.949 -15.232   5.041  1.00  0.00     0.095 A 
HETATM    5  C   UNL     1      42.426 -13.946   5.183  1.00  0.00     0.041 A 
HETATM    6  C   UNL     1      41.569 -13.421   4.208  1.00  0.00     0.032 A 
ENDROOT
BRANCH   1   7
HETATM    7  N   UNL     1      40.371 -13.710   2.062  1.00  0.00    -0.322 N 
HETATM    8  C   UNL     1      39.224 -14.321   1.598  1.00  0.00     0.274 C 
HETATM    9  O   UNL     1      38.801 -15.411   1.967  1.00  0.00    -0.266 OA
HETATM   10  H   UNL     1      40.690 -12.899   1.547  1.00  0.00     0.169 HD
BRANCH   8  11
HETATM   11  C   UNL     1      38.547 -13.587   0.557  1.00  0.00     0.120 A 
HETATM   12  N   UNL     1      37.756 -12.507   0.842  1.00  0.00    -0.273 N 
HETATM   13  N   UNL     1      37.190 -11.940  -0.234  1.00  0.00    -0.179 NA
HETATM   14  H   UNL     1      37.562 -12.122   1.762  1.00  0.00     0.189 HD
HETATM   15  C   UNL     1      37.661 -12.655  -1.263  1.00  0.00     0.056 A 
HETATM   16  C   UNL     1      38.510 -13.698  -0.820  1.00  0.00     0.065 A 
BRANCH  15  17
HETATM   17  C   UNL     1      37.295 -12.299  -2.664  1.00  0.00     0.056 C 
HETATM   18  C   UNL     1      38.442 -11.653  -3.424  1.00  0.00     0.011 C 
ENDBRANCH  15  17
ENDBRANCH   8  11
ENDBRANCH   1   7
BRANCH   3  19
HETATM   19  N   UNL     1      43.137 -17.307   3.838  1.00  0.00    -0.320 N 
HETATM   20  C   UNL     1      43.840 -17.899   2.809  1.00  0.00     0.256 C 
HETATM   21  O   UNL     1      44.305 -17.335   1.826  1.00  0.00    -0.267 OA
HETATM   22  H   UNL     1      42.946 -17.846   4.677  1.00  0.00     0.169 HD
BRANCH  20  23
HETATM   23  C   UNL     1      44.048 -19.369   2.948  1.00  0.00     0.035 A 
HETATM   24  C   UNL     1      43.806 -20.249   1.888  1.00  0.00     0.059 A 
HETATM   25  C   UNL     1      44.059 -21.606   2.056  1.00  0.00     0.117 A 
HETATM   26  F   UNL     1      43.830 -22.446   1.038  1.00  0.00    -0.206 F 
HETATM   27  C   UNL     1      44.555 -22.105   3.255  1.00  0.00     0.042 A 
HETATM   28  C   UNL     1      44.812 -21.231   4.310  1.00  0.00     0.004 A 
HETATM   29  C   UNL     1      44.563 -19.865   4.155  1.00  0.00     0.017 A 
ENDBRANCH  20  23
ENDBRANCH   3  19
BRANCH   4  30
HETATM   30  O   UNL     1      43.774 -15.855   5.949  1.00  0.00    -0.354 OA
HETATM   31  C   UNL     1      44.300 -15.050   6.999  1.00  0.00     0.210 C 
ENDBRANCH   4  30
TORSDOF 6
ENDMDL
