MODEL 1
REMARK VINA RESULT:      -8.2      0.000      0.000
REMARK  5 active torsions:
REMARK  status: ('A' for Active; 'I' for Inactive)
REMARK    1  A    between atoms: O_2  and  C_3 
REMARK    2  A    between atoms: C_6  and  N_7 
REMARK       I    between atoms: N_7  and  C_8 
REMARK    3  A    between atoms: C_8  and  C_9 
REMARK    4  A    between atoms: C_9  and  N_10 
REMARK    5  A    between atoms: N_10  and  C_11 
ROOT
HETATM    1  C   UNL     1      41.774 -16.961   0.680  1.00  0.00     0.195 C 
ENDROOT
BRANCH   1   2
HETATM    2  C   UNL     1      41.542 -15.487   0.357  1.00  0.00     0.235 C 
HETATM    3  N   UNL     1      41.753 -14.489   1.264  1.00  0.00    -0.326 N 
HETATM    4  H   UNL     1      41.663 -13.583   0.818  1.00  0.00     0.169 HD
HETATM    5  O   UNL     1      41.161 -15.156  -0.774  1.00  0.00    -0.272 OA
BRANCH   3   6
HETATM    6  C   UNL     1      42.046 -14.467   2.639  1.00  0.00     0.034 A 
HETATM    7  C   UNL     1      41.213 -14.933   3.654  1.00  0.00     0.032 A 
HETATM    8  C   UNL     1      41.610 -14.874   4.999  1.00  0.00     0.039 A 
HETATM    9  C   UNL     1      42.844 -14.332   5.349  1.00  0.00     0.068 A 
HETATM   10  C   UNL     1      43.663 -13.822   4.343  1.00  0.00     0.039 A 
HETATM   11  C   UNL     1      43.267 -13.886   3.003  1.00  0.00     0.032 A 
BRANCH   9  12
HETATM   12  O   UNL     1      43.347 -14.225   6.614  1.00  0.00    -0.356 OA
HETATM   13  C   UNL     1      44.755 -14.369   6.756  1.00  0.00     0.210 C 
ENDBRANCH   9  12
ENDBRANCH   3   6
ENDBRANCH   1   2
BRANCH   1  14
HETATM   14  N   UNL     1      43.204 -17.202   0.886  1.00  0.00    -0.284 NA
HETATM   15  H   UNL     1      43.742 -16.337   0.829  1.00  0.00     0.128 HD
BRANCH  14  16
HETATM   16  C   UNL     1      43.646 -18.025   1.924  1.00  0.00     0.009 A 
HETATM   17  C   UNL     1      43.782 -19.399   1.666  1.00  0.00     0.035 A 
HETATM   18  C   UNL     1      44.129 -20.320   2.671  1.00  0.00    -0.024 A 
HETATM   19  C   UNL     1      44.321 -19.858   3.990  1.00  0.00    -0.026 A 
HETATM   20  C   UNL     1      44.278 -21.689   2.395  1.00  0.00     0.012 A 
HETATM   21  C   UNL     1      44.156 -18.493   4.260  1.00  0.00     0.014 A 
HETATM   22  C   UNL     1      44.660 -20.775   4.999  1.00  0.00     0.012 A 
HETATM   23  C   UNL     1      43.809 -17.595   3.242  1.00  0.00     0.024 A 
HETATM   24  C   UNL     1      44.806 -22.132   4.708  1.00  0.00     0.001 A 
HETATM   25  C   UNL     1      44.616 -22.589   3.407  1.00  0.00     0.001 A 
ENDBRANCH  14  16
ENDBRANCH   1  14
TORSDOF 5
ENDMDL
MODEL 2
REMARK VINA RESULT:      -8.2      1.911      4.307
REMARK  5 active torsions:
REMARK  status: ('A' for Active; 'I' for Inactive)
REMARK    1  A    between atoms: O_2  and  C_3 
REMARK    2  A    between atoms: C_6  and  N_7 
REMARK       I    between atoms: N_7  and  C_8 
REMARK    3  A    between atoms: C_8  and  C_9 
REMARK    4  A    between atoms: C_9  and  N_10 
REMARK    5  A    between atoms: N_10  and  C_11 
ROOT
HETATM    1  C   UNL     1      42.390 -15.734   4.566  1.00  0.00     0.195 C 
ENDROOT
BRANCH   1   2
HETATM    2  C   UNL     1      41.138 -16.603   4.461  1.00  0.00     0.235 C 
HETATM    3  N   UNL     1      40.429 -16.742   3.303  1.00  0.00    -0.326 N 
HETATM    4  H   UNL     1      39.714 -17.453   3.411  1.00  0.00     0.169 HD
HETATM    5  O   UNL     1      40.738 -17.231   5.451  1.00  0.00    -0.272 OA
BRANCH   3   6
HETATM    6  C   UNL     1      40.481 -16.114   2.046  1.00  0.00     0.034 A 
HETATM    7  C   UNL     1      39.816 -14.940   1.698  1.00  0.00     0.032 A 
HETATM    8  C   UNL     1      39.948 -14.389   0.413  1.00  0.00     0.039 A 
HETATM    9  C   UNL     1      40.736 -15.017  -0.548  1.00  0.00     0.068 A 
HETATM   10  C   UNL     1      41.366 -16.216  -0.221  1.00  0.00     0.039 A 
HETATM   11  C   UNL     1      41.237 -16.760   1.061  1.00  0.00     0.032 A 
BRANCH   9  12
HETATM   12  O   UNL     1      40.949 -14.581  -1.825  1.00  0.00    -0.356 OA
HETATM   13  C   UNL     1      40.964 -15.572  -2.844  1.00  0.00     0.210 C 
ENDBRANCH   9  12
ENDBRANCH   3   6
ENDBRANCH   1   2
BRANCH   1  14
HETATM   14  N   UNL     1      43.466 -16.322   3.764  1.00  0.00    -0.284 NA
HETATM   15  H   UNL     1      44.246 -15.674   3.650  1.00  0.00     0.128 HD
BRANCH  14  16
HETATM   16  C   UNL     1      43.902 -17.627   4.002  1.00  0.00     0.009 A 
HETATM   17  C   UNL     1      43.786 -18.563   2.962  1.00  0.00     0.035 A 
HETATM   18  C   UNL     1      44.109 -19.921   3.136  1.00  0.00    -0.024 A 
HETATM   19  C   UNL     1      44.537 -20.369   4.402  1.00  0.00    -0.026 A 
HETATM   20  C   UNL     1      44.004 -20.843   2.081  1.00  0.00     0.012 A 
HETATM   21  C   UNL     1      44.625 -19.446   5.453  1.00  0.00     0.014 A 
HETATM   22  C   UNL     1      44.854 -21.726   4.584  1.00  0.00     0.012 A 
HETATM   23  C   UNL     1      44.297 -18.098   5.255  1.00  0.00     0.024 A 
HETATM   24  C   UNL     1      44.747 -22.629   3.525  1.00  0.00     0.001 A 
HETATM   25  C   UNL     1      44.322 -22.189   2.275  1.00  0.00     0.001 A 
ENDBRANCH  14  16
ENDBRANCH   1  14
TORSDOF 5
ENDMDL
MODEL 3
REMARK VINA RESULT:      -8.1      1.878      4.209
REMARK  5 active torsions:
REMARK  status: ('A' for Active; 'I' for Inactive)
REMARK    1  A    between atoms: O_2  and  C_3 
REMARK    2  A    between atoms: C_6  and  N_7 
REMARK       I    between atoms: N_7  and  C_8 
REMARK    3  A    between atoms: C_8  and  C_9 
REMARK    4  A    between atoms: C_9  and  N_10 
REMARK    5  A    between atoms: N_10  and  C_11 
ROOT
HETATM    1  C   UNL     1      43.495 -16.373   6.967  1.00  0.00     0.195 C 
ENDROOT
BRANCH   1   2
HETATM    2  C   UNL     1      43.932 -14.911   6.905  1.00  0.00     0.235 C 
HETATM    3  N   UNL     1      43.468 -14.040   5.961  1.00  0.00    -0.326 N 
HETATM    4  H   UNL     1      43.780 -13.098   6.167  1.00  0.00     0.169 HD
HETATM    5  O   UNL     1      44.727 -14.468   7.744  1.00  0.00    -0.272 OA
BRANCH   3   6
HETATM    6  C   UNL     1      42.687 -14.185   4.800  1.00  0.00     0.034 A 
HETATM    7  C   UNL     1      41.354 -14.587   4.765  1.00  0.00     0.032 A 
HETATM    8  C   UNL     1      40.661 -14.687   3.548  1.00  0.00     0.039 A 
HETATM    9  C   UNL     1      41.301 -14.400   2.345  1.00  0.00     0.068 A 
HETATM   10  C   UNL     1      42.647 -14.042   2.369  1.00  0.00     0.039 A 
HETATM   11  C   UNL     1      43.334 -13.939   3.583  1.00  0.00     0.032 A 
BRANCH   9  12
HETATM   12  O   UNL     1      40.738 -14.452   1.101  1.00  0.00    -0.356 OA
HETATM   13  C   UNL     1      41.595 -14.820   0.027  1.00  0.00     0.210 C 
ENDBRANCH   9  12
ENDBRANCH   3   6
ENDBRANCH   1   2
BRANCH   1  14
HETATM   14  N   UNL     1      44.507 -17.218   6.329  1.00  0.00    -0.284 NA
HETATM   15  H   UNL     1      45.052 -17.736   7.018  1.00  0.00     0.128 HD
BRANCH  14  16
HETATM   16  C   UNL     1      44.184 -18.003   5.220  1.00  0.00     0.009 A 
HETATM   17  C   UNL     1      44.584 -19.349   5.224  1.00  0.00     0.035 A 
HETATM   18  C   UNL     1      44.390 -20.193   4.116  1.00  0.00    -0.024 A 
HETATM   19  C   UNL     1      43.798 -19.668   2.948  1.00  0.00    -0.026 A 
HETATM   20  C   UNL     1      44.780 -21.542   4.140  1.00  0.00     0.012 A 
HETATM   21  C   UNL     1      43.425 -18.318   2.927  1.00  0.00     0.014 A 
HETATM   22  C   UNL     1      43.607 -20.504   1.836  1.00  0.00     0.012 A 
HETATM   23  C   UNL     1      43.630 -17.497   4.043  1.00  0.00     0.024 A 
HETATM   24  C   UNL     1      43.999 -21.844   1.877  1.00  0.00     0.001 A 
HETATM   25  C   UNL     1      44.585 -22.363   3.028  1.00  0.00     0.001 A 
ENDBRANCH  14  16
ENDBRANCH   1  14
TORSDOF 5
ENDMDL
MODEL 4
REMARK VINA RESULT:      -8.1      1.943      2.496
REMARK  5 active torsions:
REMARK  status: ('A' for Active; 'I' for Inactive)
REMARK    1  A    between atoms: O_2  and  C_3 
REMARK    2  A    between atoms: C_6  and  N_7 
REMARK       I    between atoms: N_7  and  C_8 
REMARK    3  A    between atoms: C_8  and  C_9 
REMARK    4  A    between atoms: C_9  and  N_10 
REMARK    5  A    between atoms: N_10  and  C_11 
ROOT
HETATM    1  C   UNL     1      41.711 -15.303   1.985  1.00  0.00     0.195 C 
ENDROOT
BRANCH   1   2
HETATM    2  C   UNL     1      40.359 -15.279   2.695  1.00  0.00     0.235 C 
HETATM    3  N   UNL     1      40.232 -15.409   4.048  1.00  0.00    -0.326 N 
HETATM    4  H   UNL     1      39.273 -15.242   4.329  1.00  0.00     0.169 HD
HETATM    5  O   UNL     1      39.320 -15.122   2.039  1.00  0.00    -0.272 OA
BRANCH   3   6
HETATM    6  C   UNL     1      41.127 -15.726   5.086  1.00  0.00     0.034 A 
HETATM    7  C   UNL     1      42.179 -14.924   5.523  1.00  0.00     0.032 A 
HETATM    8  C   UNL     1      43.007 -15.333   6.580  1.00  0.00     0.039 A 
HETATM    9  C   UNL     1      42.803 -16.560   7.205  1.00  0.00     0.068 A 
HETATM   10  C   UNL     1      41.782 -17.387   6.742  1.00  0.00     0.039 A 
HETATM   11  C   UNL     1      40.955 -16.976   5.692  1.00  0.00     0.032 A 
BRANCH   9  12
HETATM   12  O   UNL     1      43.532 -17.066   8.244  1.00  0.00    -0.356 OA
HETATM   13  C   UNL     1      44.034 -18.387   8.087  1.00  0.00     0.210 C 
ENDBRANCH   9  12
ENDBRANCH   3   6
ENDBRANCH   1   2
BRANCH   1  14
HETATM   14  N   UNL     1      41.949 -16.633   1.421  1.00  0.00    -0.284 NA
HETATM   15  H   UNL     1      42.158 -16.586   0.424  1.00  0.00     0.128 HD
BRANCH  14  16
HETATM   16  C   UNL     1      42.765 -17.553   2.083  1.00  0.00     0.009 A 
HETATM   17  C   UNL     1      42.767 -18.882   1.629  1.00  0.00     0.035 A 
HETATM   18  C   UNL     1      43.480 -19.899   2.288  1.00  0.00    -0.024 A 
HETATM   19  C   UNL     1      44.197 -19.586   3.461  1.00  0.00    -0.026 A 
HETATM   20  C   UNL     1      43.487 -21.221   1.812  1.00  0.00     0.012 A 
HETATM   21  C   UNL     1      44.174 -18.268   3.937  1.00  0.00     0.014 A 
HETATM   22  C   UNL     1      44.906 -20.599   4.127  1.00  0.00     0.012 A 
HETATM   23  C   UNL     1      43.455 -17.273   3.263  1.00  0.00     0.024 A 
HETATM   24  C   UNL     1      44.905 -21.908   3.640  1.00  0.00     0.001 A 
HETATM   25  C   UNL     1      44.196 -22.219   2.484  1.00  0.00     0.001 A 
ENDBRANCH  14  16
ENDBRANCH   1  14
TORSDOF 5
ENDMDL
MODEL 5
REMARK VINA RESULT:      -7.9      1.825      4.413
REMARK  5 active torsions:
REMARK  status: ('A' for Active; 'I' for Inactive)
REMARK    1  A    between atoms: O_2  and  C_3 
REMARK    2  A    between atoms: C_6  and  N_7 
REMARK       I    between atoms: N_7  and  C_8 
REMARK    3  A    between atoms: C_8  and  C_9 
REMARK    4  A    between atoms: C_9  and  N_10 
REMARK    5  A    between atoms: N_10  and  C_11 
ROOT
HETATM    1  C   UNL     1      42.782 -15.485   4.714  1.00  0.00     0.195 C 
ENDROOT
BRANCH   1   2
HETATM    2  C   UNL     1      41.268 -15.644   4.827  1.00  0.00     0.235 C 
HETATM    3  N   UNL     1      40.460 -15.824   3.742  1.00  0.00    -0.326 N 
HETATM    4  H   UNL     1      39.513 -16.033   4.038  1.00  0.00     0.169 HD
HETATM    5  O   UNL     1      40.727 -15.629   5.941  1.00  0.00    -0.272 OA
BRANCH   3   6
HETATM    6  C   UNL     1      40.667 -15.768   2.352  1.00  0.00     0.034 A 
HETATM    7  C   UNL     1      41.211 -16.786   1.572  1.00  0.00     0.032 A 
HETATM    8  C   UNL     1      41.363 -16.630   0.185  1.00  0.00     0.039 A 
HETATM    9  C   UNL     1      40.987 -15.444  -0.439  1.00  0.00     0.068 A 
HETATM   10  C   UNL     1      40.484 -14.405   0.342  1.00  0.00     0.039 A 
HETATM   11  C   UNL     1      40.330 -14.564   1.723  1.00  0.00     0.032 A 
BRANCH   9  12
HETATM   12  O   UNL     1      41.076 -15.172  -1.775  1.00  0.00    -0.356 OA
HETATM   13  C   UNL     1      41.556 -13.882  -2.134  1.00  0.00     0.210 C 
ENDBRANCH   9  12
ENDBRANCH   3   6
ENDBRANCH   1   2
BRANCH   1  14
HETATM   14  N   UNL     1      43.446 -16.411   5.635  1.00  0.00    -0.284 NA
HETATM   15  H   UNL     1      42.962 -16.460   6.532  1.00  0.00     0.128 HD
BRANCH  14  16
HETATM   16  C   UNL     1      43.866 -17.670   5.200  1.00  0.00     0.009 A 
HETATM   17  C   UNL     1      43.492 -18.082   3.910  1.00  0.00     0.035 A 
HETATM   18  C   UNL     1      43.785 -19.367   3.419  1.00  0.00    -0.024 A 
HETATM   19  C   UNL     1      44.453 -20.286   4.255  1.00  0.00    -0.026 A 
HETATM   20  C   UNL     1      43.421 -19.760   2.120  1.00  0.00     0.012 A 
HETATM   21  C   UNL     1      44.800 -19.892   5.554  1.00  0.00     0.014 A 
HETATM   22  C   UNL     1      44.742 -21.574   3.772  1.00  0.00     0.012 A 
HETATM   23  C   UNL     1      44.496 -18.606   6.020  1.00  0.00     0.024 A 
HETATM   24  C   UNL     1      44.374 -21.948   2.478  1.00  0.00     0.001 A 
HETATM   25  C   UNL     1      43.714 -21.043   1.653  1.00  0.00     0.001 A 
ENDBRANCH  14  16
ENDBRANCH   1  14
TORSDOF 5
ENDMDL
MODEL 6
REMARK VINA RESULT:      -7.9      1.807      4.455
REMARK  5 active torsions:
REMARK  status: ('A' for Active; 'I' for Inactive)
REMARK    1  A    between atoms: O_2  and  C_3 
REMARK    2  A    between atoms: C_6  and  N_7 
REMARK       I    between atoms: N_7  and  C_8 
REMARK    3  A    between atoms: C_8  and  C_9 
REMARK    4  A    between atoms: C_9  and  N_10 
REMARK    5  A    between atoms: N_10  and  C_11 
ROOT
HETATM    1  C   UNL     1      42.657 -15.485   4.344  1.00  0.00     0.195 C 
ENDROOT
BRANCH   1   2
HETATM    2  C   UNL     1      41.204 -15.927   4.504  1.00  0.00     0.235 C 
HETATM    3  N   UNL     1      40.325 -15.972   3.461  1.00  0.00    -0.326 N 
HETATM    4  H   UNL     1      39.457 -16.408   3.750  1.00  0.00     0.169 HD
HETATM    5  O   UNL     1      40.786 -16.281   5.615  1.00  0.00    -0.272 OA
BRANCH   3   6
HETATM    6  C   UNL     1      40.376 -15.541   2.123  1.00  0.00     0.034 A 
HETATM    7  C   UNL     1      39.649 -14.481   1.584  1.00  0.00     0.032 A 
HETATM    8  C   UNL     1      39.785 -14.126   0.233  1.00  0.00     0.039 A 
HETATM    9  C   UNL     1      40.641 -14.839  -0.604  1.00  0.00     0.068 A 
HETATM   10  C   UNL     1      41.335 -15.928  -0.082  1.00  0.00     0.039 A 
HETATM   11  C   UNL     1      41.202 -16.278   1.265  1.00  0.00     0.032 A 
BRANCH   9  12
HETATM   12  O   UNL     1      40.865 -14.589  -1.928  1.00  0.00    -0.356 OA
HETATM   13  C   UNL     1      40.833 -15.709  -2.803  1.00  0.00     0.210 C 
ENDBRANCH   9  12
ENDBRANCH   3   6
ENDBRANCH   1   2
BRANCH   1  14
HETATM   14  N   UNL     1      43.547 -16.502   4.907  1.00  0.00    -0.284 NA
HETATM   15  H   UNL     1      43.422 -16.594   5.915  1.00  0.00     0.128 HD
BRANCH  14  16
HETATM   16  C   UNL     1      43.696 -17.744   4.284  1.00  0.00     0.009 A 
HETATM   17  C   UNL     1      44.004 -18.854   5.087  1.00  0.00     0.035 A 
HETATM   18  C   UNL     1      44.267 -20.124   4.543  1.00  0.00    -0.024 A 
HETATM   19  C   UNL     1      44.248 -20.288   3.143  1.00  0.00    -0.026 A 
HETATM   20  C   UNL     1      44.557 -21.229   5.360  1.00  0.00     0.012 A 
HETATM   21  C   UNL     1      43.972 -19.178   2.334  1.00  0.00     0.014 A 
HETATM   22  C   UNL     1      44.516 -21.553   2.593  1.00  0.00     0.012 A 
HETATM   23  C   UNL     1      43.714 -17.922   2.900  1.00  0.00     0.024 A 
HETATM   24  C   UNL     1      44.801 -22.642   3.419  1.00  0.00     0.001 A 
HETATM   25  C   UNL     1      44.822 -22.481   4.801  1.00  0.00     0.001 A 
ENDBRANCH  14  16
ENDBRANCH   1  14
TORSDOF 5
ENDMDL
MODEL 7
REMARK VINA RESULT:      -7.9      1.639      2.137
REMARK  5 active torsions:
REMARK  status: ('A' for Active; 'I' for Inactive)
REMARK    1  A    between atoms: O_2  and  C_3 
REMARK    2  A    between atoms: C_6  and  N_7 
REMARK       I    between atoms: N_7  and  C_8 
REMARK    3  A    between atoms: C_8  and  C_9 
REMARK    4  A    between atoms: C_9  and  N_10 
REMARK    5  A    between atoms: N_10  and  C_11 
ROOT
HETATM    1  C   UNL     1      39.210 -15.422   2.094  1.00  0.00     0.195 C 
ENDROOT
BRANCH   1   2
HETATM    2  C   UNL     1      39.566 -14.057   1.509  1.00  0.00     0.235 C 
HETATM    3  N   UNL     1      40.623 -13.316   1.951  1.00  0.00    -0.326 N 
HETATM    4  H   UNL     1      40.761 -12.508   1.354  1.00  0.00     0.169 HD
HETATM    5  O   UNL     1      38.890 -13.588   0.583  1.00  0.00    -0.272 OA
BRANCH   3   6
HETATM    6  C   UNL     1      41.515 -13.436   3.031  1.00  0.00     0.034 A 
HETATM    7  C   UNL     1      41.211 -13.180   4.367  1.00  0.00     0.032 A 
HETATM    8  C   UNL     1      42.177 -13.344   5.372  1.00  0.00     0.039 A 
HETATM    9  C   UNL     1      43.469 -13.754   5.051  1.00  0.00     0.068 A 
HETATM   10  C   UNL     1      43.792 -13.968   3.713  1.00  0.00     0.039 A 
HETATM   11  C   UNL     1      42.827 -13.807   2.713  1.00  0.00     0.032 A 
BRANCH   9  12
HETATM   12  O   UNL     1      44.492 -13.957   5.933  1.00  0.00    -0.356 OA
HETATM   13  C   UNL     1      44.253 -14.883   6.986  1.00  0.00     0.210 C 
ENDBRANCH   9  12
ENDBRANCH   3   6
ENDBRANCH   1   2
BRANCH   1  14
HETATM   14  N   UNL     1      40.108 -16.442   1.546  1.00  0.00    -0.284 NA
HETATM   15  H   UNL     1      40.488 -16.161   0.642  1.00  0.00     0.128 HD
BRANCH  14  16
HETATM   16  C   UNL     1      41.073 -17.050   2.352  1.00  0.00     0.009 A 
HETATM   17  C   UNL     1      41.941 -17.980   1.757  1.00  0.00     0.035 A 
HETATM   18  C   UNL     1      42.880 -18.713   2.503  1.00  0.00    -0.024 A 
HETATM   19  C   UNL     1      42.940 -18.532   3.900  1.00  0.00    -0.026 A 
HETATM   20  C   UNL     1      43.754 -19.628   1.892  1.00  0.00     0.012 A 
HETATM   21  C   UNL     1      42.056 -17.629   4.504  1.00  0.00     0.014 A 
HETATM   22  C   UNL     1      43.872 -19.267   4.652  1.00  0.00     0.012 A 
HETATM   23  C   UNL     1      41.127 -16.910   3.739  1.00  0.00     0.024 A 
HETATM   24  C   UNL     1      44.734 -20.171   4.029  1.00  0.00     0.001 A 
HETATM   25  C   UNL     1      44.676 -20.352   2.650  1.00  0.00     0.001 A 
ENDBRANCH  14  16
ENDBRANCH   1  14
TORSDOF 5
ENDMDL
MODEL 8
REMARK VINA RESULT:      -7.9      2.554      4.817
REMARK  5 active torsions:
REMARK  status: ('A' for Active; 'I' for Inactive)
REMARK    1  A    between atoms: O_2  and  C_3 
REMARK    2  A    between atoms: C_6  and  N_7 
REMARK       I    between atoms: N_7  and  C_8 
REMARK    3  A    between atoms: C_8  and  C_9 
REMARK    4  A    between atoms: C_9  and  N_10 
REMARK    5  A    between atoms: N_10  and  C_11 
ROOT
HETATM    1  C   UNL     1      42.604 -16.046   1.355  1.00  0.00     0.195 C 
ENDROOT
BRANCH   1   2
HETATM    2  C   UNL     1      41.178 -16.384   0.925  1.00  0.00     0.235 C 
HETATM    3  N   UNL     1      40.593 -15.845  -0.184  1.00  0.00    -0.326 N 
HETATM    4  H   UNL     1      39.699 -16.290  -0.362  1.00  0.00     0.169 HD
HETATM    5  O   UNL     1      40.510 -17.192   1.585  1.00  0.00    -0.272 OA
BRANCH   3   6
HETATM    6  C   UNL     1      40.960 -14.829  -1.085  1.00  0.00     0.034 A 
HETATM    7  C   UNL     1      41.263 -13.513  -0.743  1.00  0.00     0.032 A 
HETATM    8  C   UNL     1      41.631 -12.579  -1.724  1.00  0.00     0.039 A 
HETATM    9  C   UNL     1      41.684 -12.946  -3.066  1.00  0.00     0.068 A 
HETATM   10  C   UNL     1      41.337 -14.249  -3.420  1.00  0.00     0.039 A 
HETATM   11  C   UNL     1      40.975 -15.179  -2.440  1.00  0.00     0.032 A 
BRANCH   9  12
HETATM   12  O   UNL     1      42.033 -12.137  -4.109  1.00  0.00    -0.356 OA
HETATM   13  C   UNL     1      42.354 -10.788  -3.791  1.00  0.00     0.210 C 
ENDBRANCH   9  12
ENDBRANCH   3   6
ENDBRANCH   1   2
BRANCH   1  14
HETATM   14  N   UNL     1      43.482 -17.188   1.091  1.00  0.00    -0.284 NA
HETATM   15  H   UNL     1      44.279 -16.923   0.512  1.00  0.00     0.128 HD
BRANCH  14  16
HETATM   16  C   UNL     1      43.851 -18.057   2.121  1.00  0.00     0.009 A 
HETATM   17  C   UNL     1      43.972 -19.423   1.822  1.00  0.00     0.035 A 
HETATM   18  C   UNL     1      44.245 -20.386   2.810  1.00  0.00    -0.024 A 
HETATM   19  C   UNL     1      44.376 -19.975   4.152  1.00  0.00    -0.026 A 
HETATM   20  C   UNL     1      44.381 -21.748   2.493  1.00  0.00     0.012 A 
HETATM   21  C   UNL     1      44.225 -18.617   4.462  1.00  0.00     0.014 A 
HETATM   22  C   UNL     1      44.641 -20.933   5.145  1.00  0.00     0.012 A 
HETATM   23  C   UNL     1      43.952 -17.677   3.460  1.00  0.00     0.024 A 
HETATM   24  C   UNL     1      44.775 -22.283   4.813  1.00  0.00     0.001 A 
HETATM   25  C   UNL     1      44.645 -22.690   3.489  1.00  0.00     0.001 A 
ENDBRANCH  14  16
ENDBRANCH   1  14
TORSDOF 5
ENDMDL
MODEL 9
REMARK VINA RESULT:      -7.8      2.522      4.909
REMARK  5 active torsions:
REMARK  status: ('A' for Active; 'I' for Inactive)
REMARK    1  A    between atoms: O_2  and  C_3 
REMARK    2  A    between atoms: C_6  and  N_7 
REMARK       I    between atoms: N_7  and  C_8 
REMARK    3  A    between atoms: C_8  and  C_9 
REMARK    4  A    between atoms: C_9  and  N_10 
REMARK    5  A    between atoms: N_10  and  C_11 
ROOT
HETATM    1  C   UNL     1      44.541 -17.845   7.251  1.00  0.00     0.195 C 
ENDROOT
BRANCH   1   2
HETATM    2  C   UNL     1      43.459 -16.946   7.844  1.00  0.00     0.235 C 
HETATM    3  N   UNL     1      42.541 -16.289   7.077  1.00  0.00    -0.326 N 
HETATM    4  H   UNL     1      41.840 -15.851   7.664  1.00  0.00     0.169 HD
HETATM    5  O   UNL     1      43.380 -16.802   9.072  1.00  0.00    -0.272 OA
BRANCH   3   6
HETATM    6  C   UNL     1      42.385 -16.096   5.692  1.00  0.00     0.034 A 
HETATM    7  C   UNL     1      43.105 -15.192   4.914  1.00  0.00     0.032 A 
HETATM    8  C   UNL     1      42.878 -15.089   3.532  1.00  0.00     0.039 A 
HETATM    9  C   UNL     1      41.914 -15.880   2.913  1.00  0.00     0.068 A 
HETATM   10  C   UNL     1      41.159 -16.753   3.693  1.00  0.00     0.039 A 
HETATM   11  C   UNL     1      41.390 -16.858   5.069  1.00  0.00     0.032 A 
BRANCH   9  12
HETATM   12  O   UNL     1      41.605 -15.878   1.582  1.00  0.00    -0.356 OA
HETATM   13  C   UNL     1      41.938 -17.050   0.848  1.00  0.00     0.210 C 
ENDBRANCH   9  12
ENDBRANCH   3   6
ENDBRANCH   1   2
BRANCH   1  14
HETATM   14  N   UNL     1      44.092 -19.240   7.277  1.00  0.00    -0.284 NA
HETATM   15  H   UNL     1      43.155 -19.325   7.673  1.00  0.00     0.128 HD
BRANCH  14  16
HETATM   16  C   UNL     1      44.266 -20.066   6.165  1.00  0.00     0.009 A 
HETATM   17  C   UNL     1      44.047 -19.515   4.892  1.00  0.00     0.035 A 
HETATM   18  C   UNL     1      44.104 -20.290   3.719  1.00  0.00    -0.024 A 
HETATM   19  C   UNL     1      44.363 -21.672   3.821  1.00  0.00    -0.026 A 
HETATM   20  C   UNL     1      43.899 -19.722   2.451  1.00  0.00     0.012 A 
HETATM   21  C   UNL     1      44.552 -22.234   5.091  1.00  0.00     0.014 A 
HETATM   22  C   UNL     1      44.414 -22.452   2.654  1.00  0.00     0.012 A 
HETATM   23  C   UNL     1      44.489 -21.441   6.244  1.00  0.00     0.024 A 
HETATM   24  C   UNL     1      44.210 -21.872   1.400  1.00  0.00     0.001 A 
HETATM   25  C   UNL     1      43.953 -20.508   1.298  1.00  0.00     0.001 A 
ENDBRANCH  14  16
ENDBRANCH   1  14
TORSDOF 5
ENDMDL
MODEL 10
REMARK VINA RESULT:      -7.7      2.958      5.672
REMARK  5 active torsions:
REMARK  status: ('A' for Active; 'I' for Inactive)
REMARK    1  A    between atoms: O_2  and  C_3 
REMARK    2  A    between atoms: C_6  and  N_7 
REMARK       I    between atoms: N_7  and  C_8 
REMARK    3  A    between atoms: C_8  and  C_9 
REMARK    4  A    between atoms: C_9  and  N_10 
REMARK    5  A    between atoms: N_10  and  C_11 
ROOT
HETATM    1  C   UNL     1      41.407 -15.577   0.969  1.00  0.00     0.195 C 
ENDROOT
BRANCH   1   2
HETATM    2  C   UNL     1      41.654 -14.124   0.568  1.00  0.00     0.235 C 
HETATM    3  N   UNL     1      41.037 -13.537  -0.499  1.00  0.00    -0.326 N 
HETATM    4  H   UNL     1      41.238 -12.544  -0.519  1.00  0.00     0.169 HD
HETATM    5  O   UNL     1      42.429 -13.424   1.232  1.00  0.00    -0.272 OA
BRANCH   3   6
HETATM    6  C   UNL     1      40.221 -14.017  -1.540  1.00  0.00     0.034 A 
HETATM    7  C   UNL     1      40.667 -14.696  -2.671  1.00  0.00     0.032 A 
HETATM    8  C   UNL     1      39.763 -15.144  -3.647  1.00  0.00     0.039 A 
HETATM    9  C   UNL     1      38.398 -14.902  -3.512  1.00  0.00     0.068 A 
HETATM   10  C   UNL     1      37.951 -14.183  -2.405  1.00  0.00     0.039 A 
HETATM   11  C   UNL     1      38.853 -13.742  -1.432  1.00  0.00     0.032 A 
BRANCH   9  12
HETATM   12  O   UNL     1      37.421 -15.290  -4.383  1.00  0.00    -0.356 OA
HETATM   13  C   UNL     1      36.354 -14.374  -4.596  1.00  0.00     0.210 C 
ENDBRANCH   9  12
ENDBRANCH   3   6
ENDBRANCH   1   2
BRANCH   1  14
HETATM   14  N   UNL     1      42.580 -16.387   0.631  1.00  0.00    -0.284 NA
HETATM   15  H   UNL     1      43.285 -15.840   0.136  1.00  0.00     0.128 HD
BRANCH  14  16
HETATM   16  C   UNL     1      43.151 -17.243   1.575  1.00  0.00     0.009 A 
HETATM   17  C   UNL     1      43.279 -18.602   1.244  1.00  0.00     0.035 A 
HETATM   18  C   UNL     1      43.753 -19.556   2.162  1.00  0.00    -0.024 A 
HETATM   19  C   UNL     1      44.087 -19.146   3.469  1.00  0.00    -0.026 A 
HETATM   20  C   UNL     1      43.892 -20.910   1.810  1.00  0.00     0.012 A 
HETATM   21  C   UNL     1      43.932 -17.797   3.815  1.00  0.00     0.014 A 
HETATM   22  C   UNL     1      44.554 -20.096   4.392  1.00  0.00     0.012 A 
HETATM   23  C   UNL     1      43.457 -16.865   2.883  1.00  0.00     0.024 A 
HETATM   24  C   UNL     1      44.688 -21.437   4.027  1.00  0.00     0.001 A 
HETATM   25  C   UNL     1      44.358 -21.844   2.738  1.00  0.00     0.001 A 
ENDBRANCH  14  16
ENDBRANCH   1  14
TORSDOF 5
ENDMDL
