MODEL 1
REMARK VINA RESULT:      -6.5      0.000      0.000
REMARK  11 active torsions:
REMARK  status: ('A' for Active; 'I' for Inactive)
REMARK    1  A    between atoms: C_1  and  C_17 
REMARK    2  A    between atoms: C_1  and  S_18 
REMARK    3  A    between atoms: C_2  and  N_23 
REMARK    4  A    between atoms: C_3  and  C_13 
REMARK    5  A    between atoms: C_6  and  S_18 
REMARK    6  A    between atoms: C_6  and  S_19 
REMARK    7  A    between atoms: C_7  and  C_20 
REMARK    8  A    between atoms: C_7  and  C_21 
REMARK    9  A    between atoms: C_9  and  C_24 
REMARK   10  A    between atoms: C_16  and  C_17 
REMARK   11  A    between atoms: S_19  and  C_20 
ROOT
HETATM    1  C           1      38.493 -14.483   0.767  0.00  0.00     0.092 C 
HETATM    2  C           1      40.752 -15.135   1.264  0.00  0.00     0.156 C 
HETATM    3  C           1      39.363 -13.537  -0.014  0.00  0.00     0.127 C 
HETATM    4  C           1      40.752 -14.228  -0.018  0.00  0.00     0.136 C 
HETATM    5  C           1      40.860 -15.088  -1.238  0.00  0.00     0.079 C 
HETATM    6  N           1      40.886 -15.663  -2.246  0.00  0.00    -0.196 NA
HETATM    7  C           1      39.416 -11.999   0.401  0.00  0.00     0.248 C 
HETATM    8  C           1      41.657 -11.874  -0.530  0.00  0.00     0.105 C 
HETATM    9  N           1      39.238 -15.317   1.441  0.00  0.00    -0.350 N 
HETATM   10  N           1      40.372 -11.197  -0.530  0.00  0.00    -0.040 N 
HETATM   11  C           1      42.844 -10.991  -0.836  0.00  0.00     0.075 C 
HETATM   12  C           1      41.833 -13.181  -0.233  0.00  0.00     0.036 C 
HETATM   13  H           1      38.835 -16.049   2.041  0.00  0.00     0.163 HD
HETATM   14  H           1      40.499 -10.248  -0.107  0.00  0.00     0.284 HD
HETATM   15  H           1      40.012 -11.061  -1.496  0.00  0.00     0.284 HD
ENDROOT
BRANCH   2  16
HETATM   16  S           1      41.450 -16.801   1.006  0.00  0.00    -0.125 SA
BRANCH  16  17
HETATM   17  C           1      43.175 -16.615   1.546  0.00  0.00     0.077 C 
BRANCH  17  18
HETATM   18  C           1      43.879 -17.978   1.439  0.00  0.00     0.010 C 
BRANCH  18  19
HETATM   19  C           1      42.956 -19.126   1.882  0.00  0.00    -0.004 C 
HETATM   20  C           1      43.727 -20.438   2.078  0.00  0.00     0.005 C 
ENDBRANCH  18  19
ENDBRANCH  17  18
ENDBRANCH  16  17
ENDBRANCH   2  16
BRANCH   2  21
HETATM   21  S           1      41.468 -14.232   2.675  0.00  0.00    -0.125 SA
BRANCH  21  22
HETATM   22  C           1      40.622 -15.036   4.070  0.00  0.00     0.077 C 
BRANCH  22  23
HETATM   23  C           1      41.650 -15.869   4.853  0.00  0.00     0.010 C 
BRANCH  23  24
HETATM   24  C           1      41.327 -17.370   4.793  0.00  0.00    -0.004 C 
HETATM   25  C           1      42.468 -18.223   5.363  0.00  0.00     0.005 C 
ENDBRANCH  23  24
ENDBRANCH  22  23
ENDBRANCH  21  22
ENDBRANCH   2  21
BRANCH   3  26
HETATM   26  C           1      38.955 -13.266  -1.419  0.00  0.00     0.105 C 
HETATM   27  N           1      37.958 -13.164  -2.001  0.00  0.00    -0.151 N 
ENDBRANCH   3  26
BRANCH   1  28
HETATM   28  N           1      37.226 -14.474   0.783  0.00  0.00    -0.388 N 
HETATM   29  H           1      36.673 -15.241   0.328  0.00  0.00     0.157 HD
HETATM   30  H           1      36.704 -13.688   1.245  0.00  0.00     0.157 HD
ENDBRANCH   1  28
BRANCH   7  31
HETATM   31  C           1      39.640 -11.694   1.879  0.00  0.00    -0.026 A 
HETATM   32  C           1      40.728 -11.055   2.353  0.00  0.00     0.009 A 
HETATM   33  C           1      40.880 -10.793   3.660  0.00  0.00     0.001 A 
HETATM   34  C           1      39.933 -11.157   4.537  0.00  0.00     0.000 A 
HETATM   35  C           1      38.832 -11.776   4.089  0.00  0.00     0.001 A 
HETATM   36  C           1      38.694 -12.028   2.778  0.00  0.00     0.009 A 
ENDBRANCH   7  31
TORSDOF 11
ENDMDL
MODEL 2
REMARK VINA RESULT:      -6.0      2.143      4.642
REMARK  11 active torsions:
REMARK  status: ('A' for Active; 'I' for Inactive)
REMARK    1  A    between atoms: C_1  and  C_17 
REMARK    2  A    between atoms: C_1  and  S_18 
REMARK    3  A    between atoms: C_2  and  N_23 
REMARK    4  A    between atoms: C_3  and  C_13 
REMARK    5  A    between atoms: C_6  and  S_18 
REMARK    6  A    between atoms: C_6  and  S_19 
REMARK    7  A    between atoms: C_7  and  C_20 
REMARK    8  A    between atoms: C_7  and  C_21 
REMARK    9  A    between atoms: C_9  and  C_24 
REMARK   10  A    between atoms: C_16  and  C_17 
REMARK   11  A    between atoms: S_19  and  C_20 
ROOT
HETATM    1  C           1      39.992 -15.635   2.286  0.00  0.00     0.092 C 
HETATM    2  C           1      40.480 -13.569   3.414  0.00  0.00     0.156 C 
HETATM    3  C           1      40.923 -14.889   1.370  0.00  0.00     0.127 C 
HETATM    4  C           1      41.543 -13.796   2.280  0.00  0.00     0.136 C 
HETATM    5  C           1      42.807 -14.327   2.879  0.00  0.00     0.079 C 
HETATM    6  N           1      43.811 -14.790   3.233  0.00  0.00    -0.196 NA
HETATM    7  C           1      40.374 -14.329  -0.018  0.00  0.00     0.248 C 
HETATM    8  C           1      42.067 -12.588   0.069  0.00  0.00     0.105 C 
HETATM    9  N           1      39.762 -14.925   3.357  0.00  0.00    -0.350 N 
HETATM   10  N           1      41.494 -13.592  -0.811  0.00  0.00    -0.040 N 
HETATM   11  C           1      42.693 -11.406  -0.634  0.00  0.00     0.075 C 
HETATM   12  C           1      42.023 -12.640   1.419  0.00  0.00     0.036 C 
HETATM   13  H           1      39.148 -15.258   4.113  0.00  0.00     0.163 HD
HETATM   14  H           1      41.038 -13.103  -1.616  0.00  0.00     0.284 HD
HETATM   15  H           1      42.224 -14.220  -1.201  0.00  0.00     0.284 HD
ENDROOT
BRANCH   2  16
HETATM   16  S           1      41.188 -13.425   5.089  0.00  0.00    -0.125 SA
BRANCH  16  17
HETATM   17  C           1      40.569 -14.912   5.930  0.00  0.00     0.077 C 
BRANCH  17  18
HETATM   18  C           1      41.716 -15.929   6.048  0.00  0.00     0.010 C 
BRANCH  18  19
HETATM   19  C           1      41.285 -17.325   5.567  0.00  0.00    -0.004 C 
HETATM   20  C           1      42.139 -17.813   4.389  0.00  0.00     0.005 C 
ENDBRANCH  18  19
ENDBRANCH  17  18
ENDBRANCH  16  17
ENDBRANCH   2  16
BRANCH   2  21
HETATM   21  S           1      39.350 -12.215   2.957  0.00  0.00    -0.125 SA
BRANCH  21  22
HETATM   22  C           1      39.773 -10.969   4.212  0.00  0.00     0.077 C 
BRANCH  22  23
HETATM   23  C           1      40.199  -9.677   3.496  0.00  0.00     0.010 C 
BRANCH  23  24
HETATM   24  C           1      39.494  -9.523   2.139  0.00  0.00    -0.004 C 
HETATM   25  C           1      40.460  -9.050   1.045  0.00  0.00     0.005 C 
ENDBRANCH  23  24
ENDBRANCH  22  23
ENDBRANCH  21  22
ENDBRANCH   2  21
BRANCH   3  26
HETATM   26  C           1      42.020 -15.680   0.751  0.00  0.00     0.105 C 
HETATM   27  N           1      42.248 -16.802   0.565  0.00  0.00    -0.151 N 
ENDBRANCH   3  26
BRANCH   1  28
HETATM   28  N           1      39.492 -16.776   2.055  0.00  0.00    -0.388 N 
HETATM   29  H           1      39.620 -17.569   2.731  0.00  0.00     0.157 HD
HETATM   30  H           1      38.946 -16.952   1.176  0.00  0.00     0.157 HD
ENDBRANCH   1  28
BRANCH   7  31
HETATM   31  C           1      39.069 -13.540   0.028  0.00  0.00    -0.026 A 
HETATM   32  C           1      37.935 -14.005   0.590  0.00  0.00     0.009 A 
HETATM   33  C           1      36.811 -13.273   0.622  0.00  0.00     0.001 A 
HETATM   34  C           1      36.792 -12.039   0.098  0.00  0.00     0.000 A 
HETATM   35  C           1      37.913 -11.546  -0.448  0.00  0.00     0.001 A 
HETATM   36  C           1      39.029 -12.289  -0.470  0.00  0.00     0.009 A 
ENDBRANCH   7  31
TORSDOF 11
ENDMDL
MODEL 3
REMARK VINA RESULT:      -5.9      2.084      4.940
REMARK  11 active torsions:
REMARK  status: ('A' for Active; 'I' for Inactive)
REMARK    1  A    between atoms: C_1  and  C_17 
REMARK    2  A    between atoms: C_1  and  S_18 
REMARK    3  A    between atoms: C_2  and  N_23 
REMARK    4  A    between atoms: C_3  and  C_13 
REMARK    5  A    between atoms: C_6  and  S_18 
REMARK    6  A    between atoms: C_6  and  S_19 
REMARK    7  A    between atoms: C_7  and  C_20 
REMARK    8  A    between atoms: C_7  and  C_21 
REMARK    9  A    between atoms: C_9  and  C_24 
REMARK   10  A    between atoms: C_16  and  C_17 
REMARK   11  A    between atoms: S_19  and  C_20 
ROOT
HETATM    1  C           1      41.769 -12.855   1.760  0.00  0.00     0.092 C 
HETATM    2  C           1      41.360 -14.344  -0.082  0.00  0.00     0.156 C 
HETATM    3  C           1      40.399 -12.498   1.253  0.00  0.00     0.127 C 
HETATM    4  C           1      39.997 -13.715   0.379  0.00  0.00     0.136 C 
HETATM    5  C           1      39.257 -14.698   1.231  0.00  0.00     0.079 C 
HETATM    6  N           1      38.626 -15.361   1.945  0.00  0.00    -0.196 NA
HETATM    7  C           1      40.171 -11.093   0.535  0.00  0.00     0.248 C 
HETATM    8  C           1      38.335 -12.082  -0.712  0.00  0.00     0.105 C 
HETATM    9  N           1      42.268 -13.826   1.044  0.00  0.00    -0.350 N 
HETATM   10  N           1      38.689 -10.922   0.088  0.00  0.00    -0.040 N 
HETATM   11  C           1      37.227 -11.852  -1.713  0.00  0.00     0.075 C 
HETATM   12  C           1      38.956 -13.281  -0.638  0.00  0.00     0.036 C 
HETATM   13  H           1      43.200 -14.219   1.228  0.00  0.00     0.163 HD
HETATM   14  H           1      38.641 -10.074  -0.522  0.00  0.00     0.284 HD
HETATM   15  H           1      38.021 -10.780   0.871  0.00  0.00     0.284 HD
ENDROOT
BRANCH   2  16
HETATM   16  S           1      41.414 -16.166   0.004  0.00  0.00    -0.125 SA
BRANCH  16  17
HETATM   17  C           1      42.555 -16.482   1.383  0.00  0.00     0.077 C 
BRANCH  17  18
HETATM   18  C           1      43.586 -17.534   0.942  0.00  0.00     0.010 C 
BRANCH  18  19
HETATM   19  C           1      43.460 -18.827   1.765  0.00  0.00    -0.004 C 
HETATM   20  C           1      43.811 -18.602   3.242  0.00  0.00     0.005 C 
ENDBRANCH  18  19
ENDBRANCH  17  18
ENDBRANCH  16  17
ENDBRANCH   2  16
BRANCH   2  21
HETATM   21  S           1      41.862 -13.653  -1.691  0.00  0.00    -0.125 SA
BRANCH  21  22
HETATM   22  C           1      41.376 -14.997  -2.815  0.00  0.00     0.077 C 
BRANCH  22  23
HETATM   23  C           1      40.175 -14.527  -3.652  0.00  0.00     0.010 C 
BRANCH  23  24
HETATM   24  C           1      39.189 -15.674  -3.921  0.00  0.00    -0.004 C 
HETATM   25  C           1      37.737 -15.250  -3.660  0.00  0.00     0.005 C 
ENDBRANCH  23  24
ENDBRANCH  22  23
ENDBRANCH  21  22
ENDBRANCH   2  21
BRANCH   3  26
HETATM   26  C           1      39.347 -12.275   2.282  0.00  0.00     0.105 C 
HETATM   27  N           1      39.241 -11.655   3.256  0.00  0.00    -0.151 N 
ENDBRANCH   3  26
BRANCH   1  28
HETATM   28  N           1      42.363 -12.295   2.729  0.00  0.00    -0.388 N 
HETATM   29  H           1      42.025 -12.418   3.715  0.00  0.00     0.157 HD
HETATM   30  H           1      43.203 -11.687   2.561  0.00  0.00     0.157 HD
ENDBRANCH   1  28
BRANCH   7  31
HETATM   31  C           1      41.164 -10.712  -0.559  0.00  0.00    -0.026 A 
HETATM   32  C           1      40.814 -10.493  -1.842  0.00  0.00     0.009 A 
HETATM   33  C           1      41.717 -10.146  -2.772  0.00  0.00     0.001 A 
HETATM   34  C           1      43.007  -9.995  -2.438  0.00  0.00     0.000 A 
HETATM   35  C           1      43.377 -10.188  -1.164  0.00  0.00     0.001 A 
HETATM   36  C           1      42.461 -10.532  -0.246  0.00  0.00     0.009 A 
ENDBRANCH   7  31
TORSDOF 11
ENDMDL
MODEL 4
REMARK VINA RESULT:      -5.8      1.892      4.273
REMARK  11 active torsions:
REMARK  status: ('A' for Active; 'I' for Inactive)
REMARK    1  A    between atoms: C_1  and  C_17 
REMARK    2  A    between atoms: C_1  and  S_18 
REMARK    3  A    between atoms: C_2  and  N_23 
REMARK    4  A    between atoms: C_3  and  C_13 
REMARK    5  A    between atoms: C_6  and  S_18 
REMARK    6  A    between atoms: C_6  and  S_19 
REMARK    7  A    between atoms: C_7  and  C_20 
REMARK    8  A    between atoms: C_7  and  C_21 
REMARK    9  A    between atoms: C_9  and  C_24 
REMARK   10  A    between atoms: C_16  and  C_17 
REMARK   11  A    between atoms: S_19  and  C_20 
ROOT
HETATM    1  C           1      38.079 -13.961   0.474  0.00  0.00     0.092 C 
HETATM    2  C           1      40.178 -13.488  -0.597  0.00  0.00     0.156 C 
HETATM    3  C           1      38.396 -12.533   0.827  0.00  0.00     0.127 C 
HETATM    4  C           1      39.493 -12.134  -0.193  0.00  0.00     0.136 C 
HETATM    5  C           1      38.837 -11.528  -1.395  0.00  0.00     0.079 C 
HETATM    6  N           1      38.252 -11.001  -2.247  0.00  0.00    -0.196 NA
HETATM    7  C           1      38.760 -12.162   2.334  0.00  0.00     0.248 C 
HETATM    8  C           1      40.069 -10.290   1.507  0.00  0.00     0.105 C 
HETATM    9  N           1      39.029 -14.454  -0.272  0.00  0.00    -0.350 N 
HETATM   10  N           1      39.053 -10.640   2.485  0.00  0.00    -0.040 N 
HETATM   11  C           1      40.913  -9.090   1.866  0.00  0.00     0.075 C 
HETATM   12  C           1      40.312 -10.986   0.373  0.00  0.00     0.036 C 
HETATM   13  H           1      39.003 -15.421  -0.624  0.00  0.00     0.163 HD
HETATM   14  H           1      39.450 -10.490   3.441  0.00  0.00     0.284 HD
HETATM   15  H           1      38.214 -10.033   2.397  0.00  0.00     0.284 HD
ENDROOT
BRANCH   2  16
HETATM   16  S           1      40.511 -13.658  -2.383  0.00  0.00    -0.125 SA
BRANCH  16  17
HETATM   17  C           1      42.275 -13.239  -2.516  0.00  0.00     0.077 C 
BRANCH  17  18
HETATM   18  C           1      42.426 -12.019  -3.440  0.00  0.00     0.010 C 
BRANCH  18  19
HETATM   19  C           1      42.321 -10.701  -2.655  0.00  0.00    -0.004 C 
HETATM   20  C           1      43.403 -10.592  -1.572  0.00  0.00     0.005 C 
ENDBRANCH  18  19
ENDBRANCH  17  18
ENDBRANCH  16  17
ENDBRANCH   2  16
BRANCH   2  21
HETATM   21  S           1      41.619 -13.810   0.469  0.00  0.00    -0.125 SA
BRANCH  21  22
HETATM   22  C           1      41.720 -15.623   0.383  0.00  0.00     0.077 C 
BRANCH  22  23
HETATM   23  C           1      42.860 -16.095   1.301  0.00  0.00     0.010 C 
BRANCH  23  24
HETATM   24  C           1      43.338 -17.507   0.929  0.00  0.00    -0.004 C 
HETATM   25  C           1      43.991 -18.221   2.120  0.00  0.00     0.005 C 
ENDBRANCH  23  24
ENDBRANCH  22  23
ENDBRANCH  21  22
ENDBRANCH   2  21
BRANCH   3  26
HETATM   26  C           1      37.273 -11.562   0.734  0.00  0.00     0.105 C 
HETATM   27  N           1      36.117 -11.614   0.682  0.00  0.00    -0.151 N 
ENDBRANCH   3  26
BRANCH   1  28
HETATM   28  N           1      37.051 -14.600   0.850  0.00  0.00    -0.388 N 
HETATM   29  H           1      37.050 -15.146   1.746  0.00  0.00     0.157 HD
HETATM   30  H           1      36.180 -14.603   0.262  0.00  0.00     0.157 HD
ENDBRANCH   1  28
BRANCH   7  31
HETATM   31  C           1      39.805 -13.034   3.023  0.00  0.00    -0.026 A 
HETATM   32  C           1      40.971 -12.563   3.505  0.00  0.00     0.009 A 
HETATM   33  C           1      41.858 -13.362   4.117  0.00  0.00     0.001 A 
HETATM   34  C           1      41.594 -14.667   4.278  0.00  0.00     0.000 A 
HETATM   35  C           1      40.431 -15.157   3.827  0.00  0.00     0.001 A 
HETATM   36  C           1      39.554 -14.344   3.218  0.00  0.00     0.009 A 
ENDBRANCH   7  31
TORSDOF 11
ENDMDL
MODEL 5
REMARK VINA RESULT:      -5.7      2.603      5.581
REMARK  11 active torsions:
REMARK  status: ('A' for Active; 'I' for Inactive)
REMARK    1  A    between atoms: C_1  and  C_17 
REMARK    2  A    between atoms: C_1  and  S_18 
REMARK    3  A    between atoms: C_2  and  N_23 
REMARK    4  A    between atoms: C_3  and  C_13 
REMARK    5  A    between atoms: C_6  and  S_18 
REMARK    6  A    between atoms: C_6  and  S_19 
REMARK    7  A    between atoms: C_7  and  C_20 
REMARK    8  A    between atoms: C_7  and  C_21 
REMARK    9  A    between atoms: C_9  and  C_24 
REMARK   10  A    between atoms: C_16  and  C_17 
REMARK   11  A    between atoms: S_19  and  C_20 
ROOT
HETATM    1  C           1      40.941 -14.977  -1.446  0.00  0.00     0.092 C 
HETATM    2  C           1      39.455 -14.028   0.188  0.00  0.00     0.156 C 
HETATM    3  C           1      41.014 -13.489  -1.654  0.00  0.00     0.127 C 
HETATM    4  C           1      40.405 -12.901  -0.354  0.00  0.00     0.136 C 
HETATM    5  C           1      41.507 -12.662   0.630  0.00  0.00     0.079 C 
HETATM    6  N           1      42.430 -12.435   1.297  0.00  0.00    -0.196 NA
HETATM    7  C           1      40.411 -12.855  -2.986  0.00  0.00     0.248 C 
HETATM    8  C           1      40.027 -10.786  -1.770  0.00  0.00     0.105 C 
HETATM    9  N           1      40.110 -15.248  -0.476  0.00  0.00    -0.350 N 
HETATM   10  N           1      40.589 -11.308  -3.004  0.00  0.00    -0.040 N 
HETATM   11  C           1      39.546  -9.356  -1.843  0.00  0.00     0.075 C 
HETATM   12  C           1      39.878 -11.504  -0.634  0.00  0.00     0.036 C 
HETATM   13  H           1      39.917 -16.212  -0.173  0.00  0.00     0.163 HD
HETATM   14  H           1      40.027 -10.937  -3.805  0.00  0.00     0.284 HD
HETATM   15  H           1      41.570 -10.993  -3.140  0.00  0.00     0.284 HD
ENDROOT
BRANCH   2  16
HETATM   16  S           1      39.558 -14.296   1.989  0.00  0.00    -0.125 SA
BRANCH  16  17
HETATM   17  C           1      40.243 -15.975   2.119  0.00  0.00     0.077 C 
BRANCH  17  18
HETATM   18  C           1      41.602 -15.902   2.835  0.00  0.00     0.010 C 
BRANCH  18  19
HETATM   19  C           1      42.770 -16.026   1.842  0.00  0.00    -0.004 C 
HETATM   20  C           1      42.709 -17.337   1.046  0.00  0.00     0.005 C 
ENDBRANCH  18  19
ENDBRANCH  17  18
ENDBRANCH  16  17
ENDBRANCH   2  16
BRANCH   2  21
HETATM   21  S           1      37.762 -13.780  -0.438  0.00  0.00    -0.125 SA
BRANCH  21  22
HETATM   22  C           1      37.085 -12.655   0.821  0.00  0.00     0.077 C 
BRANCH  22  23
HETATM   23  C           1      36.187 -11.620   0.122  0.00  0.00     0.010 C 
BRANCH  23  24
HETATM   24  C           1      35.580 -10.628   1.126  0.00  0.00    -0.004 C 
HETATM   25  C           1      34.046 -10.626   1.070  0.00  0.00     0.005 C 
ENDBRANCH  23  24
ENDBRANCH  22  23
ENDBRANCH  21  22
ENDBRANCH   2  21
BRANCH   3  26
HETATM   26  C           1      42.372 -12.913  -1.854  0.00  0.00     0.105 C 
HETATM   27  N           1      43.155 -12.882  -2.707  0.00  0.00    -0.151 N 
ENDBRANCH   3  26
BRANCH   1  28
HETATM   28  N           1      41.577 -15.846  -2.114  0.00  0.00    -0.388 N 
HETATM   29  H           1      42.616 -15.771  -2.247  0.00  0.00     0.157 HD
HETATM   30  H           1      41.073 -16.654  -2.556  0.00  0.00     0.157 HD
ENDBRANCH   1  28
BRANCH   7  31
HETATM   31  C           1      39.002 -13.290  -3.377  0.00  0.00    -0.026 A 
HETATM   32  C           1      37.971 -12.436  -3.528  0.00  0.00     0.009 A 
HETATM   33  C           1      36.749 -12.858  -3.886  0.00  0.00     0.001 A 
HETATM   34  C           1      36.525 -14.160  -4.119  0.00  0.00     0.000 A 
HETATM   35  C           1      37.539 -15.028  -3.996  0.00  0.00     0.001 A 
HETATM   36  C           1      38.756 -14.588  -3.639  0.00  0.00     0.009 A 
ENDBRANCH   7  31
TORSDOF 11
ENDMDL
MODEL 6
REMARK VINA RESULT:      -5.7      2.145      4.156
REMARK  11 active torsions:
REMARK  status: ('A' for Active; 'I' for Inactive)
REMARK    1  A    between atoms: C_1  and  C_17 
REMARK    2  A    between atoms: C_1  and  S_18 
REMARK    3  A    between atoms: C_2  and  N_23 
REMARK    4  A    between atoms: C_3  and  C_13 
REMARK    5  A    between atoms: C_6  and  S_18 
REMARK    6  A    between atoms: C_6  and  S_19 
REMARK    7  A    between atoms: C_7  and  C_20 
REMARK    8  A    between atoms: C_7  and  C_21 
REMARK    9  A    between atoms: C_9  and  C_24 
REMARK   10  A    between atoms: C_16  and  C_17 
REMARK   11  A    between atoms: S_19  and  C_20 
ROOT
HETATM    1  C           1      38.250 -14.019   0.105  0.00  0.00     0.092 C 
HETATM    2  C           1      40.349 -13.840  -1.053  0.00  0.00     0.156 C 
HETATM    3  C           1      38.699 -12.598   0.308  0.00  0.00     0.127 C 
HETATM    4  C           1      39.796 -12.397  -0.770  0.00  0.00     0.136 C 
HETATM    5  C           1      39.159 -11.855  -2.012  0.00  0.00     0.079 C 
HETATM    6  N           1      38.595 -11.363  -2.899  0.00  0.00    -0.196 NA
HETATM    7  C           1      39.138 -12.116   1.763  0.00  0.00     0.248 C 
HETATM    8  C           1      40.578 -10.456   0.726  0.00  0.00     0.105 C 
HETATM    9  N           1      39.131 -14.665  -0.609  0.00  0.00    -0.350 N 
HETATM   10  N           1      39.565 -10.619   1.755  0.00  0.00    -0.040 N 
HETATM   11  C           1      41.533  -9.306   0.947  0.00  0.00     0.075 C 
HETATM   12  C           1      40.726 -11.277  -0.338  0.00  0.00     0.036 C 
HETATM   13  H           1      39.012 -15.655  -0.863  0.00  0.00     0.163 HD
HETATM   14  H           1      40.002 -10.413   2.683  0.00  0.00     0.284 HD
HETATM   15  H           1      38.779  -9.952   1.626  0.00  0.00     0.284 HD
ENDROOT
BRANCH   2  16
HETATM   16  S           1      40.613 -14.211  -2.820  0.00  0.00    -0.125 SA
BRANCH  16  17
HETATM   17  C           1      39.787 -15.815  -3.034  0.00  0.00     0.077 C 
BRANCH  17  18
HETATM   18  C           1      38.686 -15.668  -4.097  0.00  0.00     0.010 C 
BRANCH  18  19
HETATM   19  C           1      37.367 -15.176  -3.480  0.00  0.00    -0.004 C 
HETATM   20  C           1      36.565 -14.308  -4.459  0.00  0.00     0.005 C 
ENDBRANCH  18  19
ENDBRANCH  17  18
ENDBRANCH  16  17
ENDBRANCH   2  16
BRANCH   2  21
HETATM   21  S           1      41.788 -14.183   0.010  0.00  0.00    -0.125 SA
BRANCH  21  22
HETATM   22  C           1      41.634 -15.980   0.238  0.00  0.00     0.077 C 
BRANCH  22  23
HETATM   23  C           1      42.868 -16.485   1.004  0.00  0.00     0.010 C 
BRANCH  23  24
HETATM   24  C           1      42.617 -17.864   1.635  0.00  0.00    -0.004 C 
HETATM   25  C           1      43.301 -17.997   3.003  0.00  0.00     0.005 C 
ENDBRANCH  23  24
ENDBRANCH  22  23
ENDBRANCH  21  22
ENDBRANCH   2  21
BRANCH   3  26
HETATM   26  C           1      37.662 -11.544   0.143  0.00  0.00     0.105 C 
HETATM   27  N           1      36.586 -11.353   0.531  0.00  0.00    -0.151 N 
ENDBRANCH   3  26
BRANCH   1  28
HETATM   28  N           1      37.182 -14.526   0.563  0.00  0.00    -0.388 N 
HETATM   29  H           1      36.288 -14.490   0.016  0.00  0.00     0.157 HD
HETATM   30  H           1      37.172 -14.984   1.508  0.00  0.00     0.157 HD
ENDBRANCH   1  28
BRANCH   7  31
HETATM   31  C           1      40.124 -13.007   2.513  0.00  0.00    -0.026 A 
HETATM   32  C           1      41.376 -12.628   2.835  0.00  0.00     0.009 A 
HETATM   33  C           1      42.208 -13.437   3.508  0.00  0.00     0.001 A 
HETATM   34  C           1      41.802 -14.656   3.892  0.00  0.00     0.000 A 
HETATM   35  C           1      40.554 -15.049   3.602  0.00  0.00     0.001 A 
HETATM   36  C           1      39.734 -14.226   2.930  0.00  0.00     0.009 A 
ENDBRANCH   7  31
TORSDOF 11
ENDMDL
MODEL 7
REMARK VINA RESULT:      -5.6      2.901      5.592
REMARK  11 active torsions:
REMARK  status: ('A' for Active; 'I' for Inactive)
REMARK    1  A    between atoms: C_1  and  C_17 
REMARK    2  A    between atoms: C_1  and  S_18 
REMARK    3  A    between atoms: C_2  and  N_23 
REMARK    4  A    between atoms: C_3  and  C_13 
REMARK    5  A    between atoms: C_6  and  S_18 
REMARK    6  A    between atoms: C_6  and  S_19 
REMARK    7  A    between atoms: C_7  and  C_20 
REMARK    8  A    between atoms: C_7  and  C_21 
REMARK    9  A    between atoms: C_9  and  C_24 
REMARK   10  A    between atoms: C_16  and  C_17 
REMARK   11  A    between atoms: S_19  and  C_20 
ROOT
HETATM    1  C           1      43.236 -14.380   3.750  0.00  0.00     0.092 C 
HETATM    2  C           1      41.113 -15.506   3.702  0.00  0.00     0.156 C 
HETATM    3  C           1      42.499 -13.896   4.968  0.00  0.00     0.127 C 
HETATM    4  C           1      41.352 -14.925   5.142  0.00  0.00     0.136 C 
HETATM    5  C           1      41.819 -16.020   6.050  0.00  0.00     0.079 C 
HETATM    6  N           1      42.235 -16.779   6.822  0.00  0.00    -0.196 NA
HETATM    7  C           1      42.012 -12.379   5.037  0.00  0.00     0.248 C 
HETATM    8  C           1      40.218 -13.073   6.522  0.00  0.00     0.105 C 
HETATM    9  N           1      42.492 -15.224   3.088  0.00  0.00    -0.350 N 
HETATM   10  N           1      41.273 -12.085   6.376  0.00  0.00    -0.040 N 
HETATM   11  C           1      39.046 -12.634   7.368  0.00  0.00     0.075 C 
HETATM   12  C           1      40.216 -14.285   5.922  0.00  0.00     0.036 C 
HETATM   13  H           1      42.813 -15.674   2.220  0.00  0.00     0.163 HD
HETATM   14  H           1      40.831 -11.141   6.289  0.00  0.00     0.284 HD
HETATM   15  H           1      41.893 -12.063   7.209  0.00  0.00     0.284 HD
ENDROOT
BRANCH   2  16
HETATM   16  S           1      40.879 -17.315   3.651  0.00  0.00    -0.125 SA
BRANCH  16  17
HETATM   17  C           1      42.283 -17.884   2.646  0.00  0.00     0.077 C 
BRANCH  17  18
HETATM   18  C           1      43.198 -18.756   3.522  0.00  0.00     0.010 C 
BRANCH  18  19
HETATM   19  C           1      44.212 -19.540   2.672  0.00  0.00    -0.004 C 
HETATM   20  C           1      43.551 -20.705   1.922  0.00  0.00     0.005 C 
ENDBRANCH  18  19
ENDBRANCH  17  18
ENDBRANCH  16  17
ENDBRANCH   2  16
BRANCH   2  21
HETATM   21  S           1      39.814 -14.557   2.847  0.00  0.00    -0.125 SA
BRANCH  21  22
HETATM   22  C           1      40.214 -14.906   1.108  0.00  0.00     0.077 C 
BRANCH  22  23
HETATM   23  C           1      39.139 -14.260   0.218  0.00  0.00     0.010 C 
BRANCH  23  24
HETATM   24  C           1      37.818 -14.062   0.979  0.00  0.00    -0.004 C 
HETATM   25  C           1      37.079 -12.799   0.519  0.00  0.00     0.005 C 
ENDBRANCH  23  24
ENDBRANCH  22  23
ENDBRANCH  21  22
ENDBRANCH   2  21
BRANCH   3  26
HETATM   26  C           1      43.280 -13.826   6.232  0.00  0.00     0.105 C 
HETATM   27  N           1      44.400 -13.832   6.531  0.00  0.00    -0.151 N 
ENDBRANCH   3  26
BRANCH   1  28
HETATM   28  N           1      44.401 -14.021   3.404  0.00  0.00    -0.388 N 
HETATM   29  H           1      45.178 -13.955   4.106  0.00  0.00     0.157 HD
HETATM   30  H           1      44.608 -13.771   2.405  0.00  0.00     0.157 HD
ENDBRANCH   1  28
BRANCH   7  31
HETATM   31  C           1      41.264 -11.843   3.821  0.00  0.00    -0.026 A 
HETATM   32  C           1      41.768 -11.847   2.571  0.00  0.00     0.009 A 
HETATM   33  C           1      41.071 -11.378   1.526  0.00  0.00     0.001 A 
HETATM   34  C           1      39.831 -10.897   1.701  0.00  0.00     0.000 A 
HETATM   35  C           1      39.298 -10.901   2.931  0.00  0.00     0.001 A 
HETATM   36  C           1      40.008 -11.376   3.965  0.00  0.00     0.009 A 
ENDBRANCH   7  31
TORSDOF 11
ENDMDL
MODEL 8
REMARK VINA RESULT:      -5.5      3.005      6.382
REMARK  11 active torsions:
REMARK  status: ('A' for Active; 'I' for Inactive)
REMARK    1  A    between atoms: C_1  and  C_17 
REMARK    2  A    between atoms: C_1  and  S_18 
REMARK    3  A    between atoms: C_2  and  N_23 
REMARK    4  A    between atoms: C_3  and  C_13 
REMARK    5  A    between atoms: C_6  and  S_18 
REMARK    6  A    between atoms: C_6  and  S_19 
REMARK    7  A    between atoms: C_7  and  C_20 
REMARK    8  A    between atoms: C_7  and  C_21 
REMARK    9  A    between atoms: C_9  and  C_24 
REMARK   10  A    between atoms: C_16  and  C_17 
REMARK   11  A    between atoms: S_19  and  C_20 
ROOT
HETATM    1  C           1      40.760 -15.346   4.944  0.00  0.00     0.092 C 
HETATM    2  C           1      42.753 -14.363   4.029  0.00  0.00     0.156 C 
HETATM    3  C           1      41.399 -16.431   4.120  0.00  0.00     0.127 C 
HETATM    4  C           1      42.849 -15.926   3.903  0.00  0.00     0.136 C 
HETATM    5  C           1      43.716 -16.462   4.999  0.00  0.00     0.079 C 
HETATM    6  N           1      44.325 -16.985   5.837  0.00  0.00    -0.196 NA
HETATM    7  C           1      40.685 -16.919   2.781  0.00  0.00     0.248 C 
HETATM    8  C           1      42.863 -17.551   1.908  0.00  0.00     0.105 C 
HETATM    9  N           1      41.481 -14.260   4.883  0.00  0.00    -0.350 N 
HETATM   10  N           1      41.507 -18.042   2.083  0.00  0.00    -0.040 N 
HETATM   11  C           1      43.626 -18.176   0.763  0.00  0.00     0.075 C 
HETATM   12  C           1      43.425 -16.573   2.655  0.00  0.00     0.036 C 
HETATM   13  H           1      41.217 -13.398   5.380  0.00  0.00     0.163 HD
HETATM   14  H           1      41.088 -18.196   1.137  0.00  0.00     0.284 HD
HETATM   15  H           1      41.493 -18.954   2.581  0.00  0.00     0.284 HD
ENDROOT
BRANCH   2  16
HETATM   16  S           1      44.097 -13.603   5.002  0.00  0.00    -0.125 SA
BRANCH  16  17
HETATM   17  C           1      43.358 -13.417   6.652  0.00  0.00     0.077 C 
BRANCH  17  18
HETATM   18  C           1      44.339 -13.968   7.700  0.00  0.00     0.010 C 
BRANCH  18  19
HETATM   19  C           1      45.340 -12.894   8.156  0.00  0.00    -0.004 C 
HETATM   20  C           1      44.761 -12.008   9.268  0.00  0.00     0.005 C 
ENDBRANCH  18  19
ENDBRANCH  17  18
ENDBRANCH  16  17
ENDBRANCH   2  16
BRANCH   2  21
HETATM   21  S           1      42.497 -13.613   2.388  0.00  0.00    -0.125 SA
BRANCH  21  22
HETATM   22  C           1      41.402 -12.223   2.806  0.00  0.00     0.077 C 
BRANCH  22  23
HETATM   23  C           1      41.304 -11.292   1.586  0.00  0.00     0.010 C 
BRANCH  23  24
HETATM   24  C           1      42.328 -11.668   0.504  0.00  0.00    -0.004 C 
HETATM   25  C           1      41.823 -11.323  -0.903  0.00  0.00     0.005 C 
ENDBRANCH  23  24
ENDBRANCH  22  23
ENDBRANCH  21  22
ENDBRANCH   2  21
BRANCH   3  26
HETATM   26  C           1      41.446 -17.787   4.730  0.00  0.00     0.105 C 
HETATM   27  N           1      40.955 -18.321   5.634  0.00  0.00    -0.151 N 
ENDBRANCH   3  26
BRANCH   1  28
HETATM   28  N           1      39.678 -15.458   5.595  0.00  0.00    -0.388 N 
HETATM   29  H           1      38.793 -15.768   5.125  0.00  0.00     0.157 HD
HETATM   30  H           1      39.647 -15.233   6.621  0.00  0.00     0.157 HD
ENDBRANCH   1  28
BRANCH   7  31
HETATM   31  C           1      40.228 -15.834   1.812  0.00  0.00    -0.026 A 
HETATM   32  C           1      40.805 -15.610   0.615  0.00  0.00     0.009 A 
HETATM   33  C           1      40.363 -14.653  -0.215  0.00  0.00     0.001 A 
HETATM   34  C           1      39.311 -13.895   0.127  0.00  0.00     0.000 A 
HETATM   35  C           1      38.706 -14.112   1.302  0.00  0.00     0.001 A 
HETATM   36  C           1      39.159 -15.074   2.120  0.00  0.00     0.009 A 
ENDBRANCH   7  31
TORSDOF 11
ENDMDL
MODEL 9
REMARK VINA RESULT:      -5.5      2.625      5.476
REMARK  11 active torsions:
REMARK  status: ('A' for Active; 'I' for Inactive)
REMARK    1  A    between atoms: C_1  and  C_17 
REMARK    2  A    between atoms: C_1  and  S_18 
REMARK    3  A    between atoms: C_2  and  N_23 
REMARK    4  A    between atoms: C_3  and  C_13 
REMARK    5  A    between atoms: C_6  and  S_18 
REMARK    6  A    between atoms: C_6  and  S_19 
REMARK    7  A    between atoms: C_7  and  C_20 
REMARK    8  A    between atoms: C_7  and  C_21 
REMARK    9  A    between atoms: C_9  and  C_24 
REMARK   10  A    between atoms: C_16  and  C_17 
REMARK   11  A    between atoms: S_19  and  C_20 
ROOT
HETATM    1  C           1      39.776 -15.071   2.230  0.00  0.00     0.092 C 
HETATM    2  C           1      40.551 -12.988   3.146  0.00  0.00     0.156 C 
HETATM    3  C           1      40.749 -14.527   1.220  0.00  0.00     0.127 C 
HETATM    4  C           1      41.531 -13.441   2.005  0.00  0.00     0.136 C 
HETATM    5  C           1      42.748 -14.066   2.611  0.00  0.00     0.079 C 
HETATM    6  N           1      43.705 -14.614   2.975  0.00  0.00    -0.196 NA
HETATM    7  C           1      40.212 -14.028  -0.195  0.00  0.00     0.248 C 
HETATM    8  C           1      42.100 -12.505  -0.323  0.00  0.00     0.105 C 
HETATM    9  N           1      39.677 -14.247   3.238  0.00  0.00    -0.350 N 
HETATM   10  N           1      41.376 -13.505  -1.088  0.00  0.00    -0.040 N 
HETATM   11  C           1      42.830 -11.473  -1.151  0.00  0.00     0.075 C 
HETATM   12  C           1      42.107 -12.431   1.027  0.00  0.00     0.036 C 
HETATM   13  H           1      39.060 -14.435   4.040  0.00  0.00     0.163 HD
HETATM   14  H           1      40.947 -13.037  -1.920  0.00  0.00     0.284 HD
HETATM   15  H           1      42.010 -14.249  -1.441  0.00  0.00     0.284 HD
ENDROOT
BRANCH   2  16
HETATM   16  S           1      41.342 -12.784   4.778  0.00  0.00    -0.125 SA
BRANCH  16  17
HETATM   17  C           1      40.204 -13.649   5.900  0.00  0.00     0.077 C 
BRANCH  17  18
HETATM   18  C           1      39.253 -12.620   6.533  0.00  0.00     0.010 C 
BRANCH  18  19
HETATM   19  C           1      40.026 -11.526   7.289  0.00  0.00    -0.004 C 
HETATM   20  C           1      39.303 -11.097   8.572  0.00  0.00     0.005 C 
ENDBRANCH  18  19
ENDBRANCH  17  18
ENDBRANCH  16  17
ENDBRANCH   2  16
BRANCH   2  21
HETATM   21  S           1      39.570 -11.553   2.603  0.00  0.00    -0.125 SA
BRANCH  21  22
HETATM   22  C           1      40.170 -10.268   3.741  0.00  0.00     0.077 C 
BRANCH  22  23
HETATM   23  C           1      40.719  -9.096   2.911  0.00  0.00     0.010 C 
BRANCH  23  24
HETATM   24  C           1      40.369  -9.243   1.422  0.00  0.00    -0.004 C 
HETATM   25  C           1      41.357  -8.484   0.526  0.00  0.00     0.005 C 
ENDBRANCH  23  24
ENDBRANCH  22  23
ENDBRANCH  21  22
ENDBRANCH   2  21
BRANCH   3  26
HETATM   26  C           1      41.719 -15.496   0.643  0.00  0.00     0.105 C 
HETATM   27  N           1      41.685 -16.584   0.243  0.00  0.00    -0.151 N 
ENDBRANCH   3  26
BRANCH   1  28
HETATM   28  N           1      39.136 -16.159   2.122  0.00  0.00    -0.388 N 
HETATM   29  H           1      38.092 -16.165   2.014  0.00  0.00     0.157 HD
HETATM   30  H           1      39.641 -17.080   2.148  0.00  0.00     0.157 HD
ENDBRANCH   1  28
BRANCH   7  31
HETATM   31  C           1      39.011 -13.087  -0.181  0.00  0.00    -0.026 A 
HETATM   32  C           1      39.003 -11.877  -0.775  0.00  0.00     0.009 A 
HETATM   33  C           1      37.921 -11.085  -0.751  0.00  0.00     0.001 A 
HETATM   34  C           1      36.800 -11.490  -0.137  0.00  0.00     0.000 A 
HETATM   35  C           1      36.775 -12.698   0.443  0.00  0.00     0.001 A 
HETATM   36  C           1      37.865 -13.480   0.408  0.00  0.00     0.009 A 
ENDBRANCH   7  31
TORSDOF 11
ENDMDL
MODEL 10
REMARK VINA RESULT:      -5.4      2.027      4.851
REMARK  11 active torsions:
REMARK  status: ('A' for Active; 'I' for Inactive)
REMARK    1  A    between atoms: C_1  and  C_17 
REMARK    2  A    between atoms: C_1  and  S_18 
REMARK    3  A    between atoms: C_2  and  N_23 
REMARK    4  A    between atoms: C_3  and  C_13 
REMARK    5  A    between atoms: C_6  and  S_18 
REMARK    6  A    between atoms: C_6  and  S_19 
REMARK    7  A    between atoms: C_7  and  C_20 
REMARK    8  A    between atoms: C_7  and  C_21 
REMARK    9  A    between atoms: C_9  and  C_24 
REMARK   10  A    between atoms: C_16  and  C_17 
REMARK   11  A    between atoms: S_19  and  C_20 
ROOT
HETATM    1  C           1      41.903 -11.725   0.673  0.00  0.00     0.092 C 
HETATM    2  C           1      40.736 -13.486   1.819  0.00  0.00     0.156 C 
HETATM    3  C           1      40.455 -11.320   0.659  0.00  0.00     0.127 C 
HETATM    4  C           1      39.806 -12.222   1.741  0.00  0.00     0.136 C 
HETATM    5  C           1      39.835 -11.501   3.052  0.00  0.00     0.079 C 
HETATM    6  N           1      39.828 -10.838   4.005  0.00  0.00    -0.196 NA
HETATM    7  C           1      39.659 -11.307  -0.722  0.00  0.00     0.248 C 
HETATM    8  C           1      37.605 -11.709   0.512  0.00  0.00     0.105 C 
HETATM    9  N           1      42.037 -12.871   1.282  0.00  0.00    -0.350 N 
HETATM   10  N           1      38.181 -10.861  -0.517  0.00  0.00    -0.040 N 
HETATM   11  C           1      36.105 -11.872   0.438  0.00  0.00     0.075 C 
HETATM   12  C           1      38.321 -12.364   1.453  0.00  0.00     0.036 C 
HETATM   13  H           1      42.953 -13.325   1.400  0.00  0.00     0.163 HD
HETATM   14  H           1      37.673 -11.038  -1.414  0.00  0.00     0.284 HD
HETATM   15  H           1      38.068  -9.853  -0.289  0.00  0.00     0.284 HD
ENDROOT
BRANCH   2  16
HETATM   16  S           1      41.090 -14.055   3.516  0.00  0.00    -0.125 SA
BRANCH  16  17
HETATM   17  C           1      42.897 -14.250   3.518  0.00  0.00     0.077 C 
BRANCH  17  18
HETATM   18  C           1      43.271 -15.397   4.471  0.00  0.00     0.010 C 
BRANCH  18  19
HETATM   19  C           1      42.034 -16.211   4.888  0.00  0.00    -0.004 C 
HETATM   20  C           1      42.242 -17.717   4.675  0.00  0.00     0.005 C 
ENDBRANCH  18  19
ENDBRANCH  17  18
ENDBRANCH  16  17
ENDBRANCH   2  16
BRANCH   2  21
HETATM   21  S           1      40.124 -14.789   0.702  0.00  0.00    -0.125 SA
BRANCH  21  22
HETATM   22  C           1      40.197 -16.244   1.790  0.00  0.00     0.077 C 
BRANCH  22  23
HETATM   23  C           1      41.124 -17.290   1.148  0.00  0.00     0.010 C 
BRANCH  23  24
HETATM   24  C           1      42.510 -16.703   0.839  0.00  0.00    -0.004 C 
HETATM   25  C           1      43.628 -17.729   1.070  0.00  0.00     0.005 C 
ENDBRANCH  23  24
ENDBRANCH  22  23
ENDBRANCH  21  22
ENDBRANCH   2  21
BRANCH   3  26
HETATM   26  C           1      40.160  -9.897   0.978  0.00  0.00     0.105 C 
HETATM   27  N           1      40.572  -8.861   0.661  0.00  0.00    -0.151 N 
ENDBRANCH   3  26
BRANCH   1  28
HETATM   28  N           1      42.857 -11.063   0.163  0.00  0.00    -0.388 N 
HETATM   29  H           1      42.819 -10.743  -0.836  0.00  0.00     0.157 HD
HETATM   30  H           1      43.709 -10.832   0.731  0.00  0.00     0.157 HD
ENDBRANCH   1  28
BRANCH   7  31
HETATM   31  C           1      39.782 -12.550  -1.598  0.00  0.00    -0.026 A 
HETATM   32  C           1      38.734 -13.315  -1.961  0.00  0.00     0.009 A 
HETATM   33  C           1      38.884 -14.394  -2.744  0.00  0.00     0.001 A 
HETATM   34  C           1      40.098 -14.734  -3.201  0.00  0.00     0.000 A 
HETATM   35  C           1      41.154 -13.977  -2.872  0.00  0.00     0.001 A 
HETATM   36  C           1      40.987 -12.900  -2.089  0.00  0.00     0.009 A 
ENDBRANCH   7  31
TORSDOF 11
ENDMDL
