MODEL 1
REMARK VINA RESULT:      -9.7      0.000      0.000
REMARK  5 active torsions:
REMARK  status: ('A' for Active; 'I' for Inactive)
REMARK    1  A    between atoms: C_3  and  C_4 
REMARK    2  A    between atoms: C_6  and  N_7 
REMARK       I    between atoms: N_7  and  C_8 
REMARK    3  A    between atoms: C_8  and  C_9 
REMARK    4  A    between atoms: C_14  and  O_15 
REMARK    5  A    between atoms: O_15  and  C_16 
ROOT
HETATM    1  N   UNL     1      44.881 -14.733   6.749  1.00  0.00    -0.322 N 
HETATM    2  C   UNL     1      44.212 -15.894   7.097  1.00  0.00     0.272 C 
HETATM    3  O   UNL     1      43.749 -16.125   8.212  1.00  0.00    -0.266 OA
HETATM    4  H   UNL     1      45.308 -14.720   5.832  1.00  0.00     0.169 HD
ENDROOT
BRANCH   2   5
HETATM    5  C   UNL     1      44.118 -16.880   6.038  1.00  0.00     0.102 A 
HETATM    6  N   UNL     1      43.324 -16.664   4.930  1.00  0.00    -0.351 N 
HETATM    7  H   UNL     1      42.775 -15.826   4.787  1.00  0.00     0.166 HD
HETATM    8  C   UNL     1      43.385 -17.723   4.056  1.00  0.00     0.045 A 
HETATM    9  C   UNL     1      44.255 -18.658   4.608  1.00  0.00     0.026 A 
HETATM   10  C   UNL     1      42.747 -17.915   2.828  1.00  0.00     0.030 A 
HETATM   11  C   UNL     1      44.508 -19.861   3.912  1.00  0.00     0.087 A 
HETATM   12  C   UNL     1      44.710 -18.118   5.849  1.00  0.00     0.052 A 
HETATM   13  C   UNL     1      43.899 -20.052   2.662  1.00  0.00     0.038 A 
HETATM   14  C   UNL     1      43.027 -19.097   2.137  1.00  0.00     0.005 A 
BRANCH  11  15
HETATM   15  O   UNL     1      45.382 -20.754   4.474  1.00  0.00    -0.289 OA
BRANCH  15  16
HETATM   16  C   UNL     1      44.761 -21.904   5.027  1.00  0.00     0.505 C 
HETATM   17  F   UNL     1      45.713 -22.838   5.274  1.00  0.00    -0.184 F 
HETATM   18  F   UNL     1      44.249 -21.542   6.231  1.00  0.00    -0.184 F 
ENDBRANCH  15  16
ENDBRANCH  11  15
ENDBRANCH   2   5
BRANCH   1  19
HETATM   19  C   UNL     1      45.124 -13.609   7.566  1.00  0.00     0.035 A 
HETATM   20  C   UNL     1      44.227 -13.152   8.534  1.00  0.00     0.044 A 
HETATM   21  C   UNL     1      44.538 -12.066   9.356  1.00  0.00     0.010 A 
HETATM   22  C   UNL     1      45.749 -11.390   9.167  1.00  0.00     0.015 A 
HETATM   23  C   UNL     1      46.638 -11.816   8.179  1.00  0.00     0.003 A 
HETATM   24  C   UNL     1      46.328 -12.922   7.385  1.00  0.00     0.029 A 
BRANCH  21  25
HETATM   25  C   UNL     1      43.580 -11.600  10.430  1.00  0.00     0.117 A 
HETATM   26  N   UNL     1      42.577 -10.685  10.398  1.00  0.00    -0.346 N 
HETATM   27  C   UNL     1      42.064  -9.977   9.223  1.00  0.00     0.157 C 
HETATM   28  C   UNL     1      42.018 -10.548  11.666  1.00  0.00     0.109 A 
HETATM   29  C   UNL     1      42.649 -11.436  12.477  1.00  0.00     0.107 A 
HETATM   30  N   UNL     1      43.572 -12.072  11.693  1.00  0.00    -0.350 N 
HETATM   31  H   UNL     1      44.225 -12.773  12.029  1.00  0.00     0.166 HD
ENDBRANCH  21  25
ENDBRANCH   1  19
TORSDOF 5
ENDMDL
MODEL 2
REMARK VINA RESULT:      -9.3      2.320      2.834
REMARK  5 active torsions:
REMARK  status: ('A' for Active; 'I' for Inactive)
REMARK    1  A    between atoms: C_3  and  C_4 
REMARK    2  A    between atoms: C_6  and  N_7 
REMARK       I    between atoms: N_7  and  C_8 
REMARK    3  A    between atoms: C_8  and  C_9 
REMARK    4  A    between atoms: C_14  and  O_15 
REMARK    5  A    between atoms: O_15  and  C_16 
ROOT
HETATM    1  N   UNL     1      44.803 -14.716   6.623  1.00  0.00    -0.322 N 
HETATM    2  C   UNL     1      44.184 -15.908   6.961  1.00  0.00     0.272 C 
HETATM    3  O   UNL     1      43.811 -16.202   8.094  1.00  0.00    -0.266 OA
HETATM    4  H   UNL     1      45.159 -14.649   5.678  1.00  0.00     0.169 HD
ENDROOT
BRANCH   2   5
HETATM    5  C   UNL     1      44.027 -16.842   5.863  1.00  0.00     0.102 A 
HETATM    6  N   UNL     1      44.673 -18.062   5.865  1.00  0.00    -0.351 N 
HETATM    7  H   UNL     1      45.277 -18.376   6.614  1.00  0.00     0.166 HD
HETATM    8  C   UNL     1      44.383 -18.784   4.733  1.00  0.00     0.045 A 
HETATM    9  C   UNL     1      43.512 -18.013   3.969  1.00  0.00     0.026 A 
HETATM   10  C   UNL     1      44.816 -20.052   4.338  1.00  0.00     0.030 A 
HETATM   11  C   UNL     1      43.043 -18.519   2.736  1.00  0.00     0.087 A 
HETATM   12  C   UNL     1      43.294 -16.799   4.688  1.00  0.00     0.052 A 
HETATM   13  C   UNL     1      43.446 -19.804   2.342  1.00  0.00     0.038 A 
HETATM   14  C   UNL     1      44.325 -20.551   3.128  1.00  0.00     0.005 A 
BRANCH  11  15
HETATM   15  O   UNL     1      42.174 -17.742   2.016  1.00  0.00    -0.289 OA
BRANCH  15  16
HETATM   16  C   UNL     1      42.807 -16.820   1.142  1.00  0.00     0.505 C 
HETATM   17  F   UNL     1      44.046 -17.283   0.842  1.00  0.00    -0.184 F 
HETATM   18  F   UNL     1      42.101 -16.820  -0.017  1.00  0.00    -0.184 F 
ENDBRANCH  15  16
ENDBRANCH  11  15
ENDBRANCH   2   5
BRANCH   1  19
HETATM   19  C   UNL     1      45.088 -13.629   7.475  1.00  0.00     0.035 A 
HETATM   20  C   UNL     1      44.211 -13.176   8.463  1.00  0.00     0.044 A 
HETATM   21  C   UNL     1      44.562 -12.128   9.319  1.00  0.00     0.010 A 
HETATM   22  C   UNL     1      45.793 -11.486   9.144  1.00  0.00     0.015 A 
HETATM   23  C   UNL     1      46.662 -11.908   8.137  1.00  0.00     0.003 A 
HETATM   24  C   UNL     1      46.312 -12.976   7.308  1.00  0.00     0.029 A 
BRANCH  21  25
HETATM   25  C   UNL     1      43.626 -11.667  10.414  1.00  0.00     0.117 A 
HETATM   26  N   UNL     1      42.619 -10.755  10.405  1.00  0.00    -0.346 N 
HETATM   27  C   UNL     1      42.080 -10.046   9.242  1.00  0.00     0.157 C 
HETATM   28  C   UNL     1      42.087 -10.622  11.684  1.00  0.00     0.109 A 
HETATM   29  C   UNL     1      42.738 -11.510  12.481  1.00  0.00     0.107 A 
HETATM   30  N   UNL     1      43.646 -12.142  11.676  1.00  0.00    -0.350 N 
HETATM   31  H   UNL     1      44.308 -12.841  11.996  1.00  0.00     0.166 HD
ENDBRANCH  21  25
ENDBRANCH   1  19
TORSDOF 5
ENDMDL
MODEL 3
REMARK VINA RESULT:      -8.9      5.845      8.646
REMARK  5 active torsions:
REMARK  status: ('A' for Active; 'I' for Inactive)
REMARK    1  A    between atoms: C_3  and  C_4 
REMARK    2  A    between atoms: C_6  and  N_7 
REMARK       I    between atoms: N_7  and  C_8 
REMARK    3  A    between atoms: C_8  and  C_9 
REMARK    4  A    between atoms: C_14  and  O_15 
REMARK    5  A    between atoms: O_15  and  C_16 
ROOT
HETATM    1  N   UNL     1      40.874 -16.214   1.933  1.00  0.00    -0.322 N 
HETATM    2  C   UNL     1      41.614 -16.009   3.086  1.00  0.00     0.272 C 
HETATM    3  O   UNL     1      41.692 -14.938   3.684  1.00  0.00    -0.266 OA
HETATM    4  H   UNL     1      40.987 -17.112   1.482  1.00  0.00     0.169 HD
ENDROOT
BRANCH   2   5
HETATM    5  C   UNL     1      42.350 -17.170   3.546  1.00  0.00     0.102 A 
HETATM    6  N   UNL     1      42.448 -17.468   4.891  1.00  0.00    -0.351 N 
HETATM    7  H   UNL     1      42.020 -16.913   5.621  1.00  0.00     0.166 HD
HETATM    8  C   UNL     1      43.188 -18.607   5.099  1.00  0.00     0.045 A 
HETATM    9  C   UNL     1      43.580 -19.074   3.848  1.00  0.00     0.026 A 
HETATM   10  C   UNL     1      43.528 -19.255   6.289  1.00  0.00     0.030 A 
HETATM   11  C   UNL     1      44.361 -20.248   3.763  1.00  0.00     0.087 A 
HETATM   12  C   UNL     1      43.048 -18.167   2.882  1.00  0.00     0.052 A 
HETATM   13  C   UNL     1      44.682 -20.926   4.949  1.00  0.00     0.038 A 
HETATM   14  C   UNL     1      44.279 -20.430   6.189  1.00  0.00     0.005 A 
BRANCH  11  15
HETATM   15  O   UNL     1      44.717 -20.690   2.516  1.00  0.00    -0.289 OA
BRANCH  15  16
HETATM   16  C   UNL     1      43.917 -21.756   2.028  1.00  0.00     0.505 C 
HETATM   17  F   UNL     1      42.699 -21.266   1.684  1.00  0.00    -0.184 F 
HETATM   18  F   UNL     1      44.496 -22.197   0.883  1.00  0.00    -0.184 F 
ENDBRANCH  15  16
ENDBRANCH  11  15
ENDBRANCH   2   5
BRANCH   1  19
HETATM   19  C   UNL     1      40.066 -15.275   1.259  1.00  0.00     0.035 A 
HETATM   20  C   UNL     1      40.496 -14.545   0.148  1.00  0.00     0.044 A 
HETATM   21  C   UNL     1      39.638 -13.666  -0.518  1.00  0.00     0.010 A 
HETATM   22  C   UNL     1      38.342 -13.472  -0.028  1.00  0.00     0.015 A 
HETATM   23  C   UNL     1      37.913 -14.169   1.102  1.00  0.00     0.003 A 
HETATM   24  C   UNL     1      38.770 -15.068   1.741  1.00  0.00     0.029 A 
BRANCH  21  25
HETATM   25  C   UNL     1      40.096 -12.909  -1.746  1.00  0.00     0.117 A 
HETATM   26  N   UNL     1      40.296 -13.318  -3.025  1.00  0.00    -0.346 N 
HETATM   27  C   UNL     1      39.982 -14.631  -3.592  1.00  0.00     0.157 C 
HETATM   28  C   UNL     1      40.792 -12.264  -3.788  1.00  0.00     0.109 A 
HETATM   29  C   UNL     1      40.842 -11.174  -2.979  1.00  0.00     0.107 A 
HETATM   30  N   UNL     1      40.393 -11.593  -1.756  1.00  0.00    -0.350 N 
HETATM   31  H   UNL     1      40.346 -11.006  -0.930  1.00  0.00     0.166 HD
ENDBRANCH  21  25
ENDBRANCH   1  19
TORSDOF 5
ENDMDL
MODEL 4
REMARK VINA RESULT:      -8.7      5.917      9.089
REMARK  5 active torsions:
REMARK  status: ('A' for Active; 'I' for Inactive)
REMARK    1  A    between atoms: C_3  and  C_4 
REMARK    2  A    between atoms: C_6  and  N_7 
REMARK       I    between atoms: N_7  and  C_8 
REMARK    3  A    between atoms: C_8  and  C_9 
REMARK    4  A    between atoms: C_14  and  O_15 
REMARK    5  A    between atoms: O_15  and  C_16 
ROOT
HETATM    1  N   UNL     1      41.825 -16.013  -0.218  1.00  0.00    -0.322 N 
HETATM    2  C   UNL     1      41.197 -16.190   1.003  1.00  0.00     0.272 C 
HETATM    3  O   UNL     1      40.140 -15.653   1.328  1.00  0.00    -0.266 OA
HETATM    4  H   UNL     1      42.744 -16.424  -0.313  1.00  0.00     0.169 HD
ENDROOT
BRANCH   2   5
HETATM    5  C   UNL     1      41.906 -17.051   1.930  1.00  0.00     0.102 A 
HETATM    6  N   UNL     1      41.734 -16.928   3.294  1.00  0.00    -0.351 N 
HETATM    7  H   UNL     1      41.117 -16.251   3.723  1.00  0.00     0.166 HD
HETATM    8  C   UNL     1      42.499 -17.841   3.979  1.00  0.00     0.045 A 
HETATM    9  C   UNL     1      43.187 -18.591   3.030  1.00  0.00     0.026 A 
HETATM   10  C   UNL     1      42.624 -18.061   5.353  1.00  0.00     0.030 A 
HETATM   11  C   UNL     1      44.058 -19.617   3.461  1.00  0.00     0.087 A 
HETATM   12  C   UNL     1      42.806 -18.089   1.750  1.00  0.00     0.052 A 
HETATM   13  C   UNL     1      44.168 -19.869   4.837  1.00  0.00     0.038 A 
HETATM   14  C   UNL     1      43.469 -19.095   5.764  1.00  0.00     0.005 A 
BRANCH  11  15
HETATM   15  O   UNL     1      44.708 -20.348   2.501  1.00  0.00    -0.289 OA
BRANCH  15  16
HETATM   16  C   UNL     1      44.168 -21.644   2.294  1.00  0.00     0.505 C 
HETATM   17  F   UNL     1      42.954 -21.521   1.703  1.00  0.00    -0.184 F 
HETATM   18  F   UNL     1      44.973 -22.273   1.401  1.00  0.00    -0.184 F 
ENDBRANCH  15  16
ENDBRANCH  11  15
ENDBRANCH   2   5
BRANCH   1  19
HETATM   19  C   UNL     1      41.375 -15.237  -1.306  1.00  0.00     0.035 A 
HETATM   20  C   UNL     1      41.570 -13.857  -1.400  1.00  0.00     0.044 A 
HETATM   21  C   UNL     1      41.152 -13.140  -2.524  1.00  0.00     0.010 A 
HETATM   22  C   UNL     1      40.476 -13.810  -3.550  1.00  0.00     0.015 A 
HETATM   23  C   UNL     1      40.245 -15.183  -3.451  1.00  0.00     0.003 A 
HETATM   24  C   UNL     1      40.694 -15.893  -2.336  1.00  0.00     0.029 A 
BRANCH  21  25
HETATM   25  C   UNL     1      41.401 -11.652  -2.639  1.00  0.00     0.117 A 
HETATM   26  N   UNL     1      40.694 -10.589  -2.178  1.00  0.00    -0.346 N 
HETATM   27  C   UNL     1      39.521 -10.621  -1.301  1.00  0.00     0.157 C 
HETATM   28  C   UNL     1      41.290  -9.403  -2.599  1.00  0.00     0.109 A 
HETATM   29  C   UNL     1      42.415  -9.743  -3.280  1.00  0.00     0.107 A 
HETATM   30  N   UNL     1      42.465 -11.110  -3.267  1.00  0.00    -0.350 N 
HETATM   31  H   UNL     1      43.179 -11.663  -3.729  1.00  0.00     0.166 HD
ENDBRANCH  21  25
ENDBRANCH   1  19
TORSDOF 5
ENDMDL
MODEL 5
REMARK VINA RESULT:      -8.7      6.204      8.593
REMARK  5 active torsions:
REMARK  status: ('A' for Active; 'I' for Inactive)
REMARK    1  A    between atoms: C_3  and  C_4 
REMARK    2  A    between atoms: C_6  and  N_7 
REMARK       I    between atoms: N_7  and  C_8 
REMARK    3  A    between atoms: C_8  and  C_9 
REMARK    4  A    between atoms: C_14  and  O_15 
REMARK    5  A    between atoms: O_15  and  C_16 
ROOT
HETATM    1  N   UNL     1      40.894 -16.347   1.593  1.00  0.00    -0.322 N 
HETATM    2  C   UNL     1      41.843 -16.241   2.596  1.00  0.00     0.272 C 
HETATM    3  O   UNL     1      42.133 -15.195   3.173  1.00  0.00    -0.266 OA
HETATM    4  H   UNL     1      40.834 -17.242   1.126  1.00  0.00     0.169 HD
ENDROOT
BRANCH   2   5
HETATM    5  C   UNL     1      42.529 -17.478   2.913  1.00  0.00     0.102 A 
HETATM    6  N   UNL     1      42.668 -18.479   1.974  1.00  0.00    -0.351 N 
HETATM    7  H   UNL     1      42.314 -18.415   1.028  1.00  0.00     0.166 HD
HETATM    8  C   UNL     1      43.349 -19.556   2.487  1.00  0.00     0.045 A 
HETATM    9  C   UNL     1      43.673 -19.245   3.804  1.00  0.00     0.026 A 
HETATM   10  C   UNL     1      43.705 -20.766   1.886  1.00  0.00     0.030 A 
HETATM   11  C   UNL     1      44.386 -20.185   4.580  1.00  0.00     0.087 A 
HETATM   12  C   UNL     1      43.156 -17.939   4.059  1.00  0.00     0.052 A 
HETATM   13  C   UNL     1      44.778 -21.391   3.979  1.00  0.00     0.038 A 
HETATM   14  C   UNL     1      44.433 -21.677   2.657  1.00  0.00     0.005 A 
BRANCH  11  15
HETATM   15  O   UNL     1      44.704 -19.841   5.868  1.00  0.00    -0.289 OA
BRANCH  15  16
HETATM   16  C   UNL     1      43.697 -20.153   6.818  1.00  0.00     0.505 C 
HETATM   17  F   UNL     1      43.843 -21.446   7.200  1.00  0.00    -0.184 F 
HETATM   18  F   UNL     1      43.936 -19.393   7.917  1.00  0.00    -0.184 F 
ENDBRANCH  15  16
ENDBRANCH  11  15
ENDBRANCH   2   5
BRANCH   1  19
HETATM   19  C   UNL     1      40.077 -15.319   1.078  1.00  0.00     0.035 A 
HETATM   20  C   UNL     1      40.418 -14.552  -0.039  1.00  0.00     0.044 A 
HETATM   21  C   UNL     1      39.549 -13.580  -0.544  1.00  0.00     0.010 A 
HETATM   22  C   UNL     1      38.340 -13.335   0.116  1.00  0.00     0.015 A 
HETATM   23  C   UNL     1      38.005 -14.072   1.253  1.00  0.00     0.003 A 
HETATM   24  C   UNL     1      38.868 -15.061   1.730  1.00  0.00     0.029 A 
BRANCH  21  25
HETATM   25  C   UNL     1      39.905 -12.780  -1.777  1.00  0.00     0.117 A 
HETATM   26  N   UNL     1      40.044 -13.153  -3.076  1.00  0.00    -0.346 N 
HETATM   27  C   UNL     1      39.746 -14.465  -3.655  1.00  0.00     0.157 C 
HETATM   28  C   UNL     1      40.455 -12.065  -3.841  1.00  0.00     0.109 A 
HETATM   29  C   UNL     1      40.512 -10.992  -3.011  1.00  0.00     0.107 A 
HETATM   30  N   UNL     1      40.151 -11.454  -1.774  1.00  0.00    -0.350 N 
HETATM   31  H   UNL     1      40.132 -10.887  -0.933  1.00  0.00     0.166 HD
ENDBRANCH  21  25
ENDBRANCH   1  19
TORSDOF 5
ENDMDL
MODEL 6
REMARK VINA RESULT:      -8.5      3.672      4.487
REMARK  5 active torsions:
REMARK  status: ('A' for Active; 'I' for Inactive)
REMARK    1  A    between atoms: C_3  and  C_4 
REMARK    2  A    between atoms: C_6  and  N_7 
REMARK       I    between atoms: N_7  and  C_8 
REMARK    3  A    between atoms: C_8  and  C_9 
REMARK    4  A    between atoms: C_14  and  O_15 
REMARK    5  A    between atoms: O_15  and  C_16 
ROOT
HETATM    1  N   UNL     1      41.463 -15.756   4.989  1.00  0.00    -0.322 N 
HETATM    2  C   UNL     1      42.771 -15.965   4.588  1.00  0.00     0.272 C 
HETATM    3  O   UNL     1      43.504 -15.098   4.118  1.00  0.00    -0.266 OA
HETATM    4  H   UNL     1      40.938 -16.579   5.253  1.00  0.00     0.169 HD
ENDROOT
BRANCH   2   5
HETATM    5  C   UNL     1      43.236 -17.332   4.728  1.00  0.00     0.102 A 
HETATM    6  N   UNL     1      43.172 -17.988   5.941  1.00  0.00    -0.351 N 
HETATM    7  H   UNL     1      42.805 -17.570   6.786  1.00  0.00     0.166 HD
HETATM    8  C   UNL     1      43.663 -19.267   5.844  1.00  0.00     0.045 A 
HETATM    9  C   UNL     1      44.052 -19.457   4.521  1.00  0.00     0.026 A 
HETATM   10  C   UNL     1      43.782 -20.263   6.818  1.00  0.00     0.030 A 
HETATM   11  C   UNL     1      44.599 -20.701   4.134  1.00  0.00     0.087 A 
HETATM   12  C   UNL     1      43.778 -18.238   3.831  1.00  0.00     0.052 A 
HETATM   13  C   UNL     1      44.694 -21.719   5.095  1.00  0.00     0.038 A 
HETATM   14  C   UNL     1      44.300 -21.497   6.415  1.00  0.00     0.005 A 
BRANCH  11  15
HETATM   15  O   UNL     1      44.956 -20.861   2.821  1.00  0.00    -0.289 OA
BRANCH  15  16
HETATM   16  C   UNL     1      43.934 -21.410   2.004  1.00  0.00     0.505 C 
HETATM   17  F   UNL     1      43.315 -20.401   1.343  1.00  0.00    -0.184 F 
HETATM   18  F   UNL     1      44.544 -22.174   1.063  1.00  0.00    -0.184 F 
ENDBRANCH  15  16
ENDBRANCH  11  15
ENDBRANCH   2   5
BRANCH   1  19
HETATM   19  C   UNL     1      40.747 -14.541   4.968  1.00  0.00     0.035 A 
HETATM   20  C   UNL     1      40.634 -13.695   6.075  1.00  0.00     0.044 A 
HETATM   21  C   UNL     1      39.958 -12.475   5.988  1.00  0.00     0.010 A 
HETATM   22  C   UNL     1      39.337 -12.120   4.785  1.00  0.00     0.015 A 
HETATM   23  C   UNL     1      39.414 -12.974   3.684  1.00  0.00     0.003 A 
HETATM   24  C   UNL     1      40.118 -14.177   3.774  1.00  0.00     0.029 A 
BRANCH  21  25
HETATM   25  C   UNL     1      39.873 -11.543   7.178  1.00  0.00     0.117 A 
HETATM   26  N   UNL     1      40.359 -10.289   7.367  1.00  0.00    -0.346 N 
HETATM   27  C   UNL     1      41.010  -9.434   6.373  1.00  0.00     0.157 C 
HETATM   28  C   UNL     1      40.084  -9.866   8.665  1.00  0.00     0.109 A 
HETATM   29  C   UNL     1      39.366 -10.852   9.263  1.00  0.00     0.107 A 
HETATM   30  N   UNL     1      39.237 -11.843   8.329  1.00  0.00    -0.350 N 
HETATM   31  H   UNL     1      38.775 -12.730   8.494  1.00  0.00     0.166 HD
ENDBRANCH  21  25
ENDBRANCH   1  19
TORSDOF 5
ENDMDL
MODEL 7
REMARK VINA RESULT:      -8.4      5.927      8.966
REMARK  5 active torsions:
REMARK  status: ('A' for Active; 'I' for Inactive)
REMARK    1  A    between atoms: C_3  and  C_4 
REMARK    2  A    between atoms: C_6  and  N_7 
REMARK       I    between atoms: N_7  and  C_8 
REMARK    3  A    between atoms: C_8  and  C_9 
REMARK    4  A    between atoms: C_14  and  O_15 
REMARK    5  A    between atoms: O_15  and  C_16 
ROOT
HETATM    1  N   UNL     1      42.047 -15.797   1.176  1.00  0.00    -0.322 N 
HETATM    2  C   UNL     1      41.542 -16.236   2.388  1.00  0.00     0.272 C 
HETATM    3  O   UNL     1      40.549 -15.767   2.940  1.00  0.00    -0.266 OA
HETATM    4  H   UNL     1      42.933 -16.194   0.890  1.00  0.00     0.169 HD
ENDROOT
BRANCH   2   5
HETATM    5  C   UNL     1      42.304 -17.300   3.012  1.00  0.00     0.102 A 
HETATM    6  N   UNL     1      42.345 -17.440   4.384  1.00  0.00    -0.351 N 
HETATM    7  H   UNL     1      41.856 -16.829   5.025  1.00  0.00     0.166 HD
HETATM    8  C   UNL     1      43.122 -18.511   4.756  1.00  0.00     0.045 A 
HETATM    9  C   UNL     1      43.599 -19.095   3.586  1.00  0.00     0.026 A 
HETATM   10  C   UNL     1      43.428 -19.004   6.027  1.00  0.00     0.030 A 
HETATM   11  C   UNL     1      44.434 -20.231   3.672  1.00  0.00     0.087 A 
HETATM   12  C   UNL     1      43.078 -18.329   2.499  1.00  0.00     0.052 A 
HETATM   13  C   UNL     1      44.723 -20.755   4.942  1.00  0.00     0.038 A 
HETATM   14  C   UNL     1      44.234 -20.144   6.097  1.00  0.00     0.005 A 
BRANCH  11  15
HETATM   15  O   UNL     1      44.873 -20.792   2.502  1.00  0.00    -0.289 OA
BRANCH  15  16
HETATM   16  C   UNL     1      44.117 -21.917   2.079  1.00  0.00     0.505 C 
HETATM   17  F   UNL     1      42.812 -21.559   1.995  1.00  0.00    -0.184 F 
HETATM   18  F   UNL     1      44.521 -22.216   0.818  1.00  0.00    -0.184 F 
ENDBRANCH  15  16
ENDBRANCH  11  15
ENDBRANCH   2   5
BRANCH   1  19
HETATM   19  C   UNL     1      41.522 -14.784   0.348  1.00  0.00     0.035 A 
HETATM   20  C   UNL     1      40.579 -15.021  -0.656  1.00  0.00     0.044 A 
HETATM   21  C   UNL     1      40.048 -13.974  -1.414  1.00  0.00     0.010 A 
HETATM   22  C   UNL     1      40.512 -12.671  -1.201  1.00  0.00     0.015 A 
HETATM   23  C   UNL     1      41.480 -12.428  -0.225  1.00  0.00     0.003 A 
HETATM   24  C   UNL     1      41.980 -13.478   0.547  1.00  0.00     0.029 A 
BRANCH  21  25
HETATM   25  C   UNL     1      38.997 -14.231  -2.472  1.00  0.00     0.117 A 
HETATM   26  N   UNL     1      37.878 -13.538  -2.806  1.00  0.00    -0.346 N 
HETATM   27  C   UNL     1      37.455 -12.236  -2.285  1.00  0.00     0.157 C 
HETATM   28  C   UNL     1      37.184 -14.212  -3.807  1.00  0.00     0.109 A 
HETATM   29  C   UNL     1      37.920 -15.306  -4.135  1.00  0.00     0.107 A 
HETATM   30  N   UNL     1      39.021 -15.275  -3.324  1.00  0.00    -0.350 N 
HETATM   31  H   UNL     1      39.745 -15.986  -3.312  1.00  0.00     0.166 HD
ENDBRANCH  21  25
ENDBRANCH   1  19
TORSDOF 5
ENDMDL
MODEL 8
REMARK VINA RESULT:      -8.4      6.206      7.771
REMARK  5 active torsions:
REMARK  status: ('A' for Active; 'I' for Inactive)
REMARK    1  A    between atoms: C_3  and  C_4 
REMARK    2  A    between atoms: C_6  and  N_7 
REMARK       I    between atoms: N_7  and  C_8 
REMARK    3  A    between atoms: C_8  and  C_9 
REMARK    4  A    between atoms: C_14  and  O_15 
REMARK    5  A    between atoms: O_15  and  C_16 
ROOT
HETATM    1  N   UNL     1      41.866 -15.821   1.244  1.00  0.00    -0.322 N 
HETATM    2  C   UNL     1      41.725 -16.269   2.547  1.00  0.00     0.272 C 
HETATM    3  O   UNL     1      41.082 -15.688   3.418  1.00  0.00    -0.266 OA
HETATM    4  H   UNL     1      42.513 -16.335   0.661  1.00  0.00     0.169 HD
ENDROOT
BRANCH   2   5
HETATM    5  C   UNL     1      42.439 -17.495   2.846  1.00  0.00     0.102 A 
HETATM    6  N   UNL     1      42.566 -18.496   1.905  1.00  0.00    -0.351 N 
HETATM    7  H   UNL     1      42.182 -18.439   0.970  1.00  0.00     0.166 HD
HETATM    8  C   UNL     1      43.278 -19.561   2.400  1.00  0.00     0.045 A 
HETATM    9  C   UNL     1      43.636 -19.242   3.706  1.00  0.00     0.026 A 
HETATM   10  C   UNL     1      43.635 -20.768   1.791  1.00  0.00     0.030 A 
HETATM   11  C   UNL     1      44.386 -20.170   4.463  1.00  0.00     0.087 A 
HETATM   12  C   UNL     1      43.107 -17.943   3.974  1.00  0.00     0.052 A 
HETATM   13  C   UNL     1      44.778 -21.371   3.853  1.00  0.00     0.038 A 
HETATM   14  C   UNL     1      44.398 -21.665   2.542  1.00  0.00     0.005 A 
BRANCH  11  15
HETATM   15  O   UNL     1      44.737 -19.818   5.740  1.00  0.00    -0.289 OA
BRANCH  15  16
HETATM   16  C   UNL     1      43.747 -20.108   6.714  1.00  0.00     0.505 C 
HETATM   17  F   UNL     1      43.841 -21.417   7.056  1.00  0.00    -0.184 F 
HETATM   18  F   UNL     1      44.059 -19.393   7.825  1.00  0.00    -0.184 F 
ENDBRANCH  15  16
ENDBRANCH  11  15
ENDBRANCH   2   5
BRANCH   1  19
HETATM   19  C   UNL     1      41.292 -14.667   0.670  1.00  0.00     0.035 A 
HETATM   20  C   UNL     1      42.025 -13.523   0.346  1.00  0.00     0.044 A 
HETATM   21  C   UNL     1      41.420 -12.425  -0.270  1.00  0.00     0.010 A 
HETATM   22  C   UNL     1      40.043 -12.452  -0.517  1.00  0.00     0.015 A 
HETATM   23  C   UNL     1      39.294 -13.577  -0.166  1.00  0.00     0.003 A 
HETATM   24  C   UNL     1      39.917 -14.680   0.422  1.00  0.00     0.029 A 
BRANCH  21  25
HETATM   25  C   UNL     1      42.225 -11.203  -0.656  1.00  0.00     0.117 A 
HETATM   26  N   UNL     1      42.716 -10.799  -1.856  1.00  0.00    -0.346 N 
HETATM   27  C   UNL     1      42.468 -11.410  -3.164  1.00  0.00     0.157 C 
HETATM   28  C   UNL     1      43.461  -9.634  -1.696  1.00  0.00     0.109 A 
HETATM   29  C   UNL     1      43.377  -9.283  -0.386  1.00  0.00     0.107 A 
HETATM   30  N   UNL     1      42.603 -10.242   0.211  1.00  0.00    -0.350 N 
HETATM   31  H   UNL     1      42.388 -10.271   1.202  1.00  0.00     0.166 HD
ENDBRANCH  21  25
ENDBRANCH   1  19
TORSDOF 5
ENDMDL
MODEL 9
REMARK VINA RESULT:      -8.2      6.278      8.846
REMARK  5 active torsions:
REMARK  status: ('A' for Active; 'I' for Inactive)
REMARK    1  A    between atoms: C_3  and  C_4 
REMARK    2  A    between atoms: C_6  and  N_7 
REMARK       I    between atoms: N_7  and  C_8 
REMARK    3  A    between atoms: C_8  and  C_9 
REMARK    4  A    between atoms: C_14  and  O_15 
REMARK    5  A    between atoms: O_15  and  C_16 
ROOT
HETATM    1  N   UNL     1      42.079 -16.030   1.004  1.00  0.00    -0.322 N 
HETATM    2  C   UNL     1      41.619 -16.601   2.178  1.00  0.00     0.272 C 
HETATM    3  O   UNL     1      40.654 -16.192   2.821  1.00  0.00    -0.266 OA
HETATM    4  H   UNL     1      42.948 -16.396   0.638  1.00  0.00     0.169 HD
ENDROOT
BRANCH   2   5
HETATM    5  C   UNL     1      42.395 -17.733   2.646  1.00  0.00     0.102 A 
HETATM    6  N   UNL     1      42.614 -18.831   1.839  1.00  0.00    -0.351 N 
HETATM    7  H   UNL     1      42.260 -18.913   0.894  1.00  0.00     0.166 HD
HETATM    8  C   UNL     1      43.371 -19.781   2.481  1.00  0.00     0.045 A 
HETATM    9  C   UNL     1      43.664 -19.282   3.747  1.00  0.00     0.026 A 
HETATM   10  C   UNL     1      43.821 -21.027   2.036  1.00  0.00     0.030 A 
HETATM   11  C   UNL     1      44.442 -20.061   4.632  1.00  0.00     0.087 A 
HETATM   12  C   UNL     1      43.049 -17.997   3.838  1.00  0.00     0.052 A 
HETATM   13  C   UNL     1      44.926 -21.300   4.186  1.00  0.00     0.038 A 
HETATM   14  C   UNL     1      44.611 -21.775   2.912  1.00  0.00     0.005 A 
BRANCH  11  15
HETATM   15  O   UNL     1      44.727 -19.535   5.865  1.00  0.00    -0.289 OA
BRANCH  15  16
HETATM   16  C   UNL     1      43.748 -19.812   6.854  1.00  0.00     0.505 C 
HETATM   17  F   UNL     1      43.717 -21.150   7.075  1.00  0.00    -0.184 F 
HETATM   18  F   UNL     1      44.174 -19.238   8.008  1.00  0.00    -0.184 F 
ENDBRANCH  15  16
ENDBRANCH  11  15
ENDBRANCH   2   5
BRANCH   1  19
HETATM   19  C   UNL     1      41.530 -14.926   0.318  1.00  0.00     0.035 A 
HETATM   20  C   UNL     1      40.565 -15.045  -0.685  1.00  0.00     0.044 A 
HETATM   21  C   UNL     1      40.013 -13.917  -1.297  1.00  0.00     0.010 A 
HETATM   22  C   UNL     1      40.478 -12.647  -0.937  1.00  0.00     0.015 A 
HETATM   23  C   UNL     1      41.467 -12.518   0.038  1.00  0.00     0.003 A 
HETATM   24  C   UNL     1      41.989 -13.652   0.665  1.00  0.00     0.029 A 
BRANCH  21  25
HETATM   25  C   UNL     1      38.938 -14.049  -2.354  1.00  0.00     0.117 A 
HETATM   26  N   UNL     1      38.042 -13.149  -2.835  1.00  0.00    -0.346 N 
HETATM   27  C   UNL     1      37.973 -11.719  -2.526  1.00  0.00     0.157 C 
HETATM   28  C   UNL     1      37.201 -13.763  -3.759  1.00  0.00     0.109 A 
HETATM   29  C   UNL     1      37.625 -15.047  -3.892  1.00  0.00     0.107 A 
HETATM   30  N   UNL     1      38.692 -15.181  -3.045  1.00  0.00    -0.350 N 
HETATM   31  H   UNL     1      39.203 -16.044  -2.898  1.00  0.00     0.166 HD
ENDBRANCH  21  25
ENDBRANCH   1  19
TORSDOF 5
ENDMDL
MODEL 10
REMARK VINA RESULT:      -8.1      5.976      7.762
REMARK  5 active torsions:
REMARK  status: ('A' for Active; 'I' for Inactive)
REMARK    1  A    between atoms: C_3  and  C_4 
REMARK    2  A    between atoms: C_6  and  N_7 
REMARK       I    between atoms: N_7  and  C_8 
REMARK    3  A    between atoms: C_8  and  C_9 
REMARK    4  A    between atoms: C_14  and  O_15 
REMARK    5  A    between atoms: O_15  and  C_16 
ROOT
HETATM    1  N   UNL     1      42.059 -15.752   0.853  1.00  0.00    -0.322 N 
HETATM    2  C   UNL     1      41.340 -16.602   1.676  1.00  0.00     0.272 C 
HETATM    3  O   UNL     1      40.117 -16.583   1.800  1.00  0.00    -0.266 OA
HETATM    4  H   UNL     1      43.066 -15.800   0.929  1.00  0.00     0.169 HD
ENDROOT
BRANCH   2   5
HETATM    5  C   UNL     1      42.148 -17.531   2.441  1.00  0.00     0.102 A 
HETATM    6  N   UNL     1      42.118 -17.535   3.821  1.00  0.00    -0.351 N 
HETATM    7  H   UNL     1      41.542 -16.911   4.372  1.00  0.00     0.166 HD
HETATM    8  C   UNL     1      42.957 -18.492   4.338  1.00  0.00     0.045 A 
HETATM    9  C   UNL     1      43.550 -19.140   3.259  1.00  0.00     0.026 A 
HETATM   10  C   UNL     1      43.226 -18.833   5.666  1.00  0.00     0.030 A 
HETATM   11  C   UNL     1      44.470 -20.185   3.502  1.00  0.00     0.087 A 
HETATM   12  C   UNL     1      43.034 -18.531   2.076  1.00  0.00     0.052 A 
HETATM   13  C   UNL     1      44.724 -20.558   4.830  1.00  0.00     0.038 A 
HETATM   14  C   UNL     1      44.118 -19.885   5.892  1.00  0.00     0.005 A 
BRANCH  11  15
HETATM   15  O   UNL     1      45.024 -20.814   2.418  1.00  0.00    -0.289 OA
BRANCH  15  16
HETATM   16  C   UNL     1      44.446 -22.076   2.122  1.00  0.00     0.505 C 
HETATM   17  F   UNL     1      44.464 -22.838   3.243  1.00  0.00    -0.184 F 
HETATM   18  F   UNL     1      43.141 -21.856   1.821  1.00  0.00    -0.184 F 
ENDBRANCH  15  16
ENDBRANCH  11  15
ENDBRANCH   2   5
BRANCH   1  19
HETATM   19  C   UNL     1      41.546 -14.753  -0.001  1.00  0.00     0.035 A 
HETATM   20  C   UNL     1      41.512 -13.397   0.333  1.00  0.00     0.044 A 
HETATM   21  C   UNL     1      41.042 -12.439  -0.569  1.00  0.00     0.010 A 
HETATM   22  C   UNL     1      40.546 -12.854  -1.810  1.00  0.00     0.015 A 
HETATM   23  C   UNL     1      40.543 -14.210  -2.141  1.00  0.00     0.003 A 
HETATM   24  C   UNL     1      41.043 -15.154  -1.242  1.00  0.00     0.029 A 
BRANCH  21  25
HETATM   25  C   UNL     1      41.046 -10.968  -0.218  1.00  0.00     0.117 A 
HETATM   26  N   UNL     1      42.010 -10.020  -0.347  1.00  0.00    -0.346 N 
HETATM   27  C   UNL     1      43.308 -10.165  -1.009  1.00  0.00     0.157 C 
HETATM   28  C   UNL     1      41.564  -8.814   0.186  1.00  0.00     0.109 A 
HETATM   29  C   UNL     1      40.284  -9.008   0.596  1.00  0.00     0.107 A 
HETATM   30  N   UNL     1      39.993 -10.315   0.317  1.00  0.00    -0.350 N 
HETATM   31  H   UNL     1      39.114 -10.769   0.542  1.00  0.00     0.166 HD
ENDBRANCH  21  25
ENDBRANCH   1  19
TORSDOF 5
ENDMDL
