MODEL 1
REMARK VINA RESULT:      -9.8      0.000      0.000
REMARK  4 active torsions:
REMARK  status: ('A' for Active; 'I' for Inactive)
REMARK    1  A    between atoms: C_2  and  O_3 
REMARK    2  A    between atoms: O_3  and  C_4 
REMARK    3  A    between atoms: C_9  and  N_10 
REMARK       I    between atoms: N_10  and  C_11 
REMARK       I    between atoms: C_11  and  N_12 
REMARK       I    between atoms: N_12  and  C_13 
REMARK    4  A    between atoms: C_13  and  C_14 
ROOT
HETATM    1  N   UNL     1      43.785 -14.864   7.451  1.00  0.00    -0.019 N 
HETATM    2  C   UNL     1      44.516 -13.732   7.788  1.00  0.00     0.693 C 
HETATM    3  N   UNL     1      44.115 -12.949   8.834  1.00  0.00    -0.155 N 
HETATM    4  C   UNL     1      44.748 -11.735   9.227  1.00  0.00     0.269 C 
HETATM    5  O   UNL     1      45.841 -11.436   8.768  1.00  0.00    -0.267 OA
HETATM    6  N   UNL     1      45.596 -13.381   7.055  1.00  0.00    -0.234 N 
HETATM    7  H   UNL     1      45.819 -13.929   6.222  1.00  0.00     0.174 HD
HETATM    8  H   UNL     1      46.170 -12.574   7.298  1.00  0.00     0.174 HD
HETATM    9  H   UNL     1      43.004 -15.157   8.014  1.00  0.00     0.203 HD
HETATM   10  H   UNL     1      43.293 -13.240   9.339  1.00  0.00     0.187 HD
ENDROOT
BRANCH   1  11
HETATM   11  C   UNL     1      43.809 -15.552   6.250  1.00  0.00     0.742 A 
HETATM   12  N   UNL     1      44.173 -16.832   6.306  1.00  0.00    -0.062 NA
HETATM   13  C   UNL     1      44.080 -17.558   5.183  1.00  0.00     0.088 A 
HETATM   14  C   UNL     1      43.602 -17.029   3.978  1.00  0.00     0.021 A 
HETATM   15  C   UNL     1      44.448 -18.899   5.211  1.00  0.00     0.036 A 
HETATM   16  C   UNL     1      43.468 -17.868   2.847  1.00  0.00     0.052 A 
HETATM   17  C   UNL     1      43.275 -15.670   4.017  1.00  0.00     0.062 A 
HETATM   18  C   UNL     1      43.796 -19.221   2.911  1.00  0.00     0.069 A 
HETATM   19  C   UNL     1      44.315 -19.732   4.092  1.00  0.00     0.039 A 
HETATM   20  N   UNL     1      43.385 -14.927   5.144  1.00  0.00    -0.066 NA
HETATM   21  C   UNL     1      42.739 -14.951   2.811  1.00  0.00     0.072 C 
BRANCH  18  22
HETATM   22  O   UNL     1      43.570 -19.921   1.762  1.00  0.00    -0.351 OA
BRANCH  22  23
HETATM   23  C   UNL     1      43.212 -21.296   1.906  1.00  0.00     0.171 C 
HETATM   24  C   UNL     1      44.443 -22.133   1.607  1.00  0.00     0.034 C 
ENDBRANCH  22  23
ENDBRANCH  18  22
ENDBRANCH   1  11
BRANCH   4  25
HETATM   25  C   UNL     1      44.010 -10.851  10.157  1.00  0.00     0.032 A 
HETATM   26  C   UNL     1      44.432 -10.669  11.480  1.00  0.00     0.017 A 
HETATM   27  C   UNL     1      43.659  -9.898  12.354  1.00  0.00     0.007 A 
HETATM   28  C   UNL     1      42.467  -9.308  11.920  1.00  0.00    -0.062 A 
HETATM   29  C   UNL     1      41.607  -8.521  12.868  1.00  0.00     0.048 C 
HETATM   30  C   UNL     1      42.052  -9.496  10.597  1.00  0.00     0.007 A 
HETATM   31  C   UNL     1      42.816 -10.266   9.718  1.00  0.00     0.017 A 
ENDBRANCH   4  25
TORSDOF 4
ENDMDL
MODEL 2
REMARK VINA RESULT:      -9.3      1.286      2.191
REMARK  4 active torsions:
REMARK  status: ('A' for Active; 'I' for Inactive)
REMARK    1  A    between atoms: C_2  and  O_3 
REMARK    2  A    between atoms: O_3  and  C_4 
REMARK    3  A    between atoms: C_9  and  N_10 
REMARK       I    between atoms: N_10  and  C_11 
REMARK       I    between atoms: C_11  and  N_12 
REMARK       I    between atoms: N_12  and  C_13 
REMARK    4  A    between atoms: C_13  and  C_14 
ROOT
HETATM    1  N   UNL     1      44.191 -14.371   7.418  1.00  0.00    -0.019 N 
HETATM    2  C   UNL     1      43.500 -13.167   7.458  1.00  0.00     0.693 C 
HETATM    3  N   UNL     1      43.679 -12.314   8.510  1.00  0.00    -0.155 N 
HETATM    4  C   UNL     1      42.977 -11.088   8.688  1.00  0.00     0.269 C 
HETATM    5  O   UNL     1      42.315 -10.620   7.773  1.00  0.00    -0.267 OA
HETATM    6  N   UNL     1      42.617 -12.861   6.481  1.00  0.00    -0.234 N 
HETATM    7  H   UNL     1      42.431 -13.557   5.757  1.00  0.00     0.174 HD
HETATM    8  H   UNL     1      42.120 -11.971   6.469  1.00  0.00     0.174 HD
HETATM    9  H   UNL     1      44.881 -14.591   8.118  1.00  0.00     0.203 HD
HETATM   10  H   UNL     1      44.333 -12.593   9.225  1.00  0.00     0.187 HD
ENDROOT
BRANCH   1  11
HETATM   11  C   UNL     1      43.885 -15.490   6.663  1.00  0.00     0.742 A 
HETATM   12  N   UNL     1      43.723 -15.299   5.355  1.00  0.00    -0.062 NA
HETATM   13  C   UNL     1      43.557 -16.381   4.581  1.00  0.00     0.088 A 
HETATM   14  C   UNL     1      43.566 -17.684   5.091  1.00  0.00     0.021 A 
HETATM   15  C   UNL     1      43.391 -16.213   3.210  1.00  0.00     0.036 A 
HETATM   16  C   UNL     1      43.449 -18.784   4.210  1.00  0.00     0.052 A 
HETATM   17  C   UNL     1      43.712 -17.775   6.479  1.00  0.00     0.062 A 
HETATM   18  C   UNL     1      43.334 -18.596   2.834  1.00  0.00     0.069 A 
HETATM   19  C   UNL     1      43.277 -17.302   2.335  1.00  0.00     0.039 A 
HETATM   20  N   UNL     1      43.861 -16.685   7.268  1.00  0.00    -0.066 NA
HETATM   21  C   UNL     1      43.752 -19.101   7.185  1.00  0.00     0.072 C 
BRANCH  18  22
HETATM   22  O   UNL     1      43.280 -19.744   2.099  1.00  0.00    -0.351 OA
BRANCH  22  23
HETATM   23  C   UNL     1      44.229 -20.761   2.424  1.00  0.00     0.171 C 
HETATM   24  C   UNL     1      43.950 -21.960   1.535  1.00  0.00     0.034 C 
ENDBRANCH  22  23
ENDBRANCH  18  22
ENDBRANCH   1  11
BRANCH   4  25
HETATM   25  C   UNL     1      43.046 -10.449  10.022  1.00  0.00     0.032 A 
HETATM   26  C   UNL     1      44.026 -10.812  10.955  1.00  0.00     0.017 A 
HETATM   27  C   UNL     1      44.004 -10.252  12.237  1.00  0.00     0.007 A 
HETATM   28  C   UNL     1      43.011  -9.334  12.596  1.00  0.00    -0.062 A 
HETATM   29  C   UNL     1      42.952  -8.767  13.986  1.00  0.00     0.048 C 
HETATM   30  C   UNL     1      42.036  -8.977  11.658  1.00  0.00     0.007 A 
HETATM   31  C   UNL     1      42.049  -9.534  10.378  1.00  0.00     0.017 A 
ENDBRANCH   4  25
TORSDOF 4
ENDMDL
MODEL 3
REMARK VINA RESULT:      -9.2      1.678      2.271
REMARK  4 active torsions:
REMARK  status: ('A' for Active; 'I' for Inactive)
REMARK    1  A    between atoms: C_2  and  O_3 
REMARK    2  A    between atoms: O_3  and  C_4 
REMARK    3  A    between atoms: C_9  and  N_10 
REMARK       I    between atoms: N_10  and  C_11 
REMARK       I    between atoms: C_11  and  N_12 
REMARK       I    between atoms: N_12  and  C_13 
REMARK    4  A    between atoms: C_13  and  C_14 
ROOT
HETATM    1  N   UNL     1      44.171 -13.238   7.873  1.00  0.00    -0.019 N 
HETATM    2  C   UNL     1      43.338 -12.189   8.237  1.00  0.00     0.693 C 
HETATM    3  N   UNL     1      43.376 -11.699   9.511  1.00  0.00    -0.155 N 
HETATM    4  C   UNL     1      42.524 -10.672  10.011  1.00  0.00     0.269 C 
HETATM    5  O   UNL     1      41.841 -10.012   9.242  1.00  0.00    -0.267 OA
HETATM    6  N   UNL     1      42.457 -11.684   7.343  1.00  0.00    -0.234 N 
HETATM    7  H   UNL     1      42.382 -12.131   6.427  1.00  0.00     0.174 HD
HETATM    8  H   UNL     1      41.855 -10.894   7.572  1.00  0.00     0.174 HD
HETATM    9  H   UNL     1      44.859 -13.595   8.517  1.00  0.00     0.203 HD
HETATM   10  H   UNL     1      44.034 -12.119  10.148  1.00  0.00     0.187 HD
ENDROOT
BRANCH   1  11
HETATM   11  C   UNL     1      44.030 -14.088   6.790  1.00  0.00     0.742 A 
HETATM   12  N   UNL     1      44.026 -15.393   7.054  1.00  0.00    -0.062 NA
HETATM   13  C   UNL     1      43.759 -16.235   6.046  1.00  0.00     0.088 A 
HETATM   14  C   UNL     1      43.472 -15.794   4.749  1.00  0.00     0.021 A 
HETATM   15  C   UNL     1      43.743 -17.604   6.292  1.00  0.00     0.036 A 
HETATM   16  C   UNL     1      43.137 -16.733   3.745  1.00  0.00     0.052 A 
HETATM   17  C   UNL     1      43.532 -14.408   4.568  1.00  0.00     0.062 A 
HETATM   18  C   UNL     1      43.077 -18.096   4.026  1.00  0.00     0.069 A 
HETATM   19  C   UNL     1      43.409 -18.535   5.300  1.00  0.00     0.039 A 
HETATM   20  N   UNL     1      43.819 -13.554   5.579  1.00  0.00    -0.066 NA
HETATM   21  C   UNL     1      43.241 -13.770   3.239  1.00  0.00     0.072 C 
BRANCH  18  22
HETATM   22  O   UNL     1      42.691 -18.882   2.980  1.00  0.00    -0.351 OA
BRANCH  22  23
HETATM   23  C   UNL     1      43.709 -19.266   2.053  1.00  0.00     0.171 C 
HETATM   24  C   UNL     1      43.679 -20.779   1.928  1.00  0.00     0.034 C 
ENDBRANCH  22  23
ENDBRANCH  18  22
ENDBRANCH   1  11
BRANCH   4  25
HETATM   25  C   UNL     1      42.470 -10.484  11.478  1.00  0.00     0.032 A 
HETATM   26  C   UNL     1      41.380 -10.937  12.233  1.00  0.00     0.017 A 
HETATM   27  C   UNL     1      41.322 -10.661  13.602  1.00  0.00     0.007 A 
HETATM   28  C   UNL     1      42.342  -9.934  14.226  1.00  0.00    -0.062 A 
HETATM   29  C   UNL     1      42.260  -9.590  15.687  1.00  0.00     0.048 C 
HETATM   30  C   UNL     1      43.426  -9.483  13.465  1.00  0.00     0.007 A 
HETATM   31  C   UNL     1      43.490  -9.752  12.097  1.00  0.00     0.017 A 
ENDBRANCH   4  25
TORSDOF 4
ENDMDL
MODEL 4
REMARK VINA RESULT:      -9.2      5.966     10.089
REMARK  4 active torsions:
REMARK  status: ('A' for Active; 'I' for Inactive)
REMARK    1  A    between atoms: C_2  and  O_3 
REMARK    2  A    between atoms: O_3  and  C_4 
REMARK    3  A    between atoms: C_9  and  N_10 
REMARK       I    between atoms: N_10  and  C_11 
REMARK       I    between atoms: C_11  and  N_12 
REMARK       I    between atoms: N_12  and  C_13 
REMARK    4  A    between atoms: C_13  and  C_14 
ROOT
HETATM    1  N   UNL     1      40.128 -15.707   1.429  1.00  0.00    -0.019 N 
HETATM    2  C   UNL     1      40.507 -15.137   0.221  1.00  0.00     0.693 C 
HETATM    3  N   UNL     1      39.557 -14.635  -0.623  1.00  0.00    -0.155 N 
HETATM    4  C   UNL     1      39.824 -14.088  -1.910  1.00  0.00     0.269 C 
HETATM    5  O   UNL     1      40.973 -13.839  -2.246  1.00  0.00    -0.267 OA
HETATM    6  N   UNL     1      41.810 -15.120  -0.140  1.00  0.00    -0.234 N 
HETATM    7  H   UNL     1      42.489 -15.587   0.465  1.00  0.00     0.174 HD
HETATM    8  H   UNL     1      42.120 -14.681  -1.006  1.00  0.00     0.174 HD
HETATM    9  H   UNL     1      39.166 -15.688   1.727  1.00  0.00     0.203 HD
HETATM   10  H   UNL     1      38.597 -14.686  -0.320  1.00  0.00     0.187 HD
ENDROOT
BRANCH   1  11
HETATM   11  C   UNL     1      40.868 -16.568   2.221  1.00  0.00     0.742 A 
HETATM   12  N   UNL     1      41.638 -17.448   1.582  1.00  0.00    -0.062 NA
HETATM   13  C   UNL     1      42.464 -18.206   2.318  1.00  0.00     0.088 A 
HETATM   14  C   UNL     1      42.556 -18.092   3.710  1.00  0.00     0.021 A 
HETATM   15  C   UNL     1      43.284 -19.130   1.679  1.00  0.00     0.036 A 
HETATM   16  C   UNL     1      43.494 -18.877   4.419  1.00  0.00     0.052 A 
HETATM   17  C   UNL     1      41.684 -17.162   4.286  1.00  0.00     0.062 A 
HETATM   18  C   UNL     1      44.342 -19.761   3.754  1.00  0.00     0.069 A 
HETATM   19  C   UNL     1      44.216 -19.907   2.380  1.00  0.00     0.039 A 
HETATM   20  N   UNL     1      40.834 -16.408   3.550  1.00  0.00    -0.066 NA
HETATM   21  C   UNL     1      41.662 -16.911   5.768  1.00  0.00     0.072 C 
BRANCH  18  22
HETATM   22  O   UNL     1      45.231 -20.416   4.554  1.00  0.00    -0.351 OA
BRANCH  22  23
HETATM   23  C   UNL     1      44.705 -21.440   5.400  1.00  0.00     0.171 C 
HETATM   24  C   UNL     1      44.733 -22.745   4.626  1.00  0.00     0.034 C 
ENDBRANCH  22  23
ENDBRANCH  18  22
ENDBRANCH   1  11
BRANCH   4  25
HETATM   25  C   UNL     1      38.673 -13.889  -2.820  1.00  0.00     0.032 A 
HETATM   26  C   UNL     1      38.102 -12.625  -3.009  1.00  0.00     0.017 A 
HETATM   27  C   UNL     1      36.959 -12.491  -3.805  1.00  0.00     0.007 A 
HETATM   28  C   UNL     1      36.381 -13.610  -4.412  1.00  0.00    -0.062 A 
HETATM   29  C   UNL     1      35.124 -13.481  -5.227  1.00  0.00     0.048 C 
HETATM   30  C   UNL     1      36.957 -14.870  -4.218  1.00  0.00     0.007 A 
HETATM   31  C   UNL     1      38.095 -15.013  -3.422  1.00  0.00     0.017 A 
ENDBRANCH   4  25
TORSDOF 4
ENDMDL
MODEL 5
REMARK VINA RESULT:      -8.9      2.179      3.547
REMARK  4 active torsions:
REMARK  status: ('A' for Active; 'I' for Inactive)
REMARK    1  A    between atoms: C_2  and  O_3 
REMARK    2  A    between atoms: O_3  and  C_4 
REMARK    3  A    between atoms: C_9  and  N_10 
REMARK       I    between atoms: N_10  and  C_11 
REMARK       I    between atoms: C_11  and  N_12 
REMARK       I    between atoms: N_12  and  C_13 
REMARK    4  A    between atoms: C_13  and  C_14 
ROOT
HETATM    1  N   UNL     1      43.315 -15.345   6.755  1.00  0.00    -0.019 N 
HETATM    2  C   UNL     1      44.239 -14.368   7.102  1.00  0.00     0.693 C 
HETATM    3  N   UNL     1      44.181 -13.784   8.336  1.00  0.00    -0.155 N 
HETATM    4  C   UNL     1      45.033 -12.730   8.774  1.00  0.00     0.269 C 
HETATM    5  O   UNL     1      46.027 -12.433   8.126  1.00  0.00    -0.267 OA
HETATM    6  N   UNL     1      45.165 -13.964   6.204  1.00  0.00    -0.234 N 
HETATM    7  H   UNL     1      45.127 -14.348   5.258  1.00  0.00     0.174 HD
HETATM    8  H   UNL     1      45.875 -13.272   6.442  1.00  0.00     0.174 HD
HETATM    9  H   UNL     1      42.647 -15.683   7.429  1.00  0.00     0.203 HD
HETATM   10  H   UNL     1      43.461 -14.103   8.965  1.00  0.00     0.187 HD
ENDROOT
BRANCH   1  11
HETATM   11  C   UNL     1      42.985 -15.775   5.482  1.00  0.00     0.742 A 
HETATM   12  N   UNL     1      42.186 -14.978   4.774  1.00  0.00    -0.062 NA
HETATM   13  C   UNL     1      41.955 -15.301   3.493  1.00  0.00     0.088 A 
HETATM   14  C   UNL     1      42.531 -16.420   2.881  1.00  0.00     0.021 A 
HETATM   15  C   UNL     1      41.129 -14.485   2.727  1.00  0.00     0.036 A 
HETATM   16  C   UNL     1      42.296 -16.668   1.508  1.00  0.00     0.052 A 
HETATM   17  C   UNL     1      43.328 -17.208   3.717  1.00  0.00     0.062 A 
HETATM   18  C   UNL     1      41.506 -15.810   0.746  1.00  0.00     0.069 A 
HETATM   19  C   UNL     1      40.897 -14.728   1.367  1.00  0.00     0.039 A 
HETATM   20  N   UNL     1      43.549 -16.897   5.016  1.00  0.00    -0.066 NA
HETATM   21  C   UNL     1      44.027 -18.439   3.213  1.00  0.00     0.072 C 
BRANCH  18  22
HETATM   22  O   UNL     1      41.406 -16.140  -0.574  1.00  0.00    -0.351 OA
BRANCH  22  23
HETATM   23  C   UNL     1      40.982 -15.108  -1.466  1.00  0.00     0.171 C 
HETATM   24  C   UNL     1      40.897 -15.703  -2.860  1.00  0.00     0.034 C 
ENDBRANCH  22  23
ENDBRANCH  18  22
ENDBRANCH   1  11
BRANCH   4  25
HETATM   25  C   UNL     1      44.637 -11.996   9.997  1.00  0.00     0.032 A 
HETATM   26  C   UNL     1      44.129 -12.665  11.118  1.00  0.00     0.017 A 
HETATM   27  C   UNL     1      43.681 -11.930  12.220  1.00  0.00     0.007 A 
HETATM   28  C   UNL     1      43.734 -10.532  12.213  1.00  0.00    -0.062 A 
HETATM   29  C   UNL     1      43.207  -9.736  13.374  1.00  0.00     0.048 C 
HETATM   30  C   UNL     1      44.241  -9.871  11.089  1.00  0.00     0.007 A 
HETATM   31  C   UNL     1      44.687 -10.597   9.983  1.00  0.00     0.017 A 
ENDBRANCH   4  25
TORSDOF 4
ENDMDL
MODEL 6
REMARK VINA RESULT:      -8.6      5.860      9.912
REMARK  4 active torsions:
REMARK  status: ('A' for Active; 'I' for Inactive)
REMARK    1  A    between atoms: C_2  and  O_3 
REMARK    2  A    between atoms: O_3  and  C_4 
REMARK    3  A    between atoms: C_9  and  N_10 
REMARK       I    between atoms: N_10  and  C_11 
REMARK       I    between atoms: C_11  and  N_12 
REMARK       I    between atoms: N_12  and  C_13 
REMARK    4  A    between atoms: C_13  and  C_14 
ROOT
HETATM    1  N   UNL     1      42.138 -16.016  -0.287  1.00  0.00    -0.019 N 
HETATM    2  C   UNL     1      41.126 -15.128  -0.626  1.00  0.00     0.693 C 
HETATM    3  N   UNL     1      41.234 -14.374  -1.760  1.00  0.00    -0.155 N 
HETATM    4  C   UNL     1      40.292 -13.387  -2.170  1.00  0.00     0.269 C 
HETATM    5  O   UNL     1      39.201 -13.314  -1.622  1.00  0.00    -0.267 OA
HETATM    6  N   UNL     1      40.059 -14.976   0.190  1.00  0.00    -0.234 N 
HETATM    7  H   UNL     1      40.048 -15.480   1.078  1.00  0.00     0.174 HD
HETATM    8  H   UNL     1      39.286 -14.354  -0.049  1.00  0.00     0.174 HD
HETATM    9  H   UNL     1      42.917 -16.168  -0.906  1.00  0.00     0.203 HD
HETATM   10  H   UNL     1      42.056 -14.507  -2.327  1.00  0.00     0.187 HD
ENDROOT
BRANCH   1  11
HETATM   11  C   UNL     1      42.385 -16.574   0.956  1.00  0.00     0.742 A 
HETATM   12  N   UNL     1      42.948 -17.781   0.963  1.00  0.00    -0.062 NA
HETATM   13  C   UNL     1      43.319 -18.291   2.147  1.00  0.00     0.088 A 
HETATM   14  C   UNL     1      43.155 -17.599   3.352  1.00  0.00     0.021 A 
HETATM   15  C   UNL     1      43.915 -19.547   2.186  1.00  0.00     0.036 A 
HETATM   16  C   UNL     1      43.627 -18.168   4.559  1.00  0.00     0.052 A 
HETATM   17  C   UNL     1      42.526 -16.355   3.240  1.00  0.00     0.062 A 
HETATM   18  C   UNL     1      44.265 -19.406   4.569  1.00  0.00     0.069 A 
HETATM   19  C   UNL     1      44.384 -20.111   3.380  1.00  0.00     0.039 A 
HETATM   20  N   UNL     1      42.132 -15.843   2.049  1.00  0.00    -0.066 NA
HETATM   21  C   UNL     1      42.282 -15.481   4.437  1.00  0.00     0.072 C 
BRANCH  18  22
HETATM   22  O   UNL     1      44.715 -19.810   5.792  1.00  0.00    -0.351 OA
BRANCH  22  23
HETATM   23  C   UNL     1      43.795 -19.712   6.881  1.00  0.00     0.171 C 
HETATM   24  C   UNL     1      43.543 -21.114   7.407  1.00  0.00     0.034 C 
ENDBRANCH  22  23
ENDBRANCH  18  22
ENDBRANCH   1  11
BRANCH   4  25
HETATM   25  C   UNL     1      40.709 -12.444  -3.232  1.00  0.00     0.032 A 
HETATM   26  C   UNL     1      42.061 -12.238  -3.535  1.00  0.00     0.017 A 
HETATM   27  C   UNL     1      42.420 -11.273  -4.482  1.00  0.00     0.007 A 
HETATM   28  C   UNL     1      41.441 -10.510  -5.127  1.00  0.00    -0.062 A 
HETATM   29  C   UNL     1      41.823  -9.437  -6.107  1.00  0.00     0.048 C 
HETATM   30  C   UNL     1      40.093 -10.721  -4.818  1.00  0.00     0.007 A 
HETATM   31  C   UNL     1      39.726 -11.680  -3.872  1.00  0.00     0.017 A 
ENDBRANCH   4  25
TORSDOF 4
ENDMDL
MODEL 7
REMARK VINA RESULT:      -8.3      7.260     11.018
REMARK  4 active torsions:
REMARK  status: ('A' for Active; 'I' for Inactive)
REMARK    1  A    between atoms: C_2  and  O_3 
REMARK    2  A    between atoms: O_3  and  C_4 
REMARK    3  A    between atoms: C_9  and  N_10 
REMARK       I    between atoms: N_10  and  C_11 
REMARK       I    between atoms: C_11  and  N_12 
REMARK       I    between atoms: N_12  and  C_13 
REMARK    4  A    between atoms: C_13  and  C_14 
ROOT
HETATM    1  N   UNL     1      41.900 -15.532  -0.742  1.00  0.00    -0.019 N 
HETATM    2  C   UNL     1      41.980 -15.837   0.610  1.00  0.00     0.693 C 
HETATM    3  N   UNL     1      42.726 -16.904   1.024  1.00  0.00    -0.155 N 
HETATM    4  C   UNL     1      42.828 -17.348   2.374  1.00  0.00     0.269 C 
HETATM    5  O   UNL     1      42.411 -16.646   3.284  1.00  0.00    -0.267 OA
HETATM    6  N   UNL     1      41.284 -15.107   1.511  1.00  0.00    -0.234 N 
HETATM    7  H   UNL     1      40.660 -14.375   1.168  1.00  0.00     0.174 HD
HETATM    8  H   UNL     1      41.349 -15.289   2.512  1.00  0.00     0.174 HD
HETATM    9  H   UNL     1      42.445 -16.042  -1.417  1.00  0.00     0.203 HD
HETATM   10  H   UNL     1      43.212 -17.431   0.315  1.00  0.00     0.187 HD
ENDROOT
BRANCH   1  11
HETATM   11  C   UNL     1      40.943 -14.755  -1.372  1.00  0.00     0.742 A 
HETATM   12  N   UNL     1      40.167 -15.374  -2.261  1.00  0.00    -0.062 NA
HETATM   13  C   UNL     1      39.148 -14.682  -2.791  1.00  0.00     0.088 A 
HETATM   14  C   UNL     1      38.866 -13.358  -2.432  1.00  0.00     0.021 A 
HETATM   15  C   UNL     1      38.317 -15.302  -3.717  1.00  0.00     0.036 A 
HETATM   16  C   UNL     1      37.737 -12.707  -2.981  1.00  0.00     0.052 A 
HETATM   17  C   UNL     1      39.757 -12.791  -1.516  1.00  0.00     0.062 A 
HETATM   18  C   UNL     1      36.889 -13.364  -3.870  1.00  0.00     0.069 A 
HETATM   19  C   UNL     1      37.197 -14.659  -4.261  1.00  0.00     0.039 A 
HETATM   20  N   UNL     1      40.800 -13.479  -0.992  1.00  0.00    -0.066 NA
HETATM   21  C   UNL     1      39.591 -11.382  -1.019  1.00  0.00     0.072 C 
BRANCH  18  22
HETATM   22  O   UNL     1      35.812 -12.635  -4.281  1.00  0.00    -0.351 OA
BRANCH  22  23
HETATM   23  C   UNL     1      34.862 -13.302  -5.115  1.00  0.00     0.171 C 
HETATM   24  C   UNL     1      35.038 -12.782  -6.531  1.00  0.00     0.034 C 
ENDBRANCH  22  23
ENDBRANCH  18  22
ENDBRANCH   1  11
BRANCH   4  25
HETATM   25  C   UNL     1      43.404 -18.691   2.610  1.00  0.00     0.032 A 
HETATM   26  C   UNL     1      43.229 -19.732   1.689  1.00  0.00     0.017 A 
HETATM   27  C   UNL     1      43.710 -21.011   1.988  1.00  0.00     0.007 A 
HETATM   28  C   UNL     1      44.361 -21.261   3.200  1.00  0.00    -0.062 A 
HETATM   29  C   UNL     1      44.835 -22.644   3.550  1.00  0.00     0.048 C 
HETATM   30  C   UNL     1      44.530 -20.216   4.116  1.00  0.00     0.007 A 
HETATM   31  C   UNL     1      44.051 -18.937   3.826  1.00  0.00     0.017 A 
ENDBRANCH   4  25
TORSDOF 4
ENDMDL
MODEL 8
REMARK VINA RESULT:      -8.3      5.611     10.567
REMARK  4 active torsions:
REMARK  status: ('A' for Active; 'I' for Inactive)
REMARK    1  A    between atoms: C_2  and  O_3 
REMARK    2  A    between atoms: O_3  and  C_4 
REMARK    3  A    between atoms: C_9  and  N_10 
REMARK       I    between atoms: N_10  and  C_11 
REMARK       I    between atoms: C_11  and  N_12 
REMARK       I    between atoms: N_12  and  C_13 
REMARK    4  A    between atoms: C_13  and  C_14 
ROOT
HETATM    1  N   UNL     1      39.967 -16.223   2.400  1.00  0.00    -0.019 N 
HETATM    2  C   UNL     1      41.169 -16.617   1.826  1.00  0.00     0.693 C 
HETATM    3  N   UNL     1      41.759 -17.786   2.215  1.00  0.00    -0.155 N 
HETATM    4  C   UNL     1      43.018 -18.255   1.744  1.00  0.00     0.269 C 
HETATM    5  O   UNL     1      43.550 -17.724   0.779  1.00  0.00    -0.267 OA
HETATM    6  N   UNL     1      41.777 -15.822   0.917  1.00  0.00    -0.234 N 
HETATM    7  H   UNL     1      41.364 -14.909   0.714  1.00  0.00     0.174 HD
HETATM    8  H   UNL     1      42.643 -16.100   0.457  1.00  0.00     0.174 HD
HETATM    9  H   UNL     1      39.485 -16.826   3.047  1.00  0.00     0.203 HD
HETATM   10  H   UNL     1      41.279 -18.337   2.910  1.00  0.00     0.187 HD
ENDROOT
BRANCH   1  11
HETATM   11  C   UNL     1      39.420 -14.952   2.416  1.00  0.00     0.742 A 
HETATM   12  N   UNL     1      39.840 -14.136   3.381  1.00  0.00    -0.062 NA
HETATM   13  C   UNL     1      39.429 -12.861   3.345  1.00  0.00     0.088 A 
HETATM   14  C   UNL     1      38.602 -12.362   2.332  1.00  0.00     0.021 A 
HETATM   15  C   UNL     1      39.855 -11.983   4.336  1.00  0.00     0.036 A 
HETATM   16  C   UNL     1      38.257 -10.990   2.318  1.00  0.00     0.052 A 
HETATM   17  C   UNL     1      38.192 -13.305   1.384  1.00  0.00     0.062 A 
HETATM   18  C   UNL     1      38.735 -10.118   3.294  1.00  0.00     0.069 A 
HETATM   19  C   UNL     1      39.516 -10.624   4.324  1.00  0.00     0.039 A 
HETATM   20  N   UNL     1      38.589 -14.599   1.426  1.00  0.00    -0.066 NA
HETATM   21  C   UNL     1      37.310 -12.931   0.226  1.00  0.00     0.072 C 
BRANCH  18  22
HETATM   22  O   UNL     1      38.366  -8.815   3.130  1.00  0.00    -0.351 OA
BRANCH  22  23
HETATM   23  C   UNL     1      37.870  -8.135   4.284  1.00  0.00     0.171 C 
HETATM   24  C   UNL     1      36.367  -8.344   4.337  1.00  0.00     0.034 C 
ENDBRANCH  22  23
ENDBRANCH  18  22
ENDBRANCH   1  11
BRANCH   4  25
HETATM   25  C   UNL     1      43.660 -19.358   2.493  1.00  0.00     0.032 A 
HETATM   26  C   UNL     1      43.754 -20.648   1.955  1.00  0.00     0.017 A 
HETATM   27  C   UNL     1      44.286 -21.685   2.729  1.00  0.00     0.007 A 
HETATM   28  C   UNL     1      44.722 -21.447   4.036  1.00  0.00    -0.062 A 
HETATM   29  C   UNL     1      45.247 -22.567   4.890  1.00  0.00     0.048 C 
HETATM   30  C   UNL     1      44.624 -20.156   4.567  1.00  0.00     0.007 A 
HETATM   31  C   UNL     1      44.092 -19.116   3.803  1.00  0.00     0.017 A 
ENDBRANCH   4  25
TORSDOF 4
ENDMDL
MODEL 9
REMARK VINA RESULT:      -8.3      7.100     10.814
REMARK  4 active torsions:
REMARK  status: ('A' for Active; 'I' for Inactive)
REMARK    1  A    between atoms: C_2  and  O_3 
REMARK    2  A    between atoms: O_3  and  C_4 
REMARK    3  A    between atoms: C_9  and  N_10 
REMARK       I    between atoms: N_10  and  C_11 
REMARK       I    between atoms: C_11  and  N_12 
REMARK       I    between atoms: N_12  and  C_13 
REMARK    4  A    between atoms: C_13  and  C_14 
ROOT
HETATM    1  N   UNL     1      41.618 -15.666  -0.432  1.00  0.00    -0.019 N 
HETATM    2  C   UNL     1      42.189 -15.808   0.826  1.00  0.00     0.693 C 
HETATM    3  N   UNL     1      42.854 -16.958   1.146  1.00  0.00    -0.155 N 
HETATM    4  C   UNL     1      43.420 -17.239   2.422  1.00  0.00     0.269 C 
HETATM    5  O   UNL     1      43.529 -16.350   3.255  1.00  0.00    -0.267 OA
HETATM    6  N   UNL     1      42.048 -14.829   1.747  1.00  0.00    -0.234 N 
HETATM    7  H   UNL     1      41.467 -14.021   1.515  1.00  0.00     0.174 HD
HETATM    8  H   UNL     1      42.483 -14.893   2.667  1.00  0.00     0.174 HD
HETATM    9  H   UNL     1      41.751 -16.370  -1.139  1.00  0.00     0.203 HD
HETATM   10  H   UNL     1      42.916 -17.669   0.434  1.00  0.00     0.187 HD
ENDROOT
BRANCH   1  11
HETATM   11  C   UNL     1      40.629 -14.774  -0.810  1.00  0.00     0.742 A 
HETATM   12  N   UNL     1      39.659 -14.554   0.075  1.00  0.00    -0.062 NA
HETATM   13  C   UNL     1      38.760 -13.600  -0.206  1.00  0.00     0.088 A 
HETATM   14  C   UNL     1      38.818 -12.828  -1.373  1.00  0.00     0.021 A 
HETATM   15  C   UNL     1      37.738 -13.343   0.701  1.00  0.00     0.036 A 
HETATM   16  C   UNL     1      37.875 -11.794  -1.578  1.00  0.00     0.052 A 
HETATM   17  C   UNL     1      39.855 -13.159  -2.250  1.00  0.00     0.062 A 
HETATM   18  C   UNL     1      36.888 -11.520  -0.633  1.00  0.00     0.069 A 
HETATM   19  C   UNL     1      36.804 -12.318   0.500  1.00  0.00     0.039 A 
HETATM   20  N   UNL     1      40.755 -14.134  -1.979  1.00  0.00    -0.066 NA
HETATM   21  C   UNL     1      40.064 -12.420  -3.542  1.00  0.00     0.072 C 
BRANCH  18  22
HETATM   22  O   UNL     1      36.079 -10.465  -0.935  1.00  0.00    -0.351 OA
BRANCH  22  23
HETATM   23  C   UNL     1      34.928 -10.743  -1.734  1.00  0.00     0.171 C 
HETATM   24  C   UNL     1      33.703 -10.614  -0.847  1.00  0.00     0.034 C 
ENDBRANCH  22  23
ENDBRANCH  18  22
ENDBRANCH   1  11
BRANCH   4  25
HETATM   25  C   UNL     1      43.814 -18.638   2.702  1.00  0.00     0.032 A 
HETATM   26  C   UNL     1      43.637 -19.651   1.750  1.00  0.00     0.017 A 
HETATM   27  C   UNL     1      43.936 -20.975   2.082  1.00  0.00     0.007 A 
HETATM   28  C   UNL     1      44.408 -21.300   3.359  1.00  0.00    -0.062 A 
HETATM   29  C   UNL     1      44.683 -22.728   3.738  1.00  0.00     0.048 C 
HETATM   30  C   UNL     1      44.581 -20.283   4.304  1.00  0.00     0.007 A 
HETATM   31  C   UNL     1      44.282 -18.959   3.982  1.00  0.00     0.017 A 
ENDBRANCH   4  25
TORSDOF 4
ENDMDL
MODEL 10
REMARK VINA RESULT:      -8.2      7.022     10.800
REMARK  4 active torsions:
REMARK  status: ('A' for Active; 'I' for Inactive)
REMARK    1  A    between atoms: C_2  and  O_3 
REMARK    2  A    between atoms: O_3  and  C_4 
REMARK    3  A    between atoms: C_9  and  N_10 
REMARK       I    between atoms: N_10  and  C_11 
REMARK       I    between atoms: C_11  and  N_12 
REMARK       I    between atoms: N_12  and  C_13 
REMARK    4  A    between atoms: C_13  and  C_14 
ROOT
HETATM    1  N   UNL     1      41.781 -15.695  -0.194  1.00  0.00    -0.019 N 
HETATM    2  C   UNL     1      42.325 -15.886   1.069  1.00  0.00     0.693 C 
HETATM    3  N   UNL     1      42.980 -17.049   1.360  1.00  0.00    -0.155 N 
HETATM    4  C   UNL     1      43.518 -17.380   2.636  1.00  0.00     0.269 C 
HETATM    5  O   UNL     1      43.611 -16.524   3.504  1.00  0.00    -0.267 OA
HETATM    6  N   UNL     1      42.166 -14.942   2.024  1.00  0.00    -0.234 N 
HETATM    7  H   UNL     1      41.591 -14.125   1.811  1.00  0.00     0.174 HD
HETATM    8  H   UNL     1      42.581 -15.042   2.950  1.00  0.00     0.174 HD
HETATM    9  H   UNL     1      41.928 -16.372  -0.924  1.00  0.00     0.203 HD
HETATM   10  H   UNL     1      43.057 -17.732   0.622  1.00  0.00     0.187 HD
ENDROOT
BRANCH   1  11
HETATM   11  C   UNL     1      40.802 -14.787  -0.559  1.00  0.00     0.742 A 
HETATM   12  N   UNL     1      40.979 -14.155  -1.718  1.00  0.00    -0.062 NA
HETATM   13  C   UNL     1      39.987 -13.370  -2.161  1.00  0.00     0.088 A 
HETATM   14  C   UNL     1      38.783 -13.210  -1.465  1.00  0.00     0.021 A 
HETATM   15  C   UNL     1      40.141 -12.701  -3.370  1.00  0.00     0.036 A 
HETATM   16  C   UNL     1      37.751 -12.416  -2.020  1.00  0.00     0.052 A 
HETATM   17  C   UNL     1      38.709 -13.890  -0.246  1.00  0.00     0.062 A 
HETATM   18  C   UNL     1      37.908 -11.795  -3.257  1.00  0.00     0.069 A 
HETATM   19  C   UNL     1      39.120 -11.917  -3.922  1.00  0.00     0.039 A 
HETATM   20  N   UNL     1      39.715 -14.670   0.216  1.00  0.00    -0.066 NA
HETATM   21  C   UNL     1      37.481 -13.831   0.619  1.00  0.00     0.072 C 
BRANCH  18  22
HETATM   22  O   UNL     1      36.816 -11.104  -3.695  1.00  0.00    -0.351 OA
BRANCH  22  23
HETATM   23  C   UNL     1      36.335 -11.421  -5.002  1.00  0.00     0.171 C 
HETATM   24  C   UNL     1      35.540 -12.711  -4.907  1.00  0.00     0.034 C 
ENDBRANCH  22  23
ENDBRANCH  18  22
ENDBRANCH   1  11
BRANCH   4  25
HETATM   25  C   UNL     1      43.903 -18.790   2.871  1.00  0.00     0.032 A 
HETATM   26  C   UNL     1      43.688 -19.776   1.900  1.00  0.00     0.017 A 
HETATM   27  C   UNL     1      43.981 -21.112   2.192  1.00  0.00     0.007 A 
HETATM   28  C   UNL     1      44.486 -21.473   3.446  1.00  0.00    -0.062 A 
HETATM   29  C   UNL     1      44.755 -22.912   3.784  1.00  0.00     0.048 C 
HETATM   30  C   UNL     1      44.696 -20.481   4.411  1.00  0.00     0.007 A 
HETATM   31  C   UNL     1      44.404 -19.146   4.129  1.00  0.00     0.017 A 
ENDBRANCH   4  25
TORSDOF 4
ENDMDL
