MODEL 1
REMARK VINA RESULT:      -9.2      0.000      0.000
REMARK  4 active torsions:
REMARK  status: ('A' for Active; 'I' for Inactive)
REMARK       I    between atoms: N_6  and  C_7 
REMARK    1  A    between atoms: C_7  and  C_8 
REMARK    2  A    between atoms: C_9  and  N_10 
REMARK       I    between atoms: N_10  and  C_11 
REMARK    3  A    between atoms: C_11  and  C_12 
REMARK    4  A    between atoms: N_20  and  C_21 
ROOT
HETATM    1  C   UNL     1      41.142 -15.453   2.310  1.00  0.00     0.097 A 
HETATM    2  C   UNL     1      41.682 -16.299   3.270  1.00  0.00     0.149 A 
HETATM    3  N   UNL     1      41.667 -15.600   4.481  1.00  0.00    -0.217 N 
HETATM    4  N   UNL     1      41.003 -14.424   4.352  1.00  0.00    -0.177 NA
HETATM    5  C   UNL     1      40.685 -14.351   3.064  1.00  0.00     0.160 A 
ENDROOT
BRANCH   2   6
HETATM    6  N   UNL     1      42.083 -17.621   3.095  1.00  0.00    -0.306 N 
HETATM    7  C   UNL     1      43.412 -17.977   2.694  1.00  0.00     0.258 C 
HETATM    8  O   UNL     1      44.276 -17.122   2.570  1.00  0.00    -0.267 OA
HETATM    9  H   UNL     1      41.436 -18.348   3.387  1.00  0.00     0.170 HD
BRANCH   7  10
HETATM   10  C   UNL     1      43.690 -19.427   2.724  1.00  0.00     0.049 A 
HETATM   11  C   UNL     1      44.371 -20.046   3.778  1.00  0.00     0.026 A 
HETATM   12 BR   UNL     1      44.851 -19.133   5.369  1.00  0.00    -0.050 Br
HETATM   13  C   UNL     1      44.710 -21.399   3.682  1.00  0.00     0.020 A 
HETATM   14  C   UNL     1      44.375 -22.127   2.537  1.00  0.00     0.001 A 
HETATM   15  C   UNL     1      43.686 -21.513   1.492  1.00  0.00     0.001 A 
HETATM   16  C   UNL     1      43.335 -20.166   1.585  1.00  0.00     0.018 A 
ENDBRANCH   7  10
ENDBRANCH   2   6
BRANCH   1  17
HETATM   17  C   UNL     1      40.903 -15.725   0.906  1.00  0.00     0.259 C 
HETATM   18  N   UNL     1      40.509 -14.664   0.079  1.00  0.00    -0.345 N 
HETATM   19  C   UNL     1      40.056 -14.989  -1.280  1.00  0.00     0.154 C 
HETATM   20  C   UNL     1      40.921 -13.265   0.268  1.00  0.00     0.154 C 
HETATM   21  C   UNL     1      41.124 -14.631  -2.327  1.00  0.00     0.254 C 
HETATM   22  N   UNL     1      41.491 -13.152  -2.184  1.00  0.00    -0.072 N 
HETATM   23  C   UNL     1      42.479 -12.714  -3.228  1.00  0.00     0.269 C 
HETATM   24  H   UNL     1      40.633 -12.607  -2.346  1.00  0.00     0.279 HD
HETATM   25  C   UNL     1      41.979 -12.840  -0.774  1.00  0.00     0.254 C 
HETATM   26  O   UNL     1      41.008 -16.866   0.457  1.00  0.00    -0.267 OA
ENDBRANCH   1  17
BRANCH   3  27
HETATM   27  C   UNL     1      42.292 -15.936   5.721  1.00  0.00     0.060 A 
HETATM   28  C   UNL     1      41.860 -17.013   6.509  1.00  0.00     0.031 A 
HETATM   29  C   UNL     1      42.509 -17.315   7.711  1.00  0.00     0.002 A 
HETATM   30  C   UNL     1      43.602 -16.562   8.127  1.00  0.00     0.000 A 
HETATM   31  C   UNL     1      44.056 -15.507   7.340  1.00  0.00     0.002 A 
HETATM   32  C   UNL     1      43.408 -15.194   6.143  1.00  0.00     0.031 A 
ENDBRANCH   3  27
TORSDOF 4
ENDMDL
MODEL 2
REMARK VINA RESULT:      -8.1      2.207      4.995
REMARK  4 active torsions:
REMARK  status: ('A' for Active; 'I' for Inactive)
REMARK       I    between atoms: N_6  and  C_7 
REMARK    1  A    between atoms: C_7  and  C_8 
REMARK    2  A    between atoms: C_9  and  N_10 
REMARK       I    between atoms: N_10  and  C_11 
REMARK    3  A    between atoms: C_11  and  C_12 
REMARK    4  A    between atoms: N_20  and  C_21 
ROOT
HETATM    1  C   UNL     1      40.826 -16.401   1.796  1.00  0.00     0.097 A 
HETATM    2  C   UNL     1      41.879 -16.722   2.643  1.00  0.00     0.149 A 
HETATM    3  N   UNL     1      42.304 -18.007   2.292  1.00  0.00    -0.217 N 
HETATM    4  N   UNL     1      41.671 -18.436   1.171  1.00  0.00    -0.177 NA
HETATM    5  C   UNL     1      40.806 -17.472   0.878  1.00  0.00     0.160 A 
ENDROOT
BRANCH   2   6
HETATM    6  N   UNL     1      42.468 -15.900   3.600  1.00  0.00    -0.306 N 
HETATM    7  C   UNL     1      41.866 -15.648   4.876  1.00  0.00     0.258 C 
HETATM    8  O   UNL     1      40.838 -16.222   5.205  1.00  0.00    -0.267 OA
HETATM    9  H   UNL     1      43.414 -15.576   3.420  1.00  0.00     0.170 HD
BRANCH   7  10
HETATM   10  C   UNL     1      42.718 -14.888   5.813  1.00  0.00     0.049 A 
HETATM   11  C   UNL     1      42.644 -13.496   5.944  1.00  0.00     0.026 A 
HETATM   12 BR   UNL     1      41.323 -12.451   5.074  1.00  0.00    -0.050 Br
HETATM   13  C   UNL     1      43.565 -12.829   6.758  1.00  0.00     0.020 A 
HETATM   14  C   UNL     1      44.556 -13.547   7.431  1.00  0.00     0.001 A 
HETATM   15  C   UNL     1      44.621 -14.935   7.310  1.00  0.00     0.001 A 
HETATM   16  C   UNL     1      43.700 -15.609   6.508  1.00  0.00     0.018 A 
ENDBRANCH   7  10
ENDBRANCH   2   6
BRANCH   1  17
HETATM   17  C   UNL     1      40.071 -15.164   1.732  1.00  0.00     0.259 C 
HETATM   18  N   UNL     1      40.688 -14.036   1.174  1.00  0.00    -0.345 N 
HETATM   19  C   UNL     1      40.003 -12.743   1.316  1.00  0.00     0.154 C 
HETATM   20  C   UNL     1      41.692 -14.081   0.100  1.00  0.00     0.154 C 
HETATM   21  C   UNL     1      39.349 -12.308  -0.006  1.00  0.00     0.254 C 
HETATM   22  N   UNL     1      40.413 -12.275  -1.105  1.00  0.00    -0.072 N 
HETATM   23  C   UNL     1      39.856 -11.785  -2.412  1.00  0.00     0.269 C 
HETATM   24  H   UNL     1      41.129 -11.594  -0.818  1.00  0.00     0.279 HD
HETATM   25  C   UNL     1      41.096 -13.630  -1.251  1.00  0.00     0.254 C 
HETATM   26  O   UNL     1      38.931 -15.096   2.188  1.00  0.00    -0.267 OA
ENDBRANCH   1  17
BRANCH   3  27
HETATM   27  C   UNL     1      43.209 -18.873   2.980  1.00  0.00     0.060 A 
HETATM   28  C   UNL     1      43.368 -18.836   4.373  1.00  0.00     0.031 A 
HETATM   29  C   UNL     1      44.256 -19.711   5.007  1.00  0.00     0.002 A 
HETATM   30  C   UNL     1      44.976 -20.641   4.263  1.00  0.00     0.000 A 
HETATM   31  C   UNL     1      44.806 -20.704   2.882  1.00  0.00     0.002 A 
HETATM   32  C   UNL     1      43.928 -19.828   2.242  1.00  0.00     0.031 A 
ENDBRANCH   3  27
TORSDOF 4
ENDMDL
MODEL 3
REMARK VINA RESULT:      -8.1      1.807      2.357
REMARK  4 active torsions:
REMARK  status: ('A' for Active; 'I' for Inactive)
REMARK       I    between atoms: N_6  and  C_7 
REMARK    1  A    between atoms: C_7  and  C_8 
REMARK    2  A    between atoms: C_9  and  N_10 
REMARK       I    between atoms: N_10  and  C_11 
REMARK    3  A    between atoms: C_11  and  C_12 
REMARK    4  A    between atoms: N_20  and  C_21 
ROOT
HETATM    1  C   UNL     1      40.628 -13.793   3.250  1.00  0.00     0.097 A 
HETATM    2  C   UNL     1      41.685 -14.311   3.986  1.00  0.00     0.149 A 
HETATM    3  N   UNL     1      41.868 -13.466   5.084  1.00  0.00    -0.217 N 
HETATM    4  N   UNL     1      40.879 -12.539   5.150  1.00  0.00    -0.177 NA
HETATM    5  C   UNL     1      40.143 -12.748   4.065  1.00  0.00     0.160 A 
ENDROOT
BRANCH   2   6
HETATM    6  N   UNL     1      42.380 -15.493   3.740  1.00  0.00    -0.306 N 
HETATM    7  C   UNL     1      42.014 -16.742   4.339  1.00  0.00     0.258 C 
HETATM    8  O   UNL     1      41.013 -16.831   5.033  1.00  0.00    -0.267 OA
HETATM    9  H   UNL     1      43.090 -15.475   3.013  1.00  0.00     0.170 HD
BRANCH   7  10
HETATM   10  C   UNL     1      42.766 -17.907   3.829  1.00  0.00     0.049 A 
HETATM   11  C   UNL     1      43.761 -18.551   4.574  1.00  0.00     0.026 A 
HETATM   12 BR   UNL     1      44.130 -18.121   6.383  1.00  0.00    -0.050 Br
HETATM   13  C   UNL     1      44.518 -19.566   3.982  1.00  0.00     0.020 A 
HETATM   14  C   UNL     1      44.286 -19.932   2.654  1.00  0.00     0.001 A 
HETATM   15  C   UNL     1      43.286 -19.299   1.917  1.00  0.00     0.001 A 
HETATM   16  C   UNL     1      42.520 -18.292   2.503  1.00  0.00     0.018 A 
ENDBRANCH   7  10
ENDBRANCH   2   6
BRANCH   1  17
HETATM   17  C   UNL     1      40.026 -14.328   2.043  1.00  0.00     0.259 C 
HETATM   18  N   UNL     1      39.947 -13.500   0.915  1.00  0.00    -0.345 N 
HETATM   19  C   UNL     1      39.141 -13.968  -0.221  1.00  0.00     0.154 C 
HETATM   20  C   UNL     1      40.925 -12.453   0.580  1.00  0.00     0.154 C 
HETATM   21  C   UNL     1      40.031 -14.459  -1.374  1.00  0.00     0.254 C 
HETATM   22  N   UNL     1      40.993 -13.339  -1.777  1.00  0.00    -0.072 N 
HETATM   23  C   UNL     1      41.845 -13.725  -2.953  1.00  0.00     0.269 C 
HETATM   24  H   UNL     1      40.420 -12.539  -2.082  1.00  0.00     0.279 HD
HETATM   25  C   UNL     1      41.834 -12.881  -0.591  1.00  0.00     0.254 C 
HETATM   26  O   UNL     1      39.562 -15.466   2.020  1.00  0.00    -0.267 OA
ENDBRANCH   1  17
BRANCH   3  27
HETATM   27  C   UNL     1      42.942 -13.435   6.026  1.00  0.00     0.060 A 
HETATM   28  C   UNL     1      44.058 -14.278   5.916  1.00  0.00     0.031 A 
HETATM   29  C   UNL     1      45.094 -14.207   6.853  1.00  0.00     0.002 A 
HETATM   30  C   UNL     1      45.037 -13.283   7.892  1.00  0.00     0.000 A 
HETATM   31  C   UNL     1      43.946 -12.423   7.996  1.00  0.00     0.002 A 
HETATM   32  C   UNL     1      42.904 -12.495   7.069  1.00  0.00     0.031 A 
ENDBRANCH   3  27
TORSDOF 4
ENDMDL
MODEL 4
REMARK VINA RESULT:      -7.9      2.772      5.692
REMARK  4 active torsions:
REMARK  status: ('A' for Active; 'I' for Inactive)
REMARK       I    between atoms: N_6  and  C_7 
REMARK    1  A    between atoms: C_7  and  C_8 
REMARK    2  A    between atoms: C_9  and  N_10 
REMARK       I    between atoms: N_10  and  C_11 
REMARK    3  A    between atoms: C_11  and  C_12 
REMARK    4  A    between atoms: N_20  and  C_21 
ROOT
HETATM    1  C   UNL     1      41.218 -15.499   5.094  1.00  0.00     0.097 A 
HETATM    2  C   UNL     1      41.680 -16.215   3.998  1.00  0.00     0.149 A 
HETATM    3  N   UNL     1      42.169 -17.431   4.485  1.00  0.00    -0.217 N 
HETATM    4  N   UNL     1      41.891 -17.569   5.806  1.00  0.00    -0.177 NA
HETATM    5  C   UNL     1      41.317 -16.424   6.156  1.00  0.00     0.160 A 
ENDROOT
BRANCH   2   6
HETATM    6  N   UNL     1      41.597 -15.846   2.658  1.00  0.00    -0.306 N 
HETATM    7  C   UNL     1      40.437 -16.103   1.857  1.00  0.00     0.258 C 
HETATM    8  O   UNL     1      39.432 -16.590   2.354  1.00  0.00    -0.267 OA
HETATM    9  H   UNL     1      42.344 -15.266   2.286  1.00  0.00     0.170 HD
BRANCH   7  10
HETATM   10  C   UNL     1      40.475 -15.493   0.513  1.00  0.00     0.049 A 
HETATM   11  C   UNL     1      39.675 -14.402   0.154  1.00  0.00     0.026 A 
HETATM   12 BR   UNL     1      38.588 -13.471   1.398  1.00  0.00    -0.050 Br
HETATM   13  C   UNL     1      39.671 -13.955  -1.171  1.00  0.00     0.020 A 
HETATM   14  C   UNL     1      40.457 -14.596  -2.131  1.00  0.00     0.001 A 
HETATM   15  C   UNL     1      41.265 -15.674  -1.770  1.00  0.00     0.001 A 
HETATM   16  C   UNL     1      41.282 -16.120  -0.448  1.00  0.00     0.018 A 
ENDBRANCH   7  10
ENDBRANCH   2   6
BRANCH   1  17
HETATM   17  C   UNL     1      40.582 -14.195   5.112  1.00  0.00     0.259 C 
HETATM   18  N   UNL     1      41.352 -13.074   4.775  1.00  0.00    -0.345 N 
HETATM   19  C   UNL     1      40.766 -11.747   5.011  1.00  0.00     0.154 C 
HETATM   20  C   UNL     1      42.467 -13.088   3.816  1.00  0.00     0.154 C 
HETATM   21  C   UNL     1      40.310 -11.094   3.695  1.00  0.00     0.254 C 
HETATM   22  N   UNL     1      41.494 -11.034   2.728  1.00  0.00    -0.072 N 
HETATM   23  C   UNL     1      41.137 -10.338   1.445  1.00  0.00     0.269 C 
HETATM   24  H   UNL     1      42.226 -10.465   3.176  1.00  0.00     0.279 HD
HETATM   25  C   UNL     1      42.074 -12.421   2.480  1.00  0.00     0.254 C 
HETATM   26  O   UNL     1      39.406 -14.071   5.450  1.00  0.00    -0.267 OA
ENDBRANCH   1  17
BRANCH   3  27
HETATM   27  C   UNL     1      42.933 -18.430   3.806  1.00  0.00     0.060 A 
HETATM   28  C   UNL     1      42.722 -18.743   2.455  1.00  0.00     0.031 A 
HETATM   29  C   UNL     1      43.501 -19.719   1.826  1.00  0.00     0.002 A 
HETATM   30  C   UNL     1      44.507 -20.374   2.529  1.00  0.00     0.000 A 
HETATM   31  C   UNL     1      44.742 -20.053   3.863  1.00  0.00     0.002 A 
HETATM   32  C   UNL     1      43.962 -19.086   4.501  1.00  0.00     0.031 A 
ENDBRANCH   3  27
TORSDOF 4
ENDMDL
MODEL 5
REMARK VINA RESULT:      -7.9      2.241      5.011
REMARK  4 active torsions:
REMARK  status: ('A' for Active; 'I' for Inactive)
REMARK       I    between atoms: N_6  and  C_7 
REMARK    1  A    between atoms: C_7  and  C_8 
REMARK    2  A    between atoms: C_9  and  N_10 
REMARK       I    between atoms: N_10  and  C_11 
REMARK    3  A    between atoms: C_11  and  C_12 
REMARK    4  A    between atoms: N_20  and  C_21 
ROOT
HETATM    1  C   UNL     1      40.667 -16.289   1.867  1.00  0.00     0.097 A 
HETATM    2  C   UNL     1      41.428 -16.332   3.028  1.00  0.00     0.149 A 
HETATM    3  N   UNL     1      42.120 -17.547   3.015  1.00  0.00    -0.217 N 
HETATM    4  N   UNL     1      41.946 -18.190   1.832  1.00  0.00    -0.177 NA
HETATM    5  C   UNL     1      41.093 -17.430   1.154  1.00  0.00     0.160 A 
ENDROOT
BRANCH   2   6
HETATM    6  N   UNL     1      41.558 -15.329   3.985  1.00  0.00    -0.306 N 
HETATM    7  C   UNL     1      42.552 -14.301   3.894  1.00  0.00     0.258 C 
HETATM    8  O   UNL     1      43.278 -14.219   2.914  1.00  0.00    -0.267 OA
HETATM    9  H   UNL     1      40.837 -15.268   4.699  1.00  0.00     0.170 HD
BRANCH   7  10
HETATM   10  C   UNL     1      42.425 -13.238   4.912  1.00  0.00     0.049 A 
HETATM   11  C   UNL     1      43.012 -13.330   6.179  1.00  0.00     0.026 A 
HETATM   12 BR   UNL     1      44.185 -14.737   6.669  1.00  0.00    -0.050 Br
HETATM   13  C   UNL     1      42.747 -12.346   7.136  1.00  0.00     0.020 A 
HETATM   14  C   UNL     1      41.897 -11.280   6.831  1.00  0.00     0.001 A 
HETATM   15  C   UNL     1      41.323 -11.182   5.564  1.00  0.00     0.001 A 
HETATM   16  C   UNL     1      41.590 -12.155   4.601  1.00  0.00     0.018 A 
ENDBRANCH   7  10
ENDBRANCH   2   6
BRANCH   1  17
HETATM   17  C   UNL     1      39.806 -15.221   1.397  1.00  0.00     0.259 C 
HETATM   18  N   UNL     1      40.383 -14.173   0.667  1.00  0.00    -0.345 N 
HETATM   19  C   UNL     1      39.551 -12.994   0.390  1.00  0.00     0.154 C 
HETATM   20  C   UNL     1      41.550 -14.318  -0.217  1.00  0.00     0.154 C 
HETATM   21  C   UNL     1      39.082 -12.970  -1.074  1.00  0.00     0.254 C 
HETATM   22  N   UNL     1      40.304 -13.037  -1.992  1.00  0.00    -0.072 N 
HETATM   23  C   UNL     1      39.923 -12.942  -3.443  1.00  0.00     0.269 C 
HETATM   24  H   UNL     1      40.886 -12.212  -1.788  1.00  0.00     0.279 HD
HETATM   25  C   UNL     1      41.143 -14.277  -1.705  1.00  0.00     0.254 C 
HETATM   26  O   UNL     1      38.605 -15.214   1.663  1.00  0.00    -0.267 OA
ENDBRANCH   1  17
BRANCH   3  27
HETATM   27  C   UNL     1      42.870 -18.166   4.062  1.00  0.00     0.060 A 
HETATM   28  C   UNL     1      44.074 -18.844   3.819  1.00  0.00     0.031 A 
HETATM   29  C   UNL     1      44.783 -19.426   4.876  1.00  0.00     0.002 A 
HETATM   30  C   UNL     1      44.311 -19.320   6.180  1.00  0.00     0.000 A 
HETATM   31  C   UNL     1      43.130 -18.627   6.435  1.00  0.00     0.002 A 
HETATM   32  C   UNL     1      42.412 -18.052   5.385  1.00  0.00     0.031 A 
ENDBRANCH   3  27
TORSDOF 4
ENDMDL
MODEL 6
REMARK VINA RESULT:      -7.8      2.694      6.898
REMARK  4 active torsions:
REMARK  status: ('A' for Active; 'I' for Inactive)
REMARK       I    between atoms: N_6  and  C_7 
REMARK    1  A    between atoms: C_7  and  C_8 
REMARK    2  A    between atoms: C_9  and  N_10 
REMARK       I    between atoms: N_10  and  C_11 
REMARK    3  A    between atoms: C_11  and  C_12 
REMARK    4  A    between atoms: N_20  and  C_21 
ROOT
HETATM    1  C   UNL     1      42.400 -16.922   4.041  1.00  0.00     0.097 A 
HETATM    2  C   UNL     1      41.953 -15.686   3.591  1.00  0.00     0.149 A 
HETATM    3  N   UNL     1      41.725 -14.900   4.725  1.00  0.00    -0.217 N 
HETATM    4  N   UNL     1      42.155 -15.532   5.846  1.00  0.00    -0.177 NA
HETATM    5  C   UNL     1      42.565 -16.725   5.429  1.00  0.00     0.160 A 
ENDROOT
BRANCH   2   6
HETATM    6  N   UNL     1      41.835 -15.266   2.269  1.00  0.00    -0.306 N 
HETATM    7  C   UNL     1      40.636 -15.447   1.506  1.00  0.00     0.258 C 
HETATM    8  O   UNL     1      39.630 -15.909   2.025  1.00  0.00    -0.267 OA
HETATM    9  H   UNL     1      42.591 -14.704   1.887  1.00  0.00     0.170 HD
BRANCH   7  10
HETATM   10  C   UNL     1      40.648 -14.790   0.183  1.00  0.00     0.049 A 
HETATM   11  C   UNL     1      40.155 -13.497  -0.025  1.00  0.00     0.026 A 
HETATM   12 BR   UNL     1      39.584 -12.374   1.393  1.00  0.00    -0.050 Br
HETATM   13  C   UNL     1      40.083 -12.986  -1.324  1.00  0.00     0.020 A 
HETATM   14  C   UNL     1      40.496 -13.763  -2.408  1.00  0.00     0.001 A 
HETATM   15  C   UNL     1      41.001 -15.046  -2.199  1.00  0.00     0.001 A 
HETATM   16  C   UNL     1      41.085 -15.560  -0.905  1.00  0.00     0.018 A 
ENDBRANCH   7  10
ENDBRANCH   2   6
BRANCH   1  17
HETATM   17  C   UNL     1      42.810 -18.069   3.254  1.00  0.00     0.259 C 
HETATM   18  N   UNL     1      44.038 -18.677   3.553  1.00  0.00    -0.345 N 
HETATM   19  C   UNL     1      44.545 -19.688   2.615  1.00  0.00     0.154 C 
HETATM   20  C   UNL     1      44.632 -18.737   4.897  1.00  0.00     0.154 C 
HETATM   21  C   UNL     1      44.376 -21.109   3.179  1.00  0.00     0.254 C 
HETATM   22  N   UNL     1      45.067 -21.193   4.541  1.00  0.00    -0.072 N 
HETATM   23  C   UNL     1      45.005 -22.580   5.118  1.00  0.00     0.269 C 
HETATM   24  H   UNL     1      46.064 -20.983   4.392  1.00  0.00     0.279 HD
HETATM   25  C   UNL     1      44.513 -20.151   5.506  1.00  0.00     0.254 C 
HETATM   26  O   UNL     1      42.117 -18.477   2.324  1.00  0.00    -0.267 OA
ENDBRANCH   1  17
BRANCH   3  27
HETATM   27  C   UNL     1      41.071 -13.633   4.823  1.00  0.00     0.060 A 
HETATM   28  C   UNL     1      39.718 -13.516   5.174  1.00  0.00     0.031 A 
HETATM   29  C   UNL     1      39.120 -12.255   5.271  1.00  0.00     0.002 A 
HETATM   30  C   UNL     1      39.867 -11.105   5.041  1.00  0.00     0.000 A 
HETATM   31  C   UNL     1      41.217 -11.208   4.717  1.00  0.00     0.002 A 
HETATM   32  C   UNL     1      41.819 -12.464   4.609  1.00  0.00     0.031 A 
ENDBRANCH   3  27
TORSDOF 4
ENDMDL
MODEL 7
REMARK VINA RESULT:      -7.8      2.953      5.557
REMARK  4 active torsions:
REMARK  status: ('A' for Active; 'I' for Inactive)
REMARK       I    between atoms: N_6  and  C_7 
REMARK    1  A    between atoms: C_7  and  C_8 
REMARK    2  A    between atoms: C_9  and  N_10 
REMARK       I    between atoms: N_10  and  C_11 
REMARK    3  A    between atoms: C_11  and  C_12 
REMARK    4  A    between atoms: N_20  and  C_21 
ROOT
HETATM    1  C   UNL     1      40.597 -16.121   2.399  1.00  0.00     0.097 A 
HETATM    2  C   UNL     1      41.203 -15.829   3.614  1.00  0.00     0.149 A 
HETATM    3  N   UNL     1      42.014 -16.922   3.937  1.00  0.00    -0.217 N 
HETATM    4  N   UNL     1      42.061 -17.807   2.910  1.00  0.00    -0.177 NA
HETATM    5  C   UNL     1      41.228 -17.318   1.998  1.00  0.00     0.160 A 
ENDROOT
BRANCH   2   6
HETATM    6  N   UNL     1      41.103 -14.644   4.339  1.00  0.00    -0.306 N 
HETATM    7  C   UNL     1      42.059 -13.583   4.219  1.00  0.00     0.258 C 
HETATM    8  O   UNL     1      42.964 -13.649   3.400  1.00  0.00    -0.267 OA
HETATM    9  H   UNL     1      40.251 -14.493   4.873  1.00  0.00     0.170 HD
BRANCH   7  10
HETATM   10  C   UNL     1      41.693 -12.348   4.941  1.00  0.00     0.049 A 
HETATM   11  C   UNL     1      41.205 -11.208   4.292  1.00  0.00     0.026 A 
HETATM   12 BR   UNL     1      40.785 -11.179   2.443  1.00  0.00    -0.050 Br
HETATM   13  C   UNL     1      40.998 -10.033   5.021  1.00  0.00     0.020 A 
HETATM   14  C   UNL     1      41.282  -9.996   6.388  1.00  0.00     0.001 A 
HETATM   15  C   UNL     1      41.756 -11.136   7.037  1.00  0.00     0.001 A 
HETATM   16  C   UNL     1      41.956 -12.315   6.318  1.00  0.00     0.018 A 
ENDBRANCH   7  10
ENDBRANCH   2   6
BRANCH   1  17
HETATM   17  C   UNL     1      39.697 -15.291   1.622  1.00  0.00     0.259 C 
HETATM   18  N   UNL     1      40.238 -14.496   0.601  1.00  0.00    -0.345 N 
HETATM   19  C   UNL     1      39.360 -13.499  -0.026  1.00  0.00     0.154 C 
HETATM   20  C   UNL     1      41.422 -14.856  -0.195  1.00  0.00     0.154 C 
HETATM   21  C   UNL     1      38.909 -13.952  -1.425  1.00  0.00     0.254 C 
HETATM   22  N   UNL     1      40.145 -14.245  -2.279  1.00  0.00    -0.072 N 
HETATM   23  C   UNL     1      39.778 -14.622  -3.687  1.00  0.00     0.269 C 
HETATM   24  H   UNL     1      40.688 -13.373  -2.342  1.00  0.00     0.279 HD
HETATM   25  C   UNL     1      41.031 -15.297  -1.622  1.00  0.00     0.254 C 
HETATM   26  O   UNL     1      38.494 -15.256   1.874  1.00  0.00    -0.267 OA
ENDBRANCH   1  17
BRANCH   3  27
HETATM   27  C   UNL     1      42.683 -17.213   5.165  1.00  0.00     0.060 A 
HETATM   28  C   UNL     1      42.048 -17.092   6.410  1.00  0.00     0.031 A 
HETATM   29  C   UNL     1      42.737 -17.399   7.588  1.00  0.00     0.002 A 
HETATM   30  C   UNL     1      44.052 -17.848   7.534  1.00  0.00     0.000 A 
HETATM   31  C   UNL     1      44.684 -17.997   6.302  1.00  0.00     0.002 A 
HETATM   32  C   UNL     1      44.006 -17.683   5.123  1.00  0.00     0.031 A 
ENDBRANCH   3  27
TORSDOF 4
ENDMDL
MODEL 8
REMARK VINA RESULT:      -7.8      2.594      5.460
REMARK  4 active torsions:
REMARK  status: ('A' for Active; 'I' for Inactive)
REMARK       I    between atoms: N_6  and  C_7 
REMARK    1  A    between atoms: C_7  and  C_8 
REMARK    2  A    between atoms: C_9  and  N_10 
REMARK       I    between atoms: N_10  and  C_11 
REMARK    3  A    between atoms: C_11  and  C_12 
REMARK    4  A    between atoms: N_20  and  C_21 
ROOT
HETATM    1  C   UNL     1      40.766 -15.115   0.401  1.00  0.00     0.097 A 
HETATM    2  C   UNL     1      41.180 -15.260   1.719  1.00  0.00     0.149 A 
HETATM    3  N   UNL     1      41.840 -16.490   1.804  1.00  0.00    -0.217 N 
HETATM    4  N   UNL     1      41.992 -17.042   0.573  1.00  0.00    -0.177 NA
HETATM    5  C   UNL     1      41.363 -16.214  -0.252  1.00  0.00     0.160 A 
ENDROOT
BRANCH   2   6
HETATM    6  N   UNL     1      41.050 -14.331   2.747  1.00  0.00    -0.306 N 
HETATM    7  C   UNL     1      42.065 -13.364   3.046  1.00  0.00     0.258 C 
HETATM    8  O   UNL     1      43.060 -13.267   2.344  1.00  0.00    -0.267 OA
HETATM    9  H   UNL     1      40.147 -14.268   3.210  1.00  0.00     0.170 HD
BRANCH   7  10
HETATM   10  C   UNL     1      41.674 -12.363   4.060  1.00  0.00     0.049 A 
HETATM   11  C   UNL     1      42.003 -12.489   5.414  1.00  0.00     0.026 A 
HETATM   12 BR   UNL     1      43.138 -13.857   6.074  1.00  0.00    -0.050 Br
HETATM   13  C   UNL     1      41.495 -11.570   6.337  1.00  0.00     0.020 A 
HETATM   14  C   UNL     1      40.659 -10.535   5.909  1.00  0.00     0.001 A 
HETATM   15  C   UNL     1      40.342 -10.402   4.558  1.00  0.00     0.001 A 
HETATM   16  C   UNL     1      40.854 -11.310   3.630  1.00  0.00     0.018 A 
ENDBRANCH   7  10
ENDBRANCH   2   6
BRANCH   1  17
HETATM   17  C   UNL     1      40.074 -13.993  -0.204  1.00  0.00     0.259 C 
HETATM   18  N   UNL     1      40.822 -12.864  -0.562  1.00  0.00    -0.345 N 
HETATM   19  C   UNL     1      40.087 -11.656  -0.964  1.00  0.00     0.154 C 
HETATM   20  C   UNL     1      42.225 -12.900  -1.003  1.00  0.00     0.154 C 
HETATM   21  C   UNL     1      40.144 -11.447  -2.486  1.00  0.00     0.254 C 
HETATM   22  N   UNL     1      41.607 -11.401  -2.932  1.00  0.00    -0.072 N 
HETATM   23  C   UNL     1      41.739 -11.123  -4.403  1.00  0.00     0.269 C 
HETATM   24  H   UNL     1      42.051 -10.610  -2.444  1.00  0.00     0.279 HD
HETATM   25  C   UNL     1      42.347 -12.670  -2.525  1.00  0.00     0.254 C 
HETATM   26  O   UNL     1      38.855 -14.017  -0.367  1.00  0.00    -0.267 OA
ENDBRANCH   1  17
BRANCH   3  27
HETATM   27  C   UNL     1      42.271 -17.201   2.966  1.00  0.00     0.060 A 
HETATM   28  C   UNL     1      41.436 -17.393   4.076  1.00  0.00     0.031 A 
HETATM   29  C   UNL     1      41.894 -18.106   5.190  1.00  0.00     0.002 A 
HETATM   30  C   UNL     1      43.175 -18.649   5.197  1.00  0.00     0.000 A 
HETATM   31  C   UNL     1      44.003 -18.487   4.089  1.00  0.00     0.002 A 
HETATM   32  C   UNL     1      43.556 -17.768   2.978  1.00  0.00     0.031 A 
ENDBRANCH   3  27
TORSDOF 4
ENDMDL
MODEL 9
REMARK VINA RESULT:      -7.6      2.942      4.370
REMARK  4 active torsions:
REMARK  status: ('A' for Active; 'I' for Inactive)
REMARK       I    between atoms: N_6  and  C_7 
REMARK    1  A    between atoms: C_7  and  C_8 
REMARK    2  A    between atoms: C_9  and  N_10 
REMARK       I    between atoms: N_10  and  C_11 
REMARK    3  A    between atoms: C_11  and  C_12 
REMARK    4  A    between atoms: N_20  and  C_21 
ROOT
HETATM    1  C   UNL     1      40.667 -12.287   0.886  1.00  0.00     0.097 A 
HETATM    2  C   UNL     1      40.822 -12.722   2.196  1.00  0.00     0.149 A 
HETATM    3  N   UNL     1      40.294 -11.724   3.020  1.00  0.00    -0.217 N 
HETATM    4  N   UNL     1      39.680 -10.764   2.283  1.00  0.00    -0.177 NA
HETATM    5  C   UNL     1      39.896 -11.113   1.020  1.00  0.00     0.160 A 
ENDROOT
BRANCH   2   6
HETATM    6  N   UNL     1      41.323 -13.951   2.619  1.00  0.00    -0.306 N 
HETATM    7  C   UNL     1      40.476 -15.070   2.910  1.00  0.00     0.258 C 
HETATM    8  O   UNL     1      39.271 -15.008   2.713  1.00  0.00    -0.267 OA
HETATM    9  H   UNL     1      42.331 -14.078   2.597  1.00  0.00     0.170 HD
BRANCH   7  10
HETATM   10  C   UNL     1      41.199 -16.328   3.184  1.00  0.00     0.049 A 
HETATM   11  C   UNL     1      41.499 -16.762   4.480  1.00  0.00     0.026 A 
HETATM   12 BR   UNL     1      40.855 -15.884   6.033  1.00  0.00    -0.050 Br
HETATM   13  C   UNL     1      42.295 -17.897   4.662  1.00  0.00     0.020 A 
HETATM   14  C   UNL     1      42.792 -18.590   3.556  1.00  0.00     0.001 A 
HETATM   15  C   UNL     1      42.482 -18.165   2.264  1.00  0.00     0.001 A 
HETATM   16  C   UNL     1      41.681 -17.039   2.075  1.00  0.00     0.018 A 
ENDBRANCH   7  10
ENDBRANCH   2   6
BRANCH   1  17
HETATM   17  C   UNL     1      41.019 -12.981  -0.338  1.00  0.00     0.259 C 
HETATM   18  N   UNL     1      40.245 -14.084  -0.725  1.00  0.00    -0.345 N 
HETATM   19  C   UNL     1      40.739 -14.910  -1.835  1.00  0.00     0.154 C 
HETATM   20  C   UNL     1      38.808 -14.231  -0.446  1.00  0.00     0.154 C 
HETATM   21  C   UNL     1      39.944 -14.647  -3.125  1.00  0.00     0.254 C 
HETATM   22  N   UNL     1      38.457 -14.882  -2.854  1.00  0.00    -0.072 N 
HETATM   23  C   UNL     1      37.626 -14.715  -4.096  1.00  0.00     0.269 C 
HETATM   24  H   UNL     1      38.350 -15.863  -2.561  1.00  0.00     0.279 HD
HETATM   25  C   UNL     1      37.958 -14.001  -1.715  1.00  0.00     0.254 C 
HETATM   26  O   UNL     1      41.994 -12.635  -1.002  1.00  0.00    -0.267 OA
ENDBRANCH   1  17
BRANCH   3  27
HETATM   27  C   UNL     1      40.391 -11.585   4.439  1.00  0.00     0.060 A 
HETATM   28  C   UNL     1      41.318 -10.723   5.044  1.00  0.00     0.031 A 
HETATM   29  C   UNL     1      41.371 -10.609   6.437  1.00  0.00     0.002 A 
HETATM   30  C   UNL     1      40.491 -11.332   7.235  1.00  0.00     0.000 A 
HETATM   31  C   UNL     1      39.550 -12.171   6.644  1.00  0.00     0.002 A 
HETATM   32  C   UNL     1      39.497 -12.298   5.254  1.00  0.00     0.031 A 
ENDBRANCH   3  27
TORSDOF 4
ENDMDL
MODEL 10
REMARK VINA RESULT:      -7.6      2.647      6.965
REMARK  4 active torsions:
REMARK  status: ('A' for Active; 'I' for Inactive)
REMARK       I    between atoms: N_6  and  C_7 
REMARK    1  A    between atoms: C_7  and  C_8 
REMARK    2  A    between atoms: C_9  and  N_10 
REMARK       I    between atoms: N_10  and  C_11 
REMARK    3  A    between atoms: C_11  and  C_12 
REMARK    4  A    between atoms: N_20  and  C_21 
ROOT
HETATM    1  C   UNL     1      41.480 -16.225   3.295  1.00  0.00     0.097 A 
HETATM    2  C   UNL     1      41.458 -14.871   2.987  1.00  0.00     0.149 A 
HETATM    3  N   UNL     1      41.033 -14.200   4.138  1.00  0.00    -0.217 N 
HETATM    4  N   UNL     1      40.940 -15.055   5.189  1.00  0.00    -0.177 NA
HETATM    5  C   UNL     1      41.219 -16.250   4.682  1.00  0.00     0.160 A 
ENDROOT
BRANCH   2   6
HETATM    6  N   UNL     1      41.862 -14.273   1.797  1.00  0.00    -0.306 N 
HETATM    7  C   UNL     1      40.969 -14.064   0.696  1.00  0.00     0.258 C 
HETATM    8  O   UNL     1      39.781 -14.333   0.797  1.00  0.00    -0.267 OA
HETATM    9  H   UNL     1      42.793 -13.865   1.771  1.00  0.00     0.170 HD
BRANCH   7  10
HETATM   10  C   UNL     1      41.539 -13.270  -0.411  1.00  0.00     0.049 A 
HETATM   11  C   UNL     1      41.658 -13.764  -1.715  1.00  0.00     0.026 A 
HETATM   12 BR   UNL     1      40.936 -15.434  -2.251  1.00  0.00    -0.050 Br
HETATM   13  C   UNL     1      42.321 -13.005  -2.684  1.00  0.00     0.020 A 
HETATM   14  C   UNL     1      42.867 -11.763  -2.350  1.00  0.00     0.001 A 
HETATM   15  C   UNL     1      42.737 -11.265  -1.054  1.00  0.00     0.001 A 
HETATM   16  C   UNL     1      42.068 -12.012  -0.085  1.00  0.00     0.018 A 
ENDBRANCH   7  10
ENDBRANCH   2   6
BRANCH   1  17
HETATM   17  C   UNL     1      41.889 -17.331   2.450  1.00  0.00     0.259 C 
HETATM   18  N   UNL     1      43.191 -17.831   2.591  1.00  0.00    -0.345 N 
HETATM   19  C   UNL     1      43.665 -18.793   1.587  1.00  0.00     0.154 C 
HETATM   20  C   UNL     1      43.946 -17.843   3.854  1.00  0.00     0.154 C 
HETATM   21  C   UNL     1      43.688 -20.224   2.149  1.00  0.00     0.254 C 
HETATM   22  N   UNL     1      44.544 -20.251   3.417  1.00  0.00    -0.072 N 
HETATM   23  C   UNL     1      44.671 -21.638   3.980  1.00  0.00     0.269 C 
HETATM   24  H   UNL     1      45.494 -19.955   3.152  1.00  0.00     0.279 HD
HETATM   25  C   UNL     1      44.023 -19.263   4.454  1.00  0.00     0.254 C 
HETATM   26  O   UNL     1      41.125 -17.796   1.606  1.00  0.00    -0.267 OA
ENDBRANCH   1  17
BRANCH   3  27
HETATM   27  C   UNL     1      40.646 -12.833   4.291  1.00  0.00     0.060 A 
HETATM   28  C   UNL     1      41.528 -11.857   4.777  1.00  0.00     0.031 A 
HETATM   29  C   UNL     1      41.112 -10.526   4.900  1.00  0.00     0.002 A 
HETATM   30  C   UNL     1      39.825 -10.156   4.522  1.00  0.00     0.000 A 
HETATM   31  C   UNL     1      38.950 -11.113   4.014  1.00  0.00     0.002 A 
HETATM   32  C   UNL     1      39.355 -12.444   3.897  1.00  0.00     0.031 A 
ENDBRANCH   3  27
TORSDOF 4
ENDMDL
