MODEL 1
REMARK VINA RESULT:      -7.4      0.000      0.000
REMARK  4 active torsions:
REMARK  status: ('A' for Active; 'I' for Inactive)
REMARK    1  A    between atoms: O_2  and  C_3 
REMARK    2  A    between atoms: C_4  and  O_5 
REMARK    3  A    between atoms: C_9  and  N_10 
REMARK    4  A    between atoms: N_10  and  C_11 
ROOT
HETATM    1  C   UNL     1      44.484 -20.045   4.102  1.00  0.00     0.102 A 
HETATM    2  C   UNL     1      43.768 -19.112   4.871  1.00  0.00     0.118 A 
HETATM    3  C   UNL     1      42.880 -18.287   4.187  1.00  0.00     0.086 A 
HETATM    4  C   UNL     1      42.711 -18.364   2.809  1.00  0.00     0.010 A 
HETATM    5  C   UNL     1      41.739 -17.342   2.363  1.00  0.00     0.267 C 
HETATM    6  O   UNL     1      41.303 -16.746   3.589  1.00  0.00    -0.287 OA
HETATM    7  C   UNL     1      42.028 -17.197   4.660  1.00  0.00     0.299 C 
HETATM    8  O   UNL     1      41.923 -16.702   5.760  1.00  0.00    -0.259 OA
HETATM    9  C   UNL     1      43.420 -19.281   2.049  1.00  0.00     0.015 A 
HETATM   10  C   UNL     1      44.318 -20.118   2.708  1.00  0.00     0.040 A 
ENDROOT
BRANCH   5  11
HETATM   11  N   UNL     1      42.376 -16.338   1.529  1.00  0.00    -0.346 N 
HETATM   12  H   UNL     1      43.294 -16.653   1.214  1.00  0.00     0.164 HD
BRANCH  11  13
HETATM   13  C   UNL     1      41.686 -15.649   0.539  1.00  0.00     0.102 A 
HETATM   14  N   UNL     1      41.692 -16.053  -0.746  1.00  0.00    -0.351 N 
HETATM   15  H   UNL     1      42.246 -16.880  -0.978  1.00  0.00     0.166 HD
HETATM   16  C   UNL     1      40.977 -15.471  -1.719  1.00  0.00     0.109 A 
HETATM   17  C   UNL     1      40.151 -14.399  -1.419  1.00  0.00     0.026 A 
HETATM   18 BR   UNL     1      39.140 -13.574  -2.778  1.00  0.00    -0.050 Br
HETATM   19  C   UNL     1      40.064 -13.960  -0.108  1.00  0.00     0.024 A 
HETATM   20  C   UNL     1      40.822 -14.597   0.877  1.00  0.00     0.050 A 
ENDBRANCH  11  13
ENDBRANCH   5  11
BRANCH   2  21
HETATM   21  O   UNL     1      44.100 -18.982   6.187  1.00  0.00    -0.352 OA
HETATM   22  C   UNL     1      45.138 -18.053   6.489  1.00  0.00     0.210 C 
ENDBRANCH   2  21
BRANCH   1  23
HETATM   23  O   UNL     1      45.435 -20.897   4.606  1.00  0.00    -0.353 OA
HETATM   24  C   UNL     1      44.922 -22.180   4.959  1.00  0.00     0.210 C 
ENDBRANCH   1  23
TORSDOF 4
ENDMDL
MODEL 2
REMARK VINA RESULT:      -7.4      2.396      3.253
REMARK  4 active torsions:
REMARK  status: ('A' for Active; 'I' for Inactive)
REMARK    1  A    between atoms: O_2  and  C_3 
REMARK    2  A    between atoms: C_4  and  O_5 
REMARK    3  A    between atoms: C_9  and  N_10 
REMARK    4  A    between atoms: N_10  and  C_11 
ROOT
HETATM    1  C   UNL     1      44.606 -20.429   4.550  1.00  0.00     0.102 A 
HETATM    2  C   UNL     1      44.483 -19.821   3.289  1.00  0.00     0.118 A 
HETATM    3  C   UNL     1      44.070 -18.492   3.272  1.00  0.00     0.086 A 
HETATM    4  C   UNL     1      43.778 -17.794   4.438  1.00  0.00     0.010 A 
HETATM    5  C   UNL     1      43.329 -16.424   4.105  1.00  0.00     0.267 C 
HETATM    6  O   UNL     1      43.474 -16.367   2.683  1.00  0.00    -0.287 OA
HETATM    7  C   UNL     1      43.799 -17.588   2.155  1.00  0.00     0.299 C 
HETATM    8  O   UNL     1      43.812 -17.788   0.961  1.00  0.00    -0.259 OA
HETATM    9  C   UNL     1      43.895 -18.394   5.682  1.00  0.00     0.015 A 
HETATM   10  C   UNL     1      44.304 -19.724   5.728  1.00  0.00     0.040 A 
ENDROOT
BRANCH   5  11
HETATM   11  N   UNL     1      41.935 -16.225   4.465  1.00  0.00    -0.346 N 
HETATM   12  H   UNL     1      41.852 -15.834   5.403  1.00  0.00     0.164 HD
BRANCH  11  13
HETATM   13  C   UNL     1      41.011 -15.680   3.582  1.00  0.00     0.102 A 
HETATM   14  N   UNL     1      40.379 -16.432   2.660  1.00  0.00    -0.351 N 
HETATM   15  H   UNL     1      40.619 -17.424   2.614  1.00  0.00     0.166 HD
HETATM   16  C   UNL     1      39.421 -15.969   1.844  1.00  0.00     0.109 A 
HETATM   17  C   UNL     1      39.014 -14.648   1.940  1.00  0.00     0.026 A 
HETATM   18 BR   UNL     1      37.668 -13.986   0.799  1.00  0.00    -0.050 Br
HETATM   19  C   UNL     1      39.593 -13.830   2.897  1.00  0.00     0.024 A 
HETATM   20  C   UNL     1      40.584 -14.353   3.731  1.00  0.00     0.050 A 
ENDBRANCH  11  13
ENDBRANCH   5  11
BRANCH   2  21
HETATM   21  O   UNL     1      44.629 -20.609   2.185  1.00  0.00    -0.352 OA
HETATM   22  C   UNL     1      43.483 -21.355   1.785  1.00  0.00     0.210 C 
ENDBRANCH   2  21
BRANCH   1  23
HETATM   23  O   UNL     1      44.950 -21.742   4.746  1.00  0.00    -0.353 OA
HETATM   24  C   UNL     1      44.561 -22.251   6.021  1.00  0.00     0.210 C 
ENDBRANCH   1  23
TORSDOF 4
ENDMDL
MODEL 3
REMARK VINA RESULT:      -7.3      1.911      3.241
REMARK  4 active torsions:
REMARK  status: ('A' for Active; 'I' for Inactive)
REMARK    1  A    between atoms: O_2  and  C_3 
REMARK    2  A    between atoms: C_4  and  O_5 
REMARK    3  A    between atoms: C_9  and  N_10 
REMARK    4  A    between atoms: N_10  and  C_11 
ROOT
HETATM    1  C   UNL     1      44.153 -17.898   5.911  1.00  0.00     0.102 A 
HETATM    2  C   UNL     1      44.406 -19.011   5.089  1.00  0.00     0.118 A 
HETATM    3  C   UNL     1      44.017 -18.906   3.758  1.00  0.00     0.086 A 
HETATM    4  C   UNL     1      43.396 -17.768   3.255  1.00  0.00     0.010 A 
HETATM    5  C   UNL     1      43.065 -17.964   1.826  1.00  0.00     0.267 C 
HETATM    6  O   UNL     1      43.622 -19.250   1.534  1.00  0.00    -0.287 OA
HETATM    7  C   UNL     1      44.086 -19.873   2.662  1.00  0.00     0.299 C 
HETATM    8  O   UNL     1      44.449 -21.028   2.654  1.00  0.00    -0.259 OA
HETATM    9  C   UNL     1      43.143 -16.672   4.065  1.00  0.00     0.015 A 
HETATM   10  C   UNL     1      43.520 -16.750   5.403  1.00  0.00     0.040 A 
ENDROOT
BRANCH   5  11
HETATM   11  N   UNL     1      41.628 -17.992   1.618  1.00  0.00    -0.346 N 
HETATM   12  H   UNL     1      41.171 -18.594   2.304  1.00  0.00     0.164 HD
BRANCH  11  13
HETATM   13  C   UNL     1      40.894 -16.843   1.350  1.00  0.00     0.102 A 
HETATM   14  N   UNL     1      39.786 -16.528   2.048  1.00  0.00    -0.351 N 
HETATM   15  H   UNL     1      39.484 -17.180   2.775  1.00  0.00     0.166 HD
HETATM   16  C   UNL     1      39.093 -15.392   1.883  1.00  0.00     0.109 A 
HETATM   17  C   UNL     1      39.526 -14.449   0.964  1.00  0.00     0.026 A 
HETATM   18 BR   UNL     1      38.561 -12.849   0.724  1.00  0.00    -0.050 Br
HETATM   19  C   UNL     1      40.684 -14.691   0.243  1.00  0.00     0.024 A 
HETATM   20  C   UNL     1      41.379 -15.885   0.448  1.00  0.00     0.050 A 
ENDBRANCH  11  13
ENDBRANCH   5  11
BRANCH   2  21
HETATM   21  O   UNL     1      44.868 -20.148   5.683  1.00  0.00    -0.352 OA
HETATM   22  C   UNL     1      43.895 -20.969   6.322  1.00  0.00     0.210 C 
ENDBRANCH   2  21
BRANCH   1  23
HETATM   23  O   UNL     1      44.424 -17.851   7.255  1.00  0.00    -0.353 OA
HETATM   24  C   UNL     1      43.326 -17.393   8.043  1.00  0.00     0.210 C 
ENDBRANCH   1  23
TORSDOF 4
ENDMDL
MODEL 4
REMARK VINA RESULT:      -7.2      1.139      1.211
REMARK  4 active torsions:
REMARK  status: ('A' for Active; 'I' for Inactive)
REMARK    1  A    between atoms: O_2  and  C_3 
REMARK    2  A    between atoms: C_4  and  O_5 
REMARK    3  A    between atoms: C_9  and  N_10 
REMARK    4  A    between atoms: N_10  and  C_11 
ROOT
HETATM    1  C   UNL     1      44.061 -19.693   3.112  1.00  0.00     0.102 A 
HETATM    2  C   UNL     1      44.029 -18.680   4.085  1.00  0.00     0.118 A 
HETATM    3  C   UNL     1      43.220 -17.580   3.817  1.00  0.00     0.086 A 
HETATM    4  C   UNL     1      42.484 -17.472   2.642  1.00  0.00     0.010 A 
HETATM    5  C   UNL     1      41.757 -16.183   2.620  1.00  0.00     0.267 C 
HETATM    6  O   UNL     1      42.058 -15.615   3.898  1.00  0.00    -0.287 OA
HETATM    7  C   UNL     1      42.994 -16.350   4.575  1.00  0.00     0.299 C 
HETATM    8  O   UNL     1      43.499 -15.956   5.603  1.00  0.00    -0.259 OA
HETATM    9  C   UNL     1      42.519 -18.469   1.680  1.00  0.00     0.015 A 
HETATM   10  C   UNL     1      43.322 -19.580   1.921  1.00  0.00     0.040 A 
ENDROOT
BRANCH   5  11
HETATM   11  N   UNL     1      42.255 -15.315   1.567  1.00  0.00    -0.346 N 
HETATM   12  H   UNL     1      43.213 -15.560   1.314  1.00  0.00     0.164 HD
BRANCH  11  13
HETATM   13  C   UNL     1      41.488 -14.975   0.460  1.00  0.00     0.102 A 
HETATM   14  N   UNL     1      41.715 -15.509  -0.755  1.00  0.00    -0.351 N 
HETATM   15  H   UNL     1      42.495 -16.165  -0.845  1.00  0.00     0.166 HD
HETATM   16  C   UNL     1      40.951 -15.276  -1.832  1.00  0.00     0.109 A 
HETATM   17  C   UNL     1      39.837 -14.458  -1.722  1.00  0.00     0.026 A 
HETATM   18 BR   UNL     1      38.756 -14.123  -3.228  1.00  0.00    -0.050 Br
HETATM   19  C   UNL     1      39.521 -13.910  -0.489  1.00  0.00     0.024 A 
HETATM   20  C   UNL     1      40.340 -14.182   0.609  1.00  0.00     0.050 A 
ENDBRANCH  11  13
ENDBRANCH   5  11
BRANCH   2  21
HETATM   21  O   UNL     1      44.895 -18.776   5.134  1.00  0.00    -0.352 OA
HETATM   22  C   UNL     1      44.365 -19.309   6.345  1.00  0.00     0.210 C 
ENDBRANCH   2  21
BRANCH   1  23
HETATM   23  O   UNL     1      44.843 -20.818   3.191  1.00  0.00    -0.353 OA
HETATM   24  C   UNL     1      44.359 -21.906   2.405  1.00  0.00     0.210 C 
ENDBRANCH   1  23
TORSDOF 4
ENDMDL
MODEL 5
REMARK VINA RESULT:      -7.1      4.070      5.395
REMARK  4 active torsions:
REMARK  status: ('A' for Active; 'I' for Inactive)
REMARK    1  A    between atoms: O_2  and  C_3 
REMARK    2  A    between atoms: C_4  and  O_5 
REMARK    3  A    between atoms: C_9  and  N_10 
REMARK    4  A    between atoms: N_10  and  C_11 
ROOT
HETATM    1  C   UNL     1      44.279 -20.176   2.847  1.00  0.00     0.102 A 
HETATM    2  C   UNL     1      44.330 -20.049   4.246  1.00  0.00     0.118 A 
HETATM    3  C   UNL     1      43.604 -19.002   4.806  1.00  0.00     0.086 A 
HETATM    4  C   UNL     1      42.871 -18.111   4.029  1.00  0.00     0.010 A 
HETATM    5  C   UNL     1      42.242 -17.088   4.894  1.00  0.00     0.267 C 
HETATM    6  O   UNL     1      42.593 -17.514   6.215  1.00  0.00    -0.287 OA
HETATM    7  C   UNL     1      43.476 -18.561   6.195  1.00  0.00     0.299 C 
HETATM    8  O   UNL     1      44.016 -18.964   7.201  1.00  0.00    -0.259 OA
HETATM    9  C   UNL     1      42.824 -18.233   2.650  1.00  0.00     0.015 A 
HETATM   10  C   UNL     1      43.544 -19.270   2.062  1.00  0.00     0.040 A 
ENDROOT
BRANCH   5  11
HETATM   11  N   UNL     1      42.798 -15.770   4.640  1.00  0.00    -0.346 N 
HETATM   12  H   UNL     1      42.258 -15.277   3.929  1.00  0.00     0.164 HD
BRANCH  11  13
HETATM   13  C   UNL     1      43.215 -14.930   5.665  1.00  0.00     0.102 A 
HETATM   14  N   UNL     1      44.315 -15.191   6.396  1.00  0.00    -0.351 N 
HETATM   15  H   UNL     1      44.828 -16.050   6.187  1.00  0.00     0.166 HD
HETATM   16  C   UNL     1      44.802 -14.370   7.338  1.00  0.00     0.109 A 
HETATM   17  C   UNL     1      44.177 -13.158   7.586  1.00  0.00     0.026 A 
HETATM   18 BR   UNL     1      44.853 -11.996   8.905  1.00  0.00    -0.050 Br
HETATM   19  C   UNL     1      43.064 -12.807   6.838  1.00  0.00     0.024 A 
HETATM   20  C   UNL     1      42.591 -13.689   5.863  1.00  0.00     0.050 A 
ENDBRANCH  11  13
ENDBRANCH   5  11
BRANCH   2  21
HETATM   21  O   UNL     1      45.192 -20.855   4.928  1.00  0.00    -0.352 OA
HETATM   22  C   UNL     1      44.660 -22.085   5.411  1.00  0.00     0.210 C 
ENDBRANCH   2  21
BRANCH   1  23
HETATM   23  O   UNL     1      44.975 -21.115   2.130  1.00  0.00    -0.353 OA
HETATM   24  C   UNL     1      44.138 -22.069   1.476  1.00  0.00     0.210 C 
ENDBRANCH   1  23
TORSDOF 4
ENDMDL
MODEL 6
REMARK VINA RESULT:      -7.1      3.490      4.335
REMARK  4 active torsions:
REMARK  status: ('A' for Active; 'I' for Inactive)
REMARK    1  A    between atoms: O_2  and  C_3 
REMARK    2  A    between atoms: C_4  and  O_5 
REMARK    3  A    between atoms: C_9  and  N_10 
REMARK    4  A    between atoms: N_10  and  C_11 
ROOT
HETATM    1  C   UNL     1      44.090 -19.757   3.042  1.00  0.00     0.102 A 
HETATM    2  C   UNL     1      43.903 -19.435   4.397  1.00  0.00     0.118 A 
HETATM    3  C   UNL     1      42.939 -18.473   4.684  1.00  0.00     0.086 A 
HETATM    4  C   UNL     1      42.199 -17.846   3.688  1.00  0.00     0.010 A 
HETATM    5  C   UNL     1      41.287 -16.849   4.290  1.00  0.00     0.267 C 
HETATM    6  O   UNL     1      41.495 -17.020   5.695  1.00  0.00    -0.287 OA
HETATM    7  C   UNL     1      42.528 -17.880   5.957  1.00  0.00     0.299 C 
HETATM    8  O   UNL     1      42.965 -18.037   7.075  1.00  0.00    -0.259 OA
HETATM    9  C   UNL     1      42.387 -18.159   2.351  1.00  0.00     0.015 A 
HETATM   10  C   UNL     1      43.347 -19.117   2.034  1.00  0.00     0.040 A 
ENDROOT
BRANCH   5  11
HETATM   11  N   UNL     1      41.654 -15.498   3.901  1.00  0.00    -0.346 N 
HETATM   12  H   UNL     1      41.559 -15.369   2.893  1.00  0.00     0.164 HD
BRANCH  11  13
HETATM   13  C   UNL     1      41.241 -14.381   4.617  1.00  0.00     0.102 A 
HETATM   14  N   UNL     1      39.987 -14.266   5.096  1.00  0.00    -0.351 N 
HETATM   15  H   UNL     1      39.333 -15.025   4.894  1.00  0.00     0.166 HD
HETATM   16  C   UNL     1      39.566 -13.249   5.861  1.00  0.00     0.109 A 
HETATM   17  C   UNL     1      40.453 -12.247   6.223  1.00  0.00     0.026 A 
HETATM   18 BR   UNL     1      39.873 -10.813   7.299  1.00  0.00    -0.050 Br
HETATM   19  C   UNL     1      41.770 -12.326   5.800  1.00  0.00     0.024 A 
HETATM   20  C   UNL     1      42.169 -13.405   5.008  1.00  0.00     0.050 A 
ENDBRANCH  11  13
ENDBRANCH   5  11
BRANCH   2  21
HETATM   21  O   UNL     1      44.770 -19.968   5.304  1.00  0.00    -0.352 OA
HETATM   22  C   UNL     1      44.355 -21.174   5.941  1.00  0.00     0.210 C 
ENDBRANCH   2  21
BRANCH   1  23
HETATM   23  O   UNL     1      45.031 -20.641   2.579  1.00  0.00    -0.353 OA
HETATM   24  C   UNL     1      44.473 -21.836   2.035  1.00  0.00     0.210 C 
ENDBRANCH   1  23
TORSDOF 4
ENDMDL
MODEL 7
REMARK VINA RESULT:      -7.0      2.584      3.316
REMARK  4 active torsions:
REMARK  status: ('A' for Active; 'I' for Inactive)
REMARK    1  A    between atoms: O_2  and  C_3 
REMARK    2  A    between atoms: C_4  and  O_5 
REMARK    3  A    between atoms: C_9  and  N_10 
REMARK    4  A    between atoms: N_10  and  C_11 
ROOT
HETATM    1  C   UNL     1      44.218 -20.122   2.940  1.00  0.00     0.102 A 
HETATM    2  C   UNL     1      44.352 -20.051   4.338  1.00  0.00     0.118 A 
HETATM    3  C   UNL     1      43.654 -19.035   4.983  1.00  0.00     0.086 A 
HETATM    4  C   UNL     1      42.870 -18.119   4.289  1.00  0.00     0.010 A 
HETATM    5  C   UNL     1      42.289 -17.139   5.231  1.00  0.00     0.267 C 
HETATM    6  O   UNL     1      42.721 -17.615   6.510  1.00  0.00    -0.287 OA
HETATM    7  C   UNL     1      43.608 -18.652   6.394  1.00  0.00     0.299 C 
HETATM    8  O   UNL     1      44.210 -19.091   7.348  1.00  0.00    -0.259 OA
HETATM    9  C   UNL     1      42.741 -18.186   2.911  1.00  0.00     0.015 A 
HETATM   10  C   UNL     1      43.430 -19.192   2.239  1.00  0.00     0.040 A 
ENDROOT
BRANCH   5  11
HETATM   11  N   UNL     1      42.819 -15.806   4.998  1.00  0.00    -0.346 N 
HETATM   12  H   UNL     1      43.835 -15.829   4.906  1.00  0.00     0.164 HD
BRANCH  11  13
HETATM   13  C   UNL     1      42.228 -14.916   4.110  1.00  0.00     0.102 A 
HETATM   14  N   UNL     1      40.930 -14.571   4.208  1.00  0.00    -0.351 N 
HETATM   15  H   UNL     1      40.380 -15.006   4.952  1.00  0.00     0.166 HD
HETATM   16  C   UNL     1      40.337 -13.655   3.429  1.00  0.00     0.109 A 
HETATM   17  C   UNL     1      41.077 -12.986   2.467  1.00  0.00     0.026 A 
HETATM   18 BR   UNL     1      40.254 -11.697   1.366  1.00  0.00    -0.050 Br
HETATM   19  C   UNL     1      42.429 -13.262   2.342  1.00  0.00     0.024 A 
HETATM   20  C   UNL     1      43.010 -14.220   3.178  1.00  0.00     0.050 A 
ENDBRANCH  11  13
ENDBRANCH   5  11
BRANCH   2  21
HETATM   21  O   UNL     1      45.259 -20.877   4.933  1.00  0.00    -0.352 OA
HETATM   22  C   UNL     1      44.765 -22.131   5.395  1.00  0.00     0.210 C 
ENDBRANCH   2  21
BRANCH   1  23
HETATM   23  O   UNL     1      44.874 -21.026   2.144  1.00  0.00    -0.353 OA
HETATM   24  C   UNL     1      44.004 -21.941   1.481  1.00  0.00     0.210 C 
ENDBRANCH   1  23
TORSDOF 4
ENDMDL
MODEL 8
REMARK VINA RESULT:      -6.9      1.779      2.850
REMARK  4 active torsions:
REMARK  status: ('A' for Active; 'I' for Inactive)
REMARK    1  A    between atoms: O_2  and  C_3 
REMARK    2  A    between atoms: C_4  and  O_5 
REMARK    3  A    between atoms: C_9  and  N_10 
REMARK    4  A    between atoms: N_10  and  C_11 
ROOT
HETATM    1  C   UNL     1      43.235 -18.679   5.305  1.00  0.00     0.102 A 
HETATM    2  C   UNL     1      43.800 -18.459   4.037  1.00  0.00     0.118 A 
HETATM    3  C   UNL     1      43.249 -17.432   3.276  1.00  0.00     0.086 A 
HETATM    4  C   UNL     1      42.184 -16.663   3.732  1.00  0.00     0.010 A 
HETATM    5  C   UNL     1      41.791 -15.682   2.696  1.00  0.00     0.267 C 
HETATM    6  O   UNL     1      42.762 -15.888   1.665  1.00  0.00    -0.287 OA
HETATM    7  C   UNL     1      43.557 -16.972   1.922  1.00  0.00     0.299 C 
HETATM    8  O   UNL     1      44.333 -17.408   1.102  1.00  0.00    -0.259 OA
HETATM    9  C   UNL     1      41.624 -16.882   4.981  1.00  0.00     0.015 A 
HETATM   10  C   UNL     1      42.154 -17.905   5.763  1.00  0.00     0.040 A 
ENDROOT
BRANCH   5  11
HETATM   11  N   UNL     1      40.461 -15.964   2.182  1.00  0.00    -0.346 N 
HETATM   12  H   UNL     1      39.826 -16.226   2.936  1.00  0.00     0.164 HD
BRANCH  11  13
HETATM   13  C   UNL     1      39.848 -15.160   1.230  1.00  0.00     0.102 A 
HETATM   14  N   UNL     1      40.379 -14.975   0.007  1.00  0.00    -0.351 N 
HETATM   15  H   UNL     1      41.271 -15.431  -0.196  1.00  0.00     0.166 HD
HETATM   16  C   UNL     1      39.783 -14.277  -0.972  1.00  0.00     0.109 A 
HETATM   17  C   UNL     1      38.534 -13.716  -0.756  1.00  0.00     0.026 A 
HETATM   18 BR   UNL     1      37.688 -12.734  -2.123  1.00  0.00    -0.050 Br
HETATM   19  C   UNL     1      37.912 -13.906   0.468  1.00  0.00     0.024 A 
HETATM   20  C   UNL     1      38.564 -14.643   1.458  1.00  0.00     0.050 A 
ENDBRANCH  11  13
ENDBRANCH   5  11
BRANCH   2  21
HETATM   21  O   UNL     1      44.730 -19.350   3.591  1.00  0.00    -0.352 OA
HETATM   22  C   UNL     1      44.235 -20.466   2.856  1.00  0.00     0.210 C 
ENDBRANCH   2  21
BRANCH   1  23
HETATM   23  O   UNL     1      43.620 -19.679   6.161  1.00  0.00    -0.353 OA
HETATM   24  C   UNL     1      43.768 -19.249   7.513  1.00  0.00     0.210 C 
ENDBRANCH   1  23
TORSDOF 4
ENDMDL
MODEL 9
REMARK VINA RESULT:      -6.9      2.252      3.807
REMARK  4 active torsions:
REMARK  status: ('A' for Active; 'I' for Inactive)
REMARK    1  A    between atoms: O_2  and  C_3 
REMARK    2  A    between atoms: C_4  and  O_5 
REMARK    3  A    between atoms: C_9  and  N_10 
REMARK    4  A    between atoms: N_10  and  C_11 
ROOT
HETATM    1  C   UNL     1      44.009 -15.492   6.488  1.00  0.00     0.102 A 
HETATM    2  C   UNL     1      44.196 -16.857   6.207  1.00  0.00     0.118 A 
HETATM    3  C   UNL     1      43.758 -17.307   4.966  1.00  0.00     0.086 A 
HETATM    4  C   UNL     1      43.151 -16.461   4.044  1.00  0.00     0.010 A 
HETATM    5  C   UNL     1      42.759 -17.226   2.840  1.00  0.00     0.267 C 
HETATM    6  O   UNL     1      43.265 -18.538   3.106  1.00  0.00    -0.287 OA
HETATM    7  C   UNL     1      43.755 -18.647   4.380  1.00  0.00     0.299 C 
HETATM    8  O   UNL     1      44.083 -19.713   4.852  1.00  0.00    -0.259 OA
HETATM    9  C   UNL     1      42.963 -15.116   4.321  1.00  0.00     0.015 A 
HETATM   10  C   UNL     1      43.390 -14.639   5.558  1.00  0.00     0.040 A 
ENDROOT
BRANCH   5  11
HETATM   11  N   UNL     1      41.314 -17.277   2.697  1.00  0.00    -0.346 N 
HETATM   12  H   UNL     1      40.865 -17.484   3.590  1.00  0.00     0.164 HD
BRANCH  11  13
HETATM   13  C   UNL     1      40.608 -16.337   1.957  1.00  0.00     0.102 A 
HETATM   14  N   UNL     1      39.440 -15.823   2.387  1.00  0.00    -0.351 N 
HETATM   15  H   UNL     1      39.071 -16.168   3.277  1.00  0.00     0.166 HD
HETATM   16  C   UNL     1      38.765 -14.856   1.750  1.00  0.00     0.109 A 
HETATM   17  C   UNL     1      39.281 -14.309   0.586  1.00  0.00     0.026 A 
HETATM   18 BR   UNL     1      38.342 -12.948  -0.319  1.00  0.00    -0.050 Br
HETATM   19  C   UNL     1      40.502 -14.761   0.110  1.00  0.00     0.024 A 
HETATM   20  C   UNL     1      41.175 -15.768   0.807  1.00  0.00     0.050 A 
ENDBRANCH  11  13
ENDBRANCH   5  11
BRANCH   2  21
HETATM   21  O   UNL     1      44.649 -17.658   7.214  1.00  0.00    -0.352 OA
HETATM   22  C   UNL     1      43.655 -18.238   8.056  1.00  0.00     0.210 C 
ENDBRANCH   2  21
BRANCH   1  23
HETATM   23  O   UNL     1      44.334 -14.895   7.679  1.00  0.00    -0.353 OA
HETATM   24  C   UNL     1      45.001 -13.643   7.527  1.00  0.00     0.210 C 
ENDBRANCH   1  23
TORSDOF 4
ENDMDL
MODEL 10
REMARK VINA RESULT:      -6.8      3.602      4.674
REMARK  4 active torsions:
REMARK  status: ('A' for Active; 'I' for Inactive)
REMARK    1  A    between atoms: O_2  and  C_3 
REMARK    2  A    between atoms: C_4  and  O_5 
REMARK    3  A    between atoms: C_9  and  N_10 
REMARK    4  A    between atoms: N_10  and  C_11 
ROOT
HETATM    1  C   UNL     1      44.558 -20.162   4.507  1.00  0.00     0.102 A 
HETATM    2  C   UNL     1      44.444 -19.708   3.181  1.00  0.00     0.118 A 
HETATM    3  C   UNL     1      43.997 -18.402   3.003  1.00  0.00     0.086 A 
HETATM    4  C   UNL     1      43.664 -17.581   4.076  1.00  0.00     0.010 A 
HETATM    5  C   UNL     1      43.187 -16.272   3.578  1.00  0.00     0.267 C 
HETATM    6  O   UNL     1      43.359 -16.377   2.162  1.00  0.00    -0.287 OA
HETATM    7  C   UNL     1      43.724 -17.641   1.784  1.00  0.00     0.299 C 
HETATM    8  O   UNL     1      43.766 -17.977   0.622  1.00  0.00    -0.259 OA
HETATM    9  C   UNL     1      43.772 -18.030   5.383  1.00  0.00     0.015 A 
HETATM   10  C   UNL     1      44.215 -19.334   5.590  1.00  0.00     0.040 A 
ENDROOT
BRANCH   5  11
HETATM   11  N   UNL     1      41.782 -16.072   3.889  1.00  0.00    -0.346 N 
HETATM   12  H   UNL     1      41.359 -16.932   4.240  1.00  0.00     0.164 HD
BRANCH  11  13
HETATM   13  C   UNL     1      41.323 -14.946   4.561  1.00  0.00     0.102 A 
HETATM   14  N   UNL     1      40.031 -14.804   4.912  1.00  0.00    -0.351 N 
HETATM   15  H   UNL     1      39.384 -15.549   4.646  1.00  0.00     0.166 HD
HETATM   16  C   UNL     1      39.558 -13.776   5.633  1.00  0.00     0.109 A 
HETATM   17  C   UNL     1      40.425 -12.793   6.081  1.00  0.00     0.026 A 
HETATM   18 BR   UNL     1      39.772 -11.345   7.095  1.00  0.00    -0.050 Br
HETATM   19  C   UNL     1      41.776 -12.901   5.792  1.00  0.00     0.024 A 
HETATM   20  C   UNL     1      42.229 -13.989   5.043  1.00  0.00     0.050 A 
ENDBRANCH  11  13
ENDBRANCH   5  11
BRANCH   2  21
HETATM   21  O   UNL     1      44.632 -20.613   2.180  1.00  0.00    -0.352 OA
HETATM   22  C   UNL     1      43.498 -21.395   1.813  1.00  0.00     0.210 C 
ENDBRANCH   2  21
BRANCH   1  23
HETATM   23  O   UNL     1      44.932 -21.434   4.860  1.00  0.00    -0.353 OA
HETATM   24  C   UNL     1      44.425 -21.847   6.128  1.00  0.00     0.210 C 
ENDBRANCH   1  23
TORSDOF 4
ENDMDL
