MODEL 1
REMARK VINA RESULT:      -8.2      0.000      0.000
REMARK  3 active torsions:
REMARK  status: ('A' for Active; 'I' for Inactive)
REMARK    1  A    between atoms: C_9  and  N_10 
REMARK    2  A    between atoms: N_13  and  C_14 
REMARK    3  A    between atoms: C_14  and  C_15 
ROOT
HETATM    1  C   UNL     1      43.967 -19.338   3.236  1.00  0.00    -0.006 A 
HETATM    2  C   UNL     1      44.520 -19.920   4.400  1.00  0.00     0.052 A 
HETATM    3  C   UNL     1      44.784 -19.139   5.579  1.00  0.00     0.100 C 
HETATM    4  N   UNL     1      45.015 -18.513   6.529  1.00  0.00    -0.191 NA
HETATM    5  C   UNL     1      44.823 -21.292   4.422  1.00  0.00     0.026 A 
HETATM    6  C   UNL     1      44.588 -22.085   3.299  1.00  0.00     0.044 A 
HETATM    7  C   UNL     1      44.055 -21.507   2.154  1.00  0.00     0.117 A 
HETATM    8  F   UNL     1      43.825 -22.267   1.076  1.00  0.00    -0.206 F 
HETATM    9  C   UNL     1      43.748 -20.152   2.110  1.00  0.00     0.052 A 
ENDROOT
BRANCH   1  10
HETATM   10  C   UNL     1      43.584 -17.870   3.179  1.00  0.00     0.312 C 
BRANCH  10  11
HETATM   11  N   UNL     1      42.544 -17.622   2.171  1.00  0.00     0.096 N 
HETATM   12  C   UNL     1      41.228 -17.379   2.788  1.00  0.00     0.303 C 
HETATM   13  C   UNL     1      41.002 -15.925   3.262  1.00  0.00     0.303 C 
HETATM   14  N   UNL     1      41.186 -14.898   2.198  1.00  0.00     0.096 N 
HETATM   15  C   UNL     1      42.588 -15.109   1.716  1.00  0.00     0.303 C 
HETATM   16  C   UNL     1      42.899 -16.548   1.226  1.00  0.00     0.303 C 
BRANCH  14  17
HETATM   17  C   UNL     1      40.190 -14.965   1.090  1.00  0.00     0.227 C 
HETATM   18  C   UNL     1      38.723 -14.647   1.495  1.00  0.00     0.069 C 
HETATM   19  C   UNL     1      38.363 -13.156   1.509  1.00  0.00     0.190 C 
HETATM   20  N   UNL     1      38.582 -12.583   0.126  1.00  0.00    -0.066 N 
HETATM   21  C   UNL     1      39.327 -12.295   2.331  1.00  0.00     0.035 C 
HETATM   22  C   UNL     1      37.796 -13.143  -1.016  1.00  0.00     0.270 C 
HETATM   23  H   UNL     1      38.294 -11.594   0.172  1.00  0.00     0.280 HD
HETATM   24  C   UNL     1      40.091 -12.585   0.035  1.00  0.00     0.190 C 
HETATM   25  C   UNL     1      40.461 -11.923   1.365  1.00  0.00     0.035 C 
HETATM   26  C   UNL     1      40.588 -14.032  -0.091  1.00  0.00     0.069 C 
ENDBRANCH  14  17
ENDBRANCH  10  11
ENDBRANCH   1  10
TORSDOF 3
ENDMDL
MODEL 2
REMARK VINA RESULT:      -8.0      1.132      1.541
REMARK  3 active torsions:
REMARK  status: ('A' for Active; 'I' for Inactive)
REMARK    1  A    between atoms: C_9  and  N_10 
REMARK    2  A    between atoms: N_13  and  C_14 
REMARK    3  A    between atoms: C_14  and  C_15 
ROOT
HETATM    1  C   UNL     1      43.524 -19.415   3.187  1.00  0.00    -0.006 A 
HETATM    2  C   UNL     1      44.375 -19.832   4.236  1.00  0.00     0.052 A 
HETATM    3  C   UNL     1      44.615 -19.002   5.386  1.00  0.00     0.100 C 
HETATM    4  N   UNL     1      44.826 -18.332   6.311  1.00  0.00    -0.191 NA
HETATM    5  C   UNL     1      45.010 -21.084   4.169  1.00  0.00     0.026 A 
HETATM    6  C   UNL     1      44.809 -21.919   3.069  1.00  0.00     0.044 A 
HETATM    7  C   UNL     1      43.982 -21.500   2.036  1.00  0.00     0.117 A 
HETATM    8  F   UNL     1      43.785 -22.301   0.981  1.00  0.00    -0.206 F 
HETATM    9  C   UNL     1      43.344 -20.265   2.082  1.00  0.00     0.052 A 
ENDROOT
BRANCH   1  10
HETATM   10  C   UNL     1      42.785 -18.090   3.234  1.00  0.00     0.312 C 
BRANCH  10  11
HETATM   11  N   UNL     1      42.961 -17.328   1.991  1.00  0.00     0.096 N 
HETATM   12  C   UNL     1      41.749 -17.354   1.153  1.00  0.00     0.303 C 
HETATM   13  C   UNL     1      40.677 -16.310   1.546  1.00  0.00     0.303 C 
HETATM   14  N   UNL     1      41.170 -14.904   1.565  1.00  0.00     0.096 N 
HETATM   15  C   UNL     1      42.306 -14.921   2.539  1.00  0.00     0.303 C 
HETATM   16  C   UNL     1      43.425 -15.948   2.218  1.00  0.00     0.303 C 
BRANCH  14  17
HETATM   17  C   UNL     1      41.574 -14.370   0.232  1.00  0.00     0.227 C 
HETATM   18  C   UNL     1      40.585 -14.667  -0.931  1.00  0.00     0.069 C 
HETATM   19  C   UNL     1      39.426 -13.673  -1.066  1.00  0.00     0.190 C 
HETATM   20  N   UNL     1      39.989 -12.287  -1.298  1.00  0.00    -0.066 N 
HETATM   21  C   UNL     1      38.647 -13.451   0.233  1.00  0.00     0.035 C 
HETATM   22  C   UNL     1      40.827 -12.046  -2.512  1.00  0.00     0.270 C 
HETATM   23  H   UNL     1      39.179 -11.661  -1.420  1.00  0.00     0.280 HD
HETATM   24  C   UNL     1      40.575 -11.971   0.059  1.00  0.00     0.190 C 
HETATM   25  C   UNL     1      39.401 -12.336   0.972  1.00  0.00     0.035 C 
HETATM   26  C   UNL     1      41.823 -12.834   0.285  1.00  0.00     0.069 C 
ENDBRANCH  14  17
ENDBRANCH  10  11
ENDBRANCH   1  10
TORSDOF 3
ENDMDL
MODEL 3
REMARK VINA RESULT:      -7.6      2.025      2.443
REMARK  3 active torsions:
REMARK  status: ('A' for Active; 'I' for Inactive)
REMARK    1  A    between atoms: C_9  and  N_10 
REMARK    2  A    between atoms: N_13  and  C_14 
REMARK    3  A    between atoms: C_14  and  C_15 
ROOT
HETATM    1  C   UNL     1      44.260 -19.968   4.412  1.00  0.00    -0.006 A 
HETATM    2  C   UNL     1      44.199 -20.981   5.396  1.00  0.00     0.052 A 
HETATM    3  C   UNL     1      43.966 -20.671   6.782  1.00  0.00     0.100 C 
HETATM    4  N   UNL     1      43.794 -20.428   7.904  1.00  0.00    -0.191 NA
HETATM    5  C   UNL     1      44.368 -22.326   5.029  1.00  0.00     0.026 A 
HETATM    6  C   UNL     1      44.601 -22.671   3.697  1.00  0.00     0.044 A 
HETATM    7  C   UNL     1      44.672 -21.672   2.736  1.00  0.00     0.117 A 
HETATM    8  F   UNL     1      44.892 -22.000   1.457  1.00  0.00    -0.206 F 
HETATM    9  C   UNL     1      44.508 -20.333   3.078  1.00  0.00     0.052 A 
ENDROOT
BRANCH   1  10
HETATM   10  C   UNL     1      44.043 -18.505   4.754  1.00  0.00     0.312 C 
BRANCH  10  11
HETATM   11  N   UNL     1      42.935 -17.928   3.980  1.00  0.00     0.096 N 
HETATM   12  C   UNL     1      41.810 -17.530   4.845  1.00  0.00     0.303 C 
HETATM   13  C   UNL     1      41.968 -16.139   5.502  1.00  0.00     0.303 C 
HETATM   14  N   UNL     1      42.197 -15.027   4.537  1.00  0.00     0.096 N 
HETATM   15  C   UNL     1      43.432 -15.430   3.793  1.00  0.00     0.303 C 
HETATM   16  C   UNL     1      43.356 -16.819   3.106  1.00  0.00     0.303 C 
BRANCH  14  17
HETATM   17  C   UNL     1      41.049 -14.752   3.624  1.00  0.00     0.227 C 
HETATM   18  C   UNL     1      39.712 -14.386   4.330  1.00  0.00     0.069 C 
HETATM   19  C   UNL     1      39.560 -12.906   4.702  1.00  0.00     0.190 C 
HETATM   20  N   UNL     1      39.649 -12.069   3.445  1.00  0.00    -0.066 N 
HETATM   21  C   UNL     1      40.739 -12.346   5.502  1.00  0.00     0.035 C 
HETATM   22  C   UNL     1      38.638 -12.285   2.365  1.00  0.00     0.270 C 
HETATM   23  H   UNL     1      39.504 -11.090   3.735  1.00  0.00     0.280 HD
HETATM   24  C   UNL     1      41.114 -12.201   3.099  1.00  0.00     0.190 C 
HETATM   25  C   UNL     1      41.759 -11.885   4.452  1.00  0.00     0.035 C 
HETATM   26  C   UNL     1      41.391 -13.627   2.603  1.00  0.00     0.069 C 
ENDBRANCH  14  17
ENDBRANCH  10  11
ENDBRANCH   1  10
TORSDOF 3
ENDMDL
MODEL 4
REMARK VINA RESULT:      -7.5      2.042      3.018
REMARK  3 active torsions:
REMARK  status: ('A' for Active; 'I' for Inactive)
REMARK    1  A    between atoms: C_9  and  N_10 
REMARK    2  A    between atoms: N_13  and  C_14 
REMARK    3  A    between atoms: C_14  and  C_15 
ROOT
HETATM    1  C   UNL     1      43.052 -18.184   3.314  1.00  0.00    -0.006 A 
HETATM    2  C   UNL     1      43.740 -18.065   4.544  1.00  0.00     0.052 A 
HETATM    3  C   UNL     1      43.534 -16.939   5.416  1.00  0.00     0.100 C 
HETATM    4  N   UNL     1      43.386 -16.026   6.118  1.00  0.00    -0.191 NA
HETATM    5  C   UNL     1      44.648 -19.062   4.939  1.00  0.00     0.026 A 
HETATM    6  C   UNL     1      44.881 -20.168   4.121  1.00  0.00     0.044 A 
HETATM    7  C   UNL     1      44.212 -20.275   2.909  1.00  0.00     0.117 A 
HETATM    8  F   UNL     1      44.432 -21.337   2.125  1.00  0.00    -0.206 F 
HETATM    9  C   UNL     1      43.309 -19.300   2.499  1.00  0.00     0.052 A 
ENDROOT
BRANCH   1  10
HETATM   10  C   UNL     1      42.031 -17.154   2.865  1.00  0.00     0.312 C 
BRANCH  10  11
HETATM   11  N   UNL     1      42.591 -16.241   1.860  1.00  0.00     0.096 N 
HETATM   12  C   UNL     1      42.410 -16.755   0.490  1.00  0.00     0.303 C 
HETATM   13  C   UNL     1      41.025 -16.456  -0.128  1.00  0.00     0.303 C 
HETATM   14  N   UNL     1      40.661 -15.012  -0.148  1.00  0.00     0.096 N 
HETATM   15  C   UNL     1      40.727 -14.592   1.288  1.00  0.00     0.303 C 
HETATM   16  C   UNL     1      42.087 -14.862   1.985  1.00  0.00     0.303 C 
BRANCH  14  17
HETATM   17  C   UNL     1      41.522 -14.166  -1.025  1.00  0.00     0.227 C 
HETATM   18  C   UNL     1      41.571 -14.595  -2.519  1.00  0.00     0.069 C 
HETATM   19  C   UNL     1      40.432 -14.048  -3.388  1.00  0.00     0.190 C 
HETATM   20  N   UNL     1      40.466 -12.536  -3.353  1.00  0.00    -0.066 N 
HETATM   21  C   UNL     1      39.037 -14.317  -2.818  1.00  0.00     0.035 C 
HETATM   22  C   UNL     1      41.685 -11.833  -3.856  1.00  0.00     0.270 C 
HETATM   23  H   UNL     1      39.711 -12.213  -3.976  1.00  0.00     0.280 HD
HETATM   24  C   UNL     1      40.003 -12.258  -1.941  1.00  0.00     0.190 C 
HETATM   25  C   UNL     1      38.756 -13.144  -1.867  1.00  0.00     0.035 C 
HETATM   26  C   UNL     1      41.107 -12.667  -0.957  1.00  0.00     0.069 C 
ENDBRANCH  14  17
ENDBRANCH  10  11
ENDBRANCH   1  10
TORSDOF 3
ENDMDL
MODEL 5
REMARK VINA RESULT:      -7.5      2.338      3.440
REMARK  3 active torsions:
REMARK  status: ('A' for Active; 'I' for Inactive)
REMARK    1  A    between atoms: C_9  and  N_10 
REMARK    2  A    between atoms: N_13  and  C_14 
REMARK    3  A    between atoms: C_14  and  C_15 
ROOT
HETATM    1  C   UNL     1      44.055 -19.244   3.082  1.00  0.00    -0.006 A 
HETATM    2  C   UNL     1      44.628 -19.801   4.249  1.00  0.00     0.052 A 
HETATM    3  C   UNL     1      45.034 -18.976   5.356  1.00  0.00     0.100 C 
HETATM    4  N   UNL     1      45.377 -18.316   6.247  1.00  0.00    -0.191 NA
HETATM    5  C   UNL     1      44.814 -21.190   4.345  1.00  0.00     0.026 A 
HETATM    6  C   UNL     1      44.440 -22.027   3.292  1.00  0.00     0.044 A 
HETATM    7  C   UNL     1      43.888 -21.475   2.144  1.00  0.00     0.117 A 
HETATM    8  F   UNL     1      43.526 -22.276   1.135  1.00  0.00    -0.206 F 
HETATM    9  C   UNL     1      43.696 -20.102   2.028  1.00  0.00     0.052 A 
ENDROOT
BRANCH   1  10
HETATM   10  C   UNL     1      43.797 -17.754   2.949  1.00  0.00     0.312 C 
BRANCH  10  11
HETATM   11  N   UNL     1      43.127 -17.214   4.139  1.00  0.00     0.096 N 
HETATM   12  C   UNL     1      43.671 -15.900   4.527  1.00  0.00     0.303 C 
HETATM   13  C   UNL     1      43.074 -14.705   3.748  1.00  0.00     0.303 C 
HETATM   14  N   UNL     1      41.589 -14.606   3.820  1.00  0.00     0.096 N 
HETATM   15  C   UNL     1      41.102 -15.915   3.281  1.00  0.00     0.303 C 
HETATM   16  C   UNL     1      41.660 -17.168   4.007  1.00  0.00     0.303 C 
BRANCH  14  17
HETATM   17  C   UNL     1      41.051 -14.320   5.182  1.00  0.00     0.227 C 
HETATM   18  C   UNL     1      41.794 -13.202   5.968  1.00  0.00     0.069 C 
HETATM   19  C   UNL     1      41.326 -11.774   5.661  1.00  0.00     0.190 C 
HETATM   20  N   UNL     1      39.855 -11.655   5.993  1.00  0.00    -0.066 N 
HETATM   21  C   UNL     1      41.311 -11.436   4.168  1.00  0.00     0.035 C 
HETATM   22  C   UNL     1      39.414 -11.894   7.401  1.00  0.00     0.270 C 
HETATM   23  H   UNL     1      39.593 -10.675   5.808  1.00  0.00     0.280 HD
HETATM   24  C   UNL     1      39.231 -12.479   4.890  1.00  0.00     0.190 C 
HETATM   25  C   UNL     1      39.938 -11.900   3.662  1.00  0.00     0.035 C 
HETATM   26  C   UNL     1      39.536 -13.964   5.133  1.00  0.00     0.069 C 
ENDBRANCH  14  17
ENDBRANCH  10  11
ENDBRANCH   1  10
TORSDOF 3
ENDMDL
MODEL 6
REMARK VINA RESULT:      -7.4      2.546      3.818
REMARK  3 active torsions:
REMARK  status: ('A' for Active; 'I' for Inactive)
REMARK    1  A    between atoms: C_9  and  N_10 
REMARK    2  A    between atoms: N_13  and  C_14 
REMARK    3  A    between atoms: C_14  and  C_15 
ROOT
HETATM    1  C   UNL     1      42.605 -17.797   4.984  1.00  0.00    -0.006 A 
HETATM    2  C   UNL     1      43.703 -18.648   4.718  1.00  0.00     0.052 A 
HETATM    3  C   UNL     1      43.906 -19.230   3.418  1.00  0.00     0.100 C 
HETATM    4  N   UNL     1      44.069 -19.716   2.376  1.00  0.00    -0.191 NA
HETATM    5  C   UNL     1      44.625 -18.942   5.736  1.00  0.00     0.026 A 
HETATM    6  C   UNL     1      44.463 -18.403   7.012  1.00  0.00     0.044 A 
HETATM    7  C   UNL     1      43.377 -17.578   7.273  1.00  0.00     0.117 A 
HETATM    8  F   UNL     1      43.221 -17.057   8.496  1.00  0.00    -0.206 F 
HETATM    9  C   UNL     1      42.452 -17.274   6.280  1.00  0.00     0.052 A 
ENDROOT
BRANCH   1  10
HETATM   10  C   UNL     1      41.606 -17.418   3.906  1.00  0.00     0.312 C 
BRANCH  10  11
HETATM   11  N   UNL     1      41.855 -16.066   3.390  1.00  0.00     0.096 N 
HETATM   12  C   UNL     1      42.515 -16.092   2.073  1.00  0.00     0.303 C 
HETATM   13  C   UNL     1      41.552 -16.283   0.878  1.00  0.00     0.303 C 
HETATM   14  N   UNL     1      40.460 -15.272   0.803  1.00  0.00     0.096 N 
HETATM   15  C   UNL     1      39.746 -15.398   2.113  1.00  0.00     0.303 C 
HETATM   16  C   UNL     1      40.645 -15.224   3.365  1.00  0.00     0.303 C 
BRANCH  14  17
HETATM   17  C   UNL     1      40.922 -13.878   0.542  1.00  0.00     0.227 C 
HETATM   18  C   UNL     1      41.721 -13.679  -0.778  1.00  0.00     0.069 C 
HETATM   19  C   UNL     1      40.862 -13.454  -2.028  1.00  0.00     0.190 C 
HETATM   20  N   UNL     1      40.011 -12.219  -1.827  1.00  0.00    -0.066 N 
HETATM   21  C   UNL     1      39.779 -14.517  -2.233  1.00  0.00     0.035 C 
HETATM   22  C   UNL     1      40.691 -10.907  -1.605  1.00  0.00     0.270 C 
HETATM   23  H   UNL     1      39.481 -12.086  -2.701  1.00  0.00     0.280 HD
HETATM   24  C   UNL     1      39.019 -12.703  -0.794  1.00  0.00     0.190 C 
HETATM   25  C   UNL     1      38.571 -14.026  -1.422  1.00  0.00     0.035 C 
HETATM   26  C   UNL     1      39.733 -12.872   0.554  1.00  0.00     0.069 C 
ENDBRANCH  14  17
ENDBRANCH  10  11
ENDBRANCH   1  10
TORSDOF 3
ENDMDL
MODEL 7
REMARK VINA RESULT:      -7.4      2.025      2.641
REMARK  3 active torsions:
REMARK  status: ('A' for Active; 'I' for Inactive)
REMARK    1  A    between atoms: C_9  and  N_10 
REMARK    2  A    between atoms: N_13  and  C_14 
REMARK    3  A    between atoms: C_14  and  C_15 
ROOT
HETATM    1  C   UNL     1      44.233 -19.721   3.919  1.00  0.00    -0.006 A 
HETATM    2  C   UNL     1      44.377 -21.121   3.779  1.00  0.00     0.052 A 
HETATM    3  C   UNL     1      44.455 -21.744   2.485  1.00  0.00     0.100 C 
HETATM    4  N   UNL     1      44.504 -22.256   1.444  1.00  0.00    -0.191 NA
HETATM    5  C   UNL     1      44.447 -21.936   4.921  1.00  0.00     0.026 A 
HETATM    6  C   UNL     1      44.370 -21.374   6.196  1.00  0.00     0.044 A 
HETATM    7  C   UNL     1      44.217 -20.001   6.329  1.00  0.00     0.117 A 
HETATM    8  F   UNL     1      44.146 -19.459   7.550  1.00  0.00    -0.206 F 
HETATM    9  C   UNL     1      44.145 -19.175   5.212  1.00  0.00     0.052 A 
ENDROOT
BRANCH   1  10
HETATM   10  C   UNL     1      44.194 -18.796   2.716  1.00  0.00     0.312 C 
BRANCH  10  11
HETATM   11  N   UNL     1      42.815 -18.503   2.304  1.00  0.00     0.096 N 
HETATM   12  C   UNL     1      42.053 -17.832   3.373  1.00  0.00     0.303 C 
HETATM   13  C   UNL     1      42.270 -16.302   3.450  1.00  0.00     0.303 C 
HETATM   14  N   UNL     1      41.980 -15.578   2.181  1.00  0.00     0.096 N 
HETATM   15  C   UNL     1      42.888 -16.214   1.174  1.00  0.00     0.303 C 
HETATM   16  C   UNL     1      42.736 -17.752   1.039  1.00  0.00     0.303 C 
BRANCH  14  17
HETATM   17  C   UNL     1      40.550 -15.615   1.757  1.00  0.00     0.227 C 
HETATM   18  C   UNL     1      39.552 -14.917   2.724  1.00  0.00     0.069 C 
HETATM   19  C   UNL     1      39.404 -13.404   2.521  1.00  0.00     0.190 C 
HETATM   20  N   UNL     1      38.922 -13.140   1.111  1.00  0.00    -0.066 N 
HETATM   21  C   UNL     1      40.735 -12.648   2.515  1.00  0.00     0.035 C 
HETATM   22  C   UNL     1      37.604 -13.702   0.686  1.00  0.00     0.270 C 
HETATM   23  H   UNL     1      38.801 -12.120   1.032  1.00  0.00     0.280 HD
HETATM   24  C   UNL     1      40.151 -13.490   0.304  1.00  0.00     0.190 C 
HETATM   25  C   UNL     1      41.226 -12.705   1.061  1.00  0.00     0.035 C 
HETATM   26  C   UNL     1      40.362 -15.009   0.335  1.00  0.00     0.069 C 
ENDBRANCH  14  17
ENDBRANCH  10  11
ENDBRANCH   1  10
TORSDOF 3
ENDMDL
MODEL 8
REMARK VINA RESULT:      -7.4      1.587      2.208
REMARK  3 active torsions:
REMARK  status: ('A' for Active; 'I' for Inactive)
REMARK    1  A    between atoms: C_9  and  N_10 
REMARK    2  A    between atoms: N_13  and  C_14 
REMARK    3  A    between atoms: C_14  and  C_15 
ROOT
HETATM    1  C   UNL     1      44.225 -19.254   5.114  1.00  0.00    -0.006 A 
HETATM    2  C   UNL     1      43.880 -19.528   6.458  1.00  0.00     0.052 A 
HETATM    3  C   UNL     1      43.506 -18.479   7.368  1.00  0.00     0.100 C 
HETATM    4  N   UNL     1      43.218 -17.636   8.112  1.00  0.00    -0.191 NA
HETATM    5  C   UNL     1      43.898 -20.851   6.931  1.00  0.00     0.026 A 
HETATM    6  C   UNL     1      44.260 -21.899   6.083  1.00  0.00     0.044 A 
HETATM    7  C   UNL     1      44.609 -21.624   4.768  1.00  0.00     0.117 A 
HETATM    8  F   UNL     1      44.954 -22.628   3.953  1.00  0.00    -0.206 F 
HETATM    9  C   UNL     1      44.599 -20.322   4.279  1.00  0.00     0.052 A 
ENDROOT
BRANCH   1  10
HETATM   10  C   UNL     1      44.180 -17.847   4.547  1.00  0.00     0.312 C 
BRANCH  10  11
HETATM   11  N   UNL     1      42.800 -17.399   4.322  1.00  0.00     0.096 N 
HETATM   12  C   UNL     1      42.595 -16.007   4.762  1.00  0.00     0.303 C 
HETATM   13  C   UNL     1      43.024 -14.940   3.728  1.00  0.00     0.303 C 
HETATM   14  N   UNL     1      42.374 -15.081   2.395  1.00  0.00     0.096 N 
HETATM   15  C   UNL     1      42.740 -16.461   1.947  1.00  0.00     0.303 C 
HETATM   16  C   UNL     1      42.347 -17.593   2.933  1.00  0.00     0.303 C 
BRANCH  14  17
HETATM   17  C   UNL     1      40.898 -14.859   2.397  1.00  0.00     0.227 C 
HETATM   18  C   UNL     1      40.441 -13.439   2.838  1.00  0.00     0.069 C 
HETATM   19  C   UNL     1      40.433 -12.386   1.724  1.00  0.00     0.190 C 
HETATM   20  N   UNL     1      39.498 -12.838   0.624  1.00  0.00    -0.066 N 
HETATM   21  C   UNL     1      41.753 -12.290   0.955  1.00  0.00     0.035 C 
HETATM   22  C   UNL     1      38.054 -13.044   0.948  1.00  0.00     0.270 C 
HETATM   23  H   UNL     1      39.495 -12.087  -0.083  1.00  0.00     0.280 HD
HETATM   24  C   UNL     1      40.275 -13.987   0.023  1.00  0.00     0.190 C 
HETATM   25  C   UNL     1      41.651 -13.341  -0.159  1.00  0.00     0.035 C 
HETATM   26  C   UNL     1      40.273 -15.167   1.005  1.00  0.00     0.069 C 
ENDBRANCH  14  17
ENDBRANCH  10  11
ENDBRANCH   1  10
TORSDOF 3
ENDMDL
MODEL 9
REMARK VINA RESULT:      -7.4      2.548      3.642
REMARK  3 active torsions:
REMARK  status: ('A' for Active; 'I' for Inactive)
REMARK    1  A    between atoms: C_9  and  N_10 
REMARK    2  A    between atoms: N_13  and  C_14 
REMARK    3  A    between atoms: C_14  and  C_15 
ROOT
HETATM    1  C   UNL     1      42.974 -18.719   4.299  1.00  0.00    -0.006 A 
HETATM    2  C   UNL     1      43.919 -19.275   5.191  1.00  0.00     0.052 A 
HETATM    3  C   UNL     1      43.942 -18.915   6.584  1.00  0.00     0.100 C 
HETATM    4  N   UNL     1      43.977 -18.619   7.706  1.00  0.00    -0.191 NA
HETATM    5  C   UNL     1      44.866 -20.202   4.723  1.00  0.00     0.026 A 
HETATM    6  C   UNL     1      44.883 -20.575   3.378  1.00  0.00     0.044 A 
HETATM    7  C   UNL     1      43.960 -20.018   2.503  1.00  0.00     0.117 A 
HETATM    8  F   UNL     1      43.972 -20.376   1.214  1.00  0.00    -0.206 F 
HETATM    9  C   UNL     1      43.015 -19.098   2.946  1.00  0.00     0.052 A 
ENDROOT
BRANCH   1  10
HETATM   10  C   UNL     1      41.907 -17.746   4.767  1.00  0.00     0.312 C 
BRANCH  10  11
HETATM   11  N   UNL     1      42.449 -16.393   4.941  1.00  0.00     0.096 N 
HETATM   12  C   UNL     1      42.325 -15.589   3.711  1.00  0.00     0.303 C 
HETATM   13  C   UNL     1      40.943 -14.923   3.518  1.00  0.00     0.303 C 
HETATM   14  N   UNL     1      40.514 -14.059   4.654  1.00  0.00     0.096 N 
HETATM   15  C   UNL     1      40.526 -14.972   5.840  1.00  0.00     0.303 C 
HETATM   16  C   UNL     1      41.879 -15.685   6.102  1.00  0.00     0.303 C 
BRANCH  14  17
HETATM   17  C   UNL     1      41.357 -12.847   4.864  1.00  0.00     0.227 C 
HETATM   18  C   UNL     1      41.587 -11.970   3.600  1.00  0.00     0.069 C 
HETATM   19  C   UNL     1      40.480 -10.950   3.310  1.00  0.00     0.190 C 
HETATM   20  N   UNL     1      40.350 -10.011   4.490  1.00  0.00    -0.066 N 
HETATM   21  C   UNL     1      39.075 -11.556   3.272  1.00  0.00     0.035 C 
HETATM   22  C   UNL     1      41.529  -9.178   4.878  1.00  0.00     0.270 C 
HETATM   23  H   UNL     1      39.625  -9.324   4.238  1.00  0.00     0.280 HD
HETATM   24  C   UNL     1      39.735 -10.920   5.529  1.00  0.00     0.190 C 
HETATM   25  C   UNL     1      38.586 -11.539   4.727  1.00  0.00     0.035 C 
HETATM   26  C   UNL     1      40.782 -11.942   5.993  1.00  0.00     0.069 C 
ENDBRANCH  14  17
ENDBRANCH  10  11
ENDBRANCH   1  10
TORSDOF 3
ENDMDL
MODEL 10
REMARK VINA RESULT:      -7.3      2.807      4.273
REMARK  3 active torsions:
REMARK  status: ('A' for Active; 'I' for Inactive)
REMARK    1  A    between atoms: C_9  and  N_10 
REMARK    2  A    between atoms: N_13  and  C_14 
REMARK    3  A    between atoms: C_14  and  C_15 
ROOT
HETATM    1  C   UNL     1      42.577 -17.073   4.202  1.00  0.00    -0.006 A 
HETATM    2  C   UNL     1      43.397 -18.214   4.042  1.00  0.00     0.052 A 
HETATM    3  C   UNL     1      43.244 -19.101   2.919  1.00  0.00     0.100 C 
HETATM    4  N   UNL     1      43.116 -19.829   2.024  1.00  0.00    -0.191 NA
HETATM    5  C   UNL     1      44.390 -18.503   4.994  1.00  0.00     0.026 A 
HETATM    6  C   UNL     1      44.569 -17.673   6.101  1.00  0.00     0.044 A 
HETATM    7  C   UNL     1      43.754 -16.560   6.260  1.00  0.00     0.117 A 
HETATM    8  F   UNL     1      43.927 -15.761   7.319  1.00  0.00    -0.206 F 
HETATM    9  C   UNL     1      42.765 -16.256   5.330  1.00  0.00     0.052 A 
ENDROOT
BRANCH   1  10
HETATM   10  C   UNL     1      41.520 -16.698   3.179  1.00  0.00     0.312 C 
BRANCH  10  11
HETATM   11  N   UNL     1      41.927 -15.531   2.385  1.00  0.00     0.096 N 
HETATM   12  C   UNL     1      42.479 -15.924   1.076  1.00  0.00     0.303 C 
HETATM   13  C   UNL     1      41.414 -16.192  -0.013  1.00  0.00     0.303 C 
HETATM   14  N   UNL     1      40.480 -15.056  -0.251  1.00  0.00     0.096 N 
HETATM   15  C   UNL     1      39.852 -14.804   1.085  1.00  0.00     0.303 C 
HETATM   16  C   UNL     1      40.856 -14.530   2.236  1.00  0.00     0.303 C 
BRANCH  14  17
HETATM   17  C   UNL     1      41.122 -13.833  -0.814  1.00  0.00     0.227 C 
HETATM   18  C   UNL     1      41.902 -14.044  -2.143  1.00  0.00     0.069 C 
HETATM   19  C   UNL     1      41.046 -13.981  -3.414  1.00  0.00     0.190 C 
HETATM   20  N   UNL     1      40.380 -12.625  -3.495  1.00  0.00    -0.066 N 
HETATM   21  C   UNL     1      39.822 -14.900  -3.380  1.00  0.00     0.035 C 
HETATM   22  C   UNL     1      41.240 -11.405  -3.568  1.00  0.00     0.270 C 
HETATM   23  H   UNL     1      39.848 -12.614  -4.378  1.00  0.00     0.280 HD
HETATM   24  C   UNL     1      39.361 -12.725  -2.382  1.00  0.00     0.190 C 
HETATM   25  C   UNL     1      38.717 -14.077  -2.702  1.00  0.00     0.035 C 
HETATM   26  C   UNL     1      40.084 -12.692  -1.029  1.00  0.00     0.069 C 
ENDBRANCH  14  17
ENDBRANCH  10  11
ENDBRANCH   1  10
TORSDOF 3
ENDMDL
