MODEL 1
REMARK VINA RESULT:     -10.4      0.000      0.000
REMARK  5 active torsions:
REMARK  status: ('A' for Active; 'I' for Inactive)
REMARK    1  A    between atoms: C_2  and  O_5 
REMARK    2  A    between atoms: O_5  and  C_6 
REMARK    3  A    between atoms: C_10  and  C_12 
REMARK    4  A    between atoms: C_16  and  C_17 
REMARK       I    between atoms: C_17  and  N_19 
REMARK    5  A    between atoms: N_19  and  C_20 
ROOT
HETATM    1  C   UNL     1      41.837 -16.995   4.771  1.00  0.00     0.061 C 
HETATM    2  C   UNL     1      40.842 -17.029   5.931  1.00  0.00     0.279 C 
HETATM    3  N   UNL     1      40.243 -15.691   5.873  1.00  0.00     0.085 N 
HETATM    4  C   UNL     1      41.375 -14.779   5.690  1.00  0.00     0.284 C 
HETATM    5  C   UNL     1      42.372 -15.551   4.824  1.00  0.00     0.116 C 
HETATM    6  H   UNL     1      39.750 -15.485   6.744  1.00  0.00     0.315 HD
ENDROOT
BRANCH   5   7
HETATM    7  C   UNL     1      42.543 -14.988   3.422  1.00  0.00     0.228 C 
HETATM    8  O   UNL     1      43.619 -14.494   3.093  1.00  0.00    -0.273 OA
HETATM    9  N   UNL     1      41.444 -15.127   2.597  1.00  0.00    -0.325 N 
HETATM   10  H   UNL     1      40.552 -15.354   3.033  1.00  0.00     0.169 HD
BRANCH   9  11
HETATM   11  C   UNL     1      41.393 -14.874   1.205  1.00  0.00     0.057 A 
HETATM   12  C   UNL     1      41.583 -13.591   0.671  1.00  0.00     0.043 A 
HETATM   13  C   UNL     1      41.571 -13.385  -0.712  1.00  0.00    -0.017 A 
HETATM   14  C   UNL     1      41.808 -12.053  -1.274  1.00  0.00     0.029 A 
HETATM   15  C   UNL     1      41.349 -14.471  -1.569  1.00  0.00     0.044 A 
HETATM   16  C   UNL     1      41.800 -11.890  -2.602  1.00  0.00     0.092 A 
HETATM   17  N   UNL     1      41.568 -12.943  -3.447  1.00  0.00    -0.333 N 
HETATM   18  C   UNL     1      41.333 -14.237  -3.036  1.00  0.00     0.256 A 
HETATM   19  H   UNL     1      41.559 -12.796  -4.451  1.00  0.00     0.168 HD
HETATM   20  O   UNL     1      41.129 -15.148  -3.831  1.00  0.00    -0.267 OA
HETATM   21  C   UNL     1      41.159 -15.757  -1.058  1.00  0.00     0.044 A 
HETATM   22  C   UNL     1      41.197 -15.954   0.323  1.00  0.00     0.061 A 
HETATM   23 CL   UNL     1      40.971 -17.561   0.925  1.00  0.00    -0.082 Cl
ENDBRANCH   9  11
ENDBRANCH   5   7
BRANCH   1  24
HETATM   24  C   UNL     1      42.829 -18.143   4.799  1.00  0.00    -0.049 A 
HETATM   25  C   UNL     1      43.229 -18.642   6.051  1.00  0.00     0.007 A 
HETATM   26  C   UNL     1      44.120 -19.710   6.148  1.00  0.00     0.003 A 
HETATM   27  C   UNL     1      44.624 -20.298   4.991  1.00  0.00     0.037 A 
HETATM   28  C   UNL     1      44.248 -19.824   3.734  1.00  0.00     0.078 A 
HETATM   29  C   UNL     1      43.367 -18.739   3.645  1.00  0.00     0.044 A 
BRANCH  28  30
HETATM   30  O   UNL     1      44.813 -20.497   2.687  1.00  0.00    -0.255 OA
BRANCH  30  31
HETATM   31  C   UNL     1      44.075 -21.557   2.104  1.00  0.00     0.530 C 
HETATM   32  F   UNL     1      43.972 -22.607   2.946  1.00  0.00    -0.144 F 
HETATM   33  F   UNL     1      44.720 -21.973   0.992  1.00  0.00    -0.144 F 
HETATM   34  F   UNL     1      42.840 -21.145   1.742  1.00  0.00    -0.144 F 
ENDBRANCH  30  31
ENDBRANCH  28  30
ENDBRANCH   1  24
TORSDOF 5
ENDMDL
MODEL 2
REMARK VINA RESULT:      -9.9      1.944      2.356
REMARK  5 active torsions:
REMARK  status: ('A' for Active; 'I' for Inactive)
REMARK    1  A    between atoms: C_2  and  O_5 
REMARK    2  A    between atoms: O_5  and  C_6 
REMARK    3  A    between atoms: C_10  and  C_12 
REMARK    4  A    between atoms: C_16  and  C_17 
REMARK       I    between atoms: C_17  and  N_19 
REMARK    5  A    between atoms: N_19  and  C_20 
ROOT
HETATM    1  C   UNL     1      41.419 -17.363   4.916  1.00  0.00     0.061 C 
HETATM    2  C   UNL     1      41.045 -17.054   6.366  1.00  0.00     0.279 C 
HETATM    3  N   UNL     1      40.093 -15.947   6.218  1.00  0.00     0.085 N 
HETATM    4  C   UNL     1      40.711 -15.047   5.241  1.00  0.00     0.284 C 
HETATM    5  C   UNL     1      41.454 -15.965   4.269  1.00  0.00     0.116 C 
HETATM    6  H   UNL     1      39.960 -15.472   7.113  1.00  0.00     0.315 HD
ENDROOT
BRANCH   5   7
HETATM    7  C   UNL     1      40.857 -16.003   2.871  1.00  0.00     0.228 C 
HETATM    8  O   UNL     1      40.196 -16.977   2.520  1.00  0.00    -0.273 OA
HETATM    9  N   UNL     1      41.084 -14.876   2.106  1.00  0.00    -0.325 N 
HETATM   10  H   UNL     1      41.812 -14.234   2.415  1.00  0.00     0.169 HD
BRANCH   9  11
HETATM   11  C   UNL     1      40.489 -14.565   0.860  1.00  0.00     0.057 A 
HETATM   12  C   UNL     1      40.891 -15.179  -0.335  1.00  0.00     0.043 A 
HETATM   13  C   UNL     1      40.249 -14.882  -1.542  1.00  0.00    -0.017 A 
HETATM   14  C   UNL     1      40.640 -15.551  -2.785  1.00  0.00     0.029 A 
HETATM   15  C   UNL     1      39.207 -13.945  -1.555  1.00  0.00     0.044 A 
HETATM   16  C   UNL     1      40.002 -15.251  -3.921  1.00  0.00     0.092 A 
HETATM   17  N   UNL     1      38.992 -14.326  -3.947  1.00  0.00    -0.333 N 
HETATM   18  C   UNL     1      38.538 -13.634  -2.844  1.00  0.00     0.256 A 
HETATM   19  H   UNL     1      38.525 -14.108  -4.821  1.00  0.00     0.168 HD
HETATM   20  O   UNL     1      37.631 -12.813  -2.917  1.00  0.00    -0.267 OA
HETATM   21  C   UNL     1      38.790 -13.323  -0.376  1.00  0.00     0.044 A 
HETATM   22  C   UNL     1      39.422 -13.647   0.825  1.00  0.00     0.061 A 
HETATM   23 CL   UNL     1      38.874 -12.868   2.271  1.00  0.00    -0.082 Cl
ENDBRANCH   9  11
ENDBRANCH   5   7
BRANCH   1  24
HETATM   24  C   UNL     1      42.638 -18.258   4.790  1.00  0.00    -0.049 A 
HETATM   25  C   UNL     1      43.400 -18.505   5.945  1.00  0.00     0.007 A 
HETATM   26  C   UNL     1      44.518 -19.337   5.903  1.00  0.00     0.003 A 
HETATM   27  C   UNL     1      44.891 -19.936   4.703  1.00  0.00     0.037 A 
HETATM   28  C   UNL     1      44.156 -19.709   3.539  1.00  0.00     0.078 A 
HETATM   29  C   UNL     1      43.044 -18.858   3.585  1.00  0.00     0.044 A 
BRANCH  28  30
HETATM   30  O   UNL     1      44.629 -20.365   2.438  1.00  0.00    -0.255 OA
BRANCH  30  31
HETATM   31  C   UNL     1      43.994 -21.574   2.062  1.00  0.00     0.530 C 
HETATM   32  F   UNL     1      44.613 -22.150   1.010  1.00  0.00    -0.144 F 
HETATM   33  F   UNL     1      42.721 -21.300   1.699  1.00  0.00    -0.144 F 
HETATM   34  F   UNL     1      43.955 -22.443   3.096  1.00  0.00    -0.144 F 
ENDBRANCH  30  31
ENDBRANCH  28  30
ENDBRANCH   1  24
TORSDOF 5
ENDMDL
MODEL 3
REMARK VINA RESULT:      -9.8      3.359      7.591
REMARK  5 active torsions:
REMARK  status: ('A' for Active; 'I' for Inactive)
REMARK    1  A    between atoms: C_2  and  O_5 
REMARK    2  A    between atoms: O_5  and  C_6 
REMARK    3  A    between atoms: C_10  and  C_12 
REMARK    4  A    between atoms: C_16  and  C_17 
REMARK       I    between atoms: C_17  and  N_19 
REMARK    5  A    between atoms: N_19  and  C_20 
ROOT
HETATM    1  C   UNL     1      41.921 -14.415   3.109  1.00  0.00     0.061 C 
HETATM    2  C   UNL     1      42.482 -13.059   3.537  1.00  0.00     0.279 C 
HETATM    3  N   UNL     1      43.117 -13.369   4.823  1.00  0.00     0.085 N 
HETATM    4  C   UNL     1      42.141 -14.199   5.533  1.00  0.00     0.284 C 
HETATM    5  C   UNL     1      41.453 -15.025   4.445  1.00  0.00     0.116 C 
HETATM    6  H   UNL     1      43.306 -12.509   5.342  1.00  0.00     0.315 HD
ENDROOT
BRANCH   5   7
HETATM    7  C   UNL     1      41.770 -16.511   4.499  1.00  0.00     0.228 C 
HETATM    8  O   UNL     1      40.967 -17.284   5.017  1.00  0.00    -0.273 OA
HETATM    9  N   UNL     1      42.957 -16.879   3.898  1.00  0.00    -0.325 N 
HETATM   10  H   UNL     1      43.632 -16.143   3.694  1.00  0.00     0.169 HD
BRANCH   9  11
HETATM   11  C   UNL     1      43.400 -18.197   3.634  1.00  0.00     0.057 A 
HETATM   12  C   UNL     1      43.848 -19.053   4.650  1.00  0.00     0.043 A 
HETATM   13  C   UNL     1      44.234 -20.366   4.360  1.00  0.00    -0.017 A 
HETATM   14  C   UNL     1      44.666 -21.275   5.424  1.00  0.00     0.029 A 
HETATM   15  C   UNL     1      44.188 -20.820   3.034  1.00  0.00     0.044 A 
HETATM   16  C   UNL     1      45.021 -22.527   5.115  1.00  0.00     0.092 A 
HETATM   17  N   UNL     1      44.994 -22.975   3.821  1.00  0.00    -0.333 N 
HETATM   18  C   UNL     1      44.607 -22.214   2.738  1.00  0.00     0.256 A 
HETATM   19  H   UNL     1      45.274 -23.927   3.607  1.00  0.00     0.168 HD
HETATM   20  O   UNL     1      44.601 -22.660   1.597  1.00  0.00    -0.267 OA
HETATM   21  C   UNL     1      43.743 -19.984   2.008  1.00  0.00     0.044 A 
HETATM   22  C   UNL     1      43.338 -18.685   2.314  1.00  0.00     0.061 A 
HETATM   23 CL   UNL     1      42.779 -17.678   1.022  1.00  0.00    -0.082 Cl
ENDBRANCH   9  11
ENDBRANCH   5   7
BRANCH   1  24
HETATM   24  C   UNL     1      40.933 -14.320   1.962  1.00  0.00    -0.049 A 
HETATM   25  C   UNL     1      39.561 -14.327   2.268  1.00  0.00     0.007 A 
HETATM   26  C   UNL     1      38.600 -14.220   1.264  1.00  0.00     0.003 A 
HETATM   27  C   UNL     1      38.997 -14.102  -0.064  1.00  0.00     0.037 A 
HETATM   28  C   UNL     1      40.352 -14.095  -0.401  1.00  0.00     0.078 A 
HETATM   29  C   UNL     1      41.311 -14.220   0.612  1.00  0.00     0.044 A 
BRANCH  28  30
HETATM   30  O   UNL     1      40.598 -13.967  -1.739  1.00  0.00    -0.255 OA
BRANCH  30  31
HETATM   31  C   UNL     1      40.678 -15.150  -2.515  1.00  0.00     0.530 C 
HETATM   32  F   UNL     1      41.592 -15.032  -3.500  1.00  0.00    -0.144 F 
HETATM   33  F   UNL     1      39.473 -15.377  -3.085  1.00  0.00    -0.144 F 
HETATM   34  F   UNL     1      40.981 -16.217  -1.742  1.00  0.00    -0.144 F 
ENDBRANCH  30  31
ENDBRANCH  28  30
ENDBRANCH   1  24
TORSDOF 5
ENDMDL
MODEL 4
REMARK VINA RESULT:      -9.3      3.557      4.838
REMARK  5 active torsions:
REMARK  status: ('A' for Active; 'I' for Inactive)
REMARK    1  A    between atoms: C_2  and  O_5 
REMARK    2  A    between atoms: O_5  and  C_6 
REMARK    3  A    between atoms: C_10  and  C_12 
REMARK    4  A    between atoms: C_16  and  C_17 
REMARK       I    between atoms: C_17  and  N_19 
REMARK    5  A    between atoms: N_19  and  C_20 
ROOT
HETATM    1  C   UNL     1      44.256 -18.956   3.742  1.00  0.00     0.061 C 
HETATM    2  C   UNL     1      44.707 -20.413   3.831  1.00  0.00     0.279 C 
HETATM    3  N   UNL     1      44.623 -20.857   2.435  1.00  0.00     0.085 N 
HETATM    4  C   UNL     1      43.338 -20.343   1.954  1.00  0.00     0.284 C 
HETATM    5  C   UNL     1      43.148 -19.006   2.672  1.00  0.00     0.116 C 
HETATM    6  H   UNL     1      44.647 -21.877   2.384  1.00  0.00     0.315 HD
ENDROOT
BRANCH   5   7
HETATM    7  C   UNL     1      43.225 -17.794   1.758  1.00  0.00     0.228 C 
HETATM    8  O   UNL     1      44.277 -17.538   1.177  1.00  0.00    -0.273 OA
HETATM    9  N   UNL     1      42.048 -17.086   1.624  1.00  0.00    -0.325 N 
HETATM   10  H   UNL     1      41.311 -17.260   2.306  1.00  0.00     0.169 HD
BRANCH   9  11
HETATM   11  C   UNL     1      41.785 -16.046   0.699  1.00  0.00     0.057 A 
HETATM   12  C   UNL     1      41.323 -16.300  -0.600  1.00  0.00     0.043 A 
HETATM   13  C   UNL     1      41.030 -15.246  -1.472  1.00  0.00    -0.017 A 
HETATM   14  C   UNL     1      40.510 -15.507  -2.817  1.00  0.00     0.029 A 
HETATM   15  C   UNL     1      41.219 -13.925  -1.044  1.00  0.00     0.044 A 
HETATM   16  C   UNL     1      40.231 -14.477  -3.624  1.00  0.00     0.092 A 
HETATM   17  N   UNL     1      40.427 -13.183  -3.220  1.00  0.00    -0.333 N 
HETATM   18  C   UNL     1      40.909 -12.815  -1.982  1.00  0.00     0.256 A 
HETATM   19  H   UNL     1      40.215 -12.417  -3.851  1.00  0.00     0.168 HD
HETATM   20  O   UNL     1      41.070 -11.642  -1.666  1.00  0.00    -0.267 OA
HETATM   21  C   UNL     1      41.677 -13.650   0.247  1.00  0.00     0.044 A 
HETATM   22  C   UNL     1      41.942 -14.709   1.115  1.00  0.00     0.061 A 
HETATM   23 CL   UNL     1      42.496 -14.337   2.712  1.00  0.00    -0.082 Cl
ENDBRANCH   9  11
ENDBRANCH   5   7
BRANCH   1  24
HETATM   24  C   UNL     1      43.939 -18.342   5.094  1.00  0.00    -0.049 A 
HETATM   25  C   UNL     1      43.936 -19.186   6.218  1.00  0.00     0.007 A 
HETATM   26  C   UNL     1      43.675 -18.683   7.492  1.00  0.00     0.003 A 
HETATM   27  C   UNL     1      43.415 -17.326   7.661  1.00  0.00     0.037 A 
HETATM   28  C   UNL     1      43.409 -16.464   6.564  1.00  0.00     0.078 A 
HETATM   29  C   UNL     1      43.655 -16.979   5.285  1.00  0.00     0.044 A 
BRANCH  28  30
HETATM   30  O   UNL     1      43.147 -15.160   6.876  1.00  0.00    -0.255 OA
BRANCH  30  31
HETATM   31  C   UNL     1      44.171 -14.206   6.656  1.00  0.00     0.530 C 
HETATM   32  F   UNL     1      45.395 -14.746   6.840  1.00  0.00    -0.144 F 
HETATM   33  F   UNL     1      44.021 -13.196   7.542  1.00  0.00    -0.144 F 
HETATM   34  F   UNL     1      44.090 -13.685   5.412  1.00  0.00    -0.144 F 
ENDBRANCH  30  31
ENDBRANCH  28  30
ENDBRANCH   1  24
TORSDOF 5
ENDMDL
MODEL 5
REMARK VINA RESULT:      -9.2      3.808      5.092
REMARK  5 active torsions:
REMARK  status: ('A' for Active; 'I' for Inactive)
REMARK    1  A    between atoms: C_2  and  O_5 
REMARK    2  A    between atoms: O_5  and  C_6 
REMARK    3  A    between atoms: C_10  and  C_12 
REMARK    4  A    between atoms: C_16  and  C_17 
REMARK       I    between atoms: C_17  and  N_19 
REMARK    5  A    between atoms: N_19  and  C_20 
ROOT
HETATM    1  C   UNL     1      42.920 -16.931   5.391  1.00  0.00     0.061 C 
HETATM    2  C   UNL     1      42.934 -17.965   6.517  1.00  0.00     0.279 C 
HETATM    3  N   UNL     1      42.823 -17.127   7.717  1.00  0.00     0.085 N 
HETATM    4  C   UNL     1      43.766 -16.028   7.498  1.00  0.00     0.284 C 
HETATM    5  C   UNL     1      43.726 -15.762   5.992  1.00  0.00     0.116 C 
HETATM    6  H   UNL     1      43.079 -17.663   8.549  1.00  0.00     0.315 HD
ENDROOT
BRANCH   5   7
HETATM    7  C   UNL     1      43.103 -14.428   5.613  1.00  0.00     0.228 C 
HETATM    8  O   UNL     1      43.765 -13.608   4.981  1.00  0.00    -0.273 OA
HETATM    9  N   UNL     1      41.785 -14.269   5.991  1.00  0.00    -0.325 N 
HETATM   10  H   UNL     1      41.411 -14.914   6.685  1.00  0.00     0.169 HD
BRANCH   9  11
HETATM   11  C   UNL     1      40.914 -13.222   5.603  1.00  0.00     0.057 A 
HETATM   12  C   UNL     1      40.830 -12.017   6.314  1.00  0.00     0.043 A 
HETATM   13  C   UNL     1      39.992 -10.985   5.876  1.00  0.00    -0.017 A 
HETATM   14  C   UNL     1      39.931  -9.710   6.594  1.00  0.00     0.029 A 
HETATM   15  C   UNL     1      39.216 -11.171   4.723  1.00  0.00     0.044 A 
HETATM   16  C   UNL     1      39.127  -8.741   6.145  1.00  0.00     0.092 A 
HETATM   17  N   UNL     1      38.353  -8.919   5.028  1.00  0.00    -0.333 N 
HETATM   18  C   UNL     1      38.326 -10.071   4.272  1.00  0.00     0.256 A 
HETATM   19  H   UNL     1      37.744  -8.173   4.708  1.00  0.00     0.168 HD
HETATM   20  O   UNL     1      37.616 -10.184   3.280  1.00  0.00    -0.267 OA
HETATM   21  C   UNL     1      39.286 -12.364   3.999  1.00  0.00     0.044 A 
HETATM   22  C   UNL     1      40.144 -13.375   4.433  1.00  0.00     0.061 A 
HETATM   23 CL   UNL     1      40.218 -14.836   3.508  1.00  0.00    -0.082 Cl
ENDBRANCH   9  11
ENDBRANCH   5   7
BRANCH   1  24
HETATM   24  C   UNL     1      43.346 -17.500   4.050  1.00  0.00    -0.049 A 
HETATM   25  C   UNL     1      43.222 -16.681   2.915  1.00  0.00     0.007 A 
HETATM   26  C   UNL     1      43.616 -17.133   1.656  1.00  0.00     0.003 A 
HETATM   27  C   UNL     1      44.144 -18.413   1.515  1.00  0.00     0.037 A 
HETATM   28  C   UNL     1      44.278 -19.251   2.623  1.00  0.00     0.078 A 
HETATM   29  C   UNL     1      43.864 -18.796   3.881  1.00  0.00     0.044 A 
BRANCH  28  30
HETATM   30  O   UNL     1      44.816 -20.475   2.340  1.00  0.00    -0.255 OA
BRANCH  30  31
HETATM   31  C   UNL     1      43.928 -21.528   2.007  1.00  0.00     0.530 C 
HETATM   32  F   UNL     1      44.300 -22.143   0.865  1.00  0.00    -0.144 F 
HETATM   33  F   UNL     1      42.693 -21.012   1.822  1.00  0.00    -0.144 F 
HETATM   34  F   UNL     1      43.857 -22.435   3.007  1.00  0.00    -0.144 F 
ENDBRANCH  30  31
ENDBRANCH  28  30
ENDBRANCH   1  24
TORSDOF 5
ENDMDL
MODEL 6
REMARK VINA RESULT:      -9.1      3.593      7.870
REMARK  5 active torsions:
REMARK  status: ('A' for Active; 'I' for Inactive)
REMARK    1  A    between atoms: C_2  and  O_5 
REMARK    2  A    between atoms: O_5  and  C_6 
REMARK    3  A    between atoms: C_10  and  C_12 
REMARK    4  A    between atoms: C_16  and  C_17 
REMARK       I    between atoms: C_17  and  N_19 
REMARK    5  A    between atoms: N_19  and  C_20 
ROOT
HETATM    1  C   UNL     1      41.797 -13.943   0.876  1.00  0.00     0.061 C 
HETATM    2  C   UNL     1      41.968 -12.494   1.333  1.00  0.00     0.279 C 
HETATM    3  N   UNL     1      41.766 -12.593   2.783  1.00  0.00     0.085 N 
HETATM    4  C   UNL     1      40.588 -13.450   2.941  1.00  0.00     0.284 C 
HETATM    5  C   UNL     1      40.671 -14.459   1.794  1.00  0.00     0.116 C 
HETATM    6  H   UNL     1      41.596 -11.668   3.181  1.00  0.00     0.315 HD
ENDROOT
BRANCH   5   7
HETATM    7  C   UNL     1      40.951 -15.885   2.240  1.00  0.00     0.228 C 
HETATM    8  O   UNL     1      40.095 -16.751   2.074  1.00  0.00    -0.273 OA
HETATM    9  N   UNL     1      42.207 -16.096   2.773  1.00  0.00    -0.325 N 
HETATM   10  H   UNL     1      42.745 -15.278   3.054  1.00  0.00     0.169 HD
BRANCH   9  11
HETATM   11  C   UNL     1      42.796 -17.346   3.084  1.00  0.00     0.057 A 
HETATM   12  C   UNL     1      42.790 -18.420   2.183  1.00  0.00     0.043 A 
HETATM   13  C   UNL     1      43.422 -19.626   2.505  1.00  0.00    -0.017 A 
HETATM   14  C   UNL     1      43.452 -20.736   1.550  1.00  0.00     0.029 A 
HETATM   15  C   UNL     1      44.050 -19.763   3.751  1.00  0.00     0.044 A 
HETATM   16  C   UNL     1      44.072 -21.873   1.885  1.00  0.00     0.092 A 
HETATM   17  N   UNL     1      44.675 -22.022   3.106  1.00  0.00    -0.333 N 
HETATM   18  C   UNL     1      44.712 -21.050   4.083  1.00  0.00     0.256 A 
HETATM   19  H   UNL     1      45.134 -22.896   3.342  1.00  0.00     0.168 HD
HETATM   20  O   UNL     1      45.264 -21.231   5.162  1.00  0.00    -0.267 OA
HETATM   21  C   UNL     1      44.068 -18.705   4.662  1.00  0.00     0.044 A 
HETATM   22  C   UNL     1      43.456 -17.499   4.319  1.00  0.00     0.061 A 
HETATM   23 CL   UNL     1      43.506 -16.202   5.465  1.00  0.00    -0.082 Cl
ENDBRANCH   9  11
ENDBRANCH   5   7
BRANCH   1  24
HETATM   24  C   UNL     1      41.636 -14.082  -0.627  1.00  0.00    -0.049 A 
HETATM   25  C   UNL     1      42.095 -13.034  -1.442  1.00  0.00     0.007 A 
HETATM   26  C   UNL     1      41.999 -13.107  -2.830  1.00  0.00     0.003 A 
HETATM   27  C   UNL     1      41.442 -14.235  -3.426  1.00  0.00     0.037 A 
HETATM   28  C   UNL     1      40.974 -15.292  -2.645  1.00  0.00     0.078 A 
HETATM   29  C   UNL     1      41.059 -15.203  -1.249  1.00  0.00     0.044 A 
BRANCH  28  30
HETATM   30  O   UNL     1      40.459 -16.336  -3.360  1.00  0.00    -0.255 OA
BRANCH  30  31
HETATM   31  C   UNL     1      39.095 -16.272  -3.739  1.00  0.00     0.530 C 
HETATM   32  F   UNL     1      38.452 -17.425  -3.460  1.00  0.00    -0.144 F 
HETATM   33  F   UNL     1      39.025 -16.064  -5.073  1.00  0.00    -0.144 F 
HETATM   34  F   UNL     1      38.470 -15.244  -3.123  1.00  0.00    -0.144 F 
ENDBRANCH  30  31
ENDBRANCH  28  30
ENDBRANCH   1  24
TORSDOF 5
ENDMDL
MODEL 7
REMARK VINA RESULT:      -9.0      2.320      2.825
REMARK  5 active torsions:
REMARK  status: ('A' for Active; 'I' for Inactive)
REMARK    1  A    between atoms: C_2  and  O_5 
REMARK    2  A    between atoms: O_5  and  C_6 
REMARK    3  A    between atoms: C_10  and  C_12 
REMARK    4  A    between atoms: C_16  and  C_17 
REMARK       I    between atoms: C_17  and  N_19 
REMARK    5  A    between atoms: N_19  and  C_20 
ROOT
HETATM    1  C   UNL     1      42.697 -16.806   4.870  1.00  0.00     0.061 C 
HETATM    2  C   UNL     1      42.746 -16.954   6.390  1.00  0.00     0.279 C 
HETATM    3  N   UNL     1      42.583 -15.569   6.848  1.00  0.00     0.085 N 
HETATM    4  C   UNL     1      43.476 -14.782   5.994  1.00  0.00     0.284 C 
HETATM    5  C   UNL     1      43.440 -15.477   4.632  1.00  0.00     0.116 C 
HETATM    6  H   UNL     1      42.854 -15.486   7.830  1.00  0.00     0.315 HD
ENDROOT
BRANCH   5   7
HETATM    7  C   UNL     1      42.760 -14.667   3.540  1.00  0.00     0.228 C 
HETATM    8  O   UNL     1      43.383 -13.776   2.969  1.00  0.00    -0.273 OA
HETATM    9  N   UNL     1      41.467 -15.051   3.246  1.00  0.00    -0.325 N 
HETATM   10  H   UNL     1      40.987 -15.649   3.916  1.00  0.00     0.169 HD
BRANCH   9  11
HETATM   11  C   UNL     1      40.679 -14.606   2.157  1.00  0.00     0.057 A 
HETATM   12  C   UNL     1      39.600 -13.727   2.324  1.00  0.00     0.043 A 
HETATM   13  C   UNL     1      38.871 -13.271   1.220  1.00  0.00    -0.017 A 
HETATM   14  C   UNL     1      37.768 -12.322   1.388  1.00  0.00     0.029 A 
HETATM   15  C   UNL     1      39.216 -13.716  -0.064  1.00  0.00     0.044 A 
HETATM   16  C   UNL     1      37.097 -11.899   0.311  1.00  0.00     0.092 A 
HETATM   17  N   UNL     1      37.416 -12.340  -0.946  1.00  0.00    -0.333 N 
HETATM   18  C   UNL     1      38.431 -13.229  -1.227  1.00  0.00     0.256 A 
HETATM   19  H   UNL     1      36.889 -12.011  -1.748  1.00  0.00     0.168 HD
HETATM   20  O   UNL     1      38.679 -13.596  -2.370  1.00  0.00    -0.267 OA
HETATM   21  C   UNL     1      40.289 -14.590  -0.253  1.00  0.00     0.044 A 
HETATM   22  C   UNL     1      41.023 -15.018   0.854  1.00  0.00     0.061 A 
HETATM   23 CL   UNL     1      42.354 -16.091   0.586  1.00  0.00    -0.082 Cl
ENDBRANCH   9  11
ENDBRANCH   5   7
BRANCH   1  24
HETATM   24  C   UNL     1      43.164 -18.047   4.132  1.00  0.00    -0.049 A 
HETATM   25  C   UNL     1      42.632 -18.298   2.856  1.00  0.00     0.007 A 
HETATM   26  C   UNL     1      43.035 -19.407   2.114  1.00  0.00     0.003 A 
HETATM   27  C   UNL     1      43.981 -20.284   2.639  1.00  0.00     0.037 A 
HETATM   28  C   UNL     1      44.526 -20.064   3.904  1.00  0.00     0.078 A 
HETATM   29  C   UNL     1      44.103 -18.957   4.650  1.00  0.00     0.044 A 
BRANCH  28  30
HETATM   30  O   UNL     1      45.446 -20.998   4.290  1.00  0.00    -0.255 OA
BRANCH  30  31
HETATM   31  C   UNL     1      44.990 -22.102   5.053  1.00  0.00     0.530 C 
HETATM   32  F   UNL     1      46.018 -22.870   5.470  1.00  0.00    -0.144 F 
HETATM   33  F   UNL     1      44.187 -22.863   4.276  1.00  0.00    -0.144 F 
HETATM   34  F   UNL     1      44.271 -21.689   6.120  1.00  0.00    -0.144 F 
ENDBRANCH  30  31
ENDBRANCH  28  30
ENDBRANCH   1  24
TORSDOF 5
ENDMDL
MODEL 8
REMARK VINA RESULT:      -9.0      3.478      7.511
REMARK  5 active torsions:
REMARK  status: ('A' for Active; 'I' for Inactive)
REMARK    1  A    between atoms: C_2  and  O_5 
REMARK    2  A    between atoms: O_5  and  C_6 
REMARK    3  A    between atoms: C_10  and  C_12 
REMARK    4  A    between atoms: C_16  and  C_17 
REMARK       I    between atoms: C_17  and  N_19 
REMARK    5  A    between atoms: N_19  and  C_20 
ROOT
HETATM    1  C   UNL     1      41.334 -13.736   2.672  1.00  0.00     0.061 C 
HETATM    2  C   UNL     1      41.813 -12.294   2.830  1.00  0.00     0.279 C 
HETATM    3  N   UNL     1      42.440 -12.312   4.157  1.00  0.00     0.085 N 
HETATM    4  C   UNL     1      41.498 -13.043   5.009  1.00  0.00     0.284 C 
HETATM    5  C   UNL     1      40.875 -14.102   4.097  1.00  0.00     0.116 C 
HETATM    6  H   UNL     1      42.574 -11.359   4.500  1.00  0.00     0.315 HD
ENDROOT
BRANCH   5   7
HETATM    7  C   UNL     1      41.271 -15.529   4.442  1.00  0.00     0.228 C 
HETATM    8  O   UNL     1      40.489 -16.240   5.068  1.00  0.00    -0.273 OA
HETATM    9  N   UNL     1      42.503 -15.926   3.964  1.00  0.00    -0.325 N 
HETATM   10  H   UNL     1      43.145 -15.200   3.649  1.00  0.00     0.169 HD
BRANCH   9  11
HETATM   11  C   UNL     1      43.030 -17.240   3.970  1.00  0.00     0.057 A 
HETATM   12  C   UNL     1      42.847 -18.123   2.896  1.00  0.00     0.043 A 
HETATM   13  C   UNL     1      43.421 -19.399   2.915  1.00  0.00    -0.017 A 
HETATM   14  C   UNL     1      43.265 -20.310   1.778  1.00  0.00     0.029 A 
HETATM   15  C   UNL     1      44.170 -19.801   4.030  1.00  0.00     0.044 A 
HETATM   16  C   UNL     1      43.833 -21.520   1.824  1.00  0.00     0.092 A 
HETATM   17  N   UNL     1      44.554 -21.928   2.915  1.00  0.00    -0.333 N 
HETATM   18  C   UNL     1      44.768 -21.161   4.040  1.00  0.00     0.256 A 
HETATM   19  H   UNL     1      44.971 -22.853   2.931  1.00  0.00     0.168 HD
HETATM   20  O   UNL     1      45.420 -21.570   4.994  1.00  0.00    -0.267 OA
HETATM   21  C   UNL     1      44.365 -18.936   5.109  1.00  0.00     0.044 A 
HETATM   22  C   UNL     1      43.808 -17.658   5.067  1.00  0.00     0.061 A 
HETATM   23 CL   UNL     1      44.078 -16.605   6.414  1.00  0.00    -0.082 Cl
ENDBRANCH   9  11
ENDBRANCH   5   7
BRANCH   1  24
HETATM   24  C   UNL     1      40.362 -13.922   1.521  1.00  0.00    -0.049 A 
HETATM   25  C   UNL     1      38.995 -14.038   1.822  1.00  0.00     0.007 A 
HETATM   26  C   UNL     1      38.046 -14.188   0.811  1.00  0.00     0.003 A 
HETATM   27  C   UNL     1      38.453 -14.222  -0.520  1.00  0.00     0.037 A 
HETATM   28  C   UNL     1      39.804 -14.111  -0.851  1.00  0.00     0.078 A 
HETATM   29  C   UNL     1      40.752 -13.979   0.171  1.00  0.00     0.044 A 
BRANCH  28  30
HETATM   30  O   UNL     1      40.059 -14.154  -2.193  1.00  0.00    -0.255 OA
BRANCH  30  31
HETATM   31  C   UNL     1      40.657 -15.326  -2.717  1.00  0.00     0.530 C 
HETATM   32  F   UNL     1      40.961 -16.205  -1.738  1.00  0.00    -0.144 F 
HETATM   33  F   UNL     1      41.804 -14.985  -3.345  1.00  0.00    -0.144 F 
HETATM   34  F   UNL     1      39.847 -15.920  -3.621  1.00  0.00    -0.144 F 
ENDBRANCH  30  31
ENDBRANCH  28  30
ENDBRANCH   1  24
TORSDOF 5
ENDMDL
MODEL 9
REMARK VINA RESULT:      -9.0      3.624      4.311
REMARK  5 active torsions:
REMARK  status: ('A' for Active; 'I' for Inactive)
REMARK    1  A    between atoms: C_2  and  O_5 
REMARK    2  A    between atoms: O_5  and  C_6 
REMARK    3  A    between atoms: C_10  and  C_12 
REMARK    4  A    between atoms: C_16  and  C_17 
REMARK       I    between atoms: C_17  and  N_19 
REMARK    5  A    between atoms: N_19  and  C_20 
ROOT
HETATM    1  C   UNL     1      43.213 -18.300   6.561  1.00  0.00     0.061 C 
HETATM    2  C   UNL     1      43.873 -18.648   7.895  1.00  0.00     0.279 C 
HETATM    3  N   UNL     1      43.458 -17.533   8.754  1.00  0.00     0.085 N 
HETATM    4  C   UNL     1      43.663 -16.334   7.939  1.00  0.00     0.284 C 
HETATM    5  C   UNL     1      43.344 -16.766   6.507  1.00  0.00     0.116 C 
HETATM    6  H   UNL     1      44.035 -17.501   9.597  1.00  0.00     0.315 HD
ENDROOT
BRANCH   5   7
HETATM    7  C   UNL     1      42.084 -16.137   5.934  1.00  0.00     0.228 C 
HETATM    8  O   UNL     1      41.027 -16.224   6.554  1.00  0.00    -0.273 OA
HETATM    9  N   UNL     1      42.257 -15.460   4.744  1.00  0.00    -0.325 N 
HETATM   10  H   UNL     1      43.115 -15.631   4.222  1.00  0.00     0.169 HD
BRANCH   9  11
HETATM   11  C   UNL     1      41.311 -14.628   4.098  1.00  0.00     0.057 A 
HETATM   12  C   UNL     1      40.476 -15.099   3.075  1.00  0.00     0.043 A 
HETATM   13  C   UNL     1      39.519 -14.262   2.491  1.00  0.00    -0.017 A 
HETATM   14  C   UNL     1      38.619 -14.762   1.449  1.00  0.00     0.029 A 
HETATM   15  C   UNL     1      39.411 -12.933   2.923  1.00  0.00     0.044 A 
HETATM   16  C   UNL     1      37.709 -13.938   0.916  1.00  0.00     0.092 A 
HETATM   17  N   UNL     1      37.607 -12.634   1.321  1.00  0.00    -0.333 N 
HETATM   18  C   UNL     1      38.396 -12.052   2.290  1.00  0.00     0.256 A 
HETATM   19  H   UNL     1      36.914 -12.024   0.899  1.00  0.00     0.168 HD
HETATM   20  O   UNL     1      38.267 -10.879   2.619  1.00  0.00    -0.267 OA
HETATM   21  C   UNL     1      40.232 -12.444   3.942  1.00  0.00     0.044 A 
HETATM   22  C   UNL     1      41.165 -13.296   4.533  1.00  0.00     0.061 A 
HETATM   23 CL   UNL     1      42.159 -12.664   5.802  1.00  0.00    -0.082 Cl
ENDBRANCH   9  11
ENDBRANCH   5   7
BRANCH   1  24
HETATM   24  C   UNL     1      43.741 -19.121   5.399  1.00  0.00    -0.049 A 
HETATM   25  C   UNL     1      44.400 -20.329   5.688  1.00  0.00     0.007 A 
HETATM   26  C   UNL     1      44.889 -21.142   4.667  1.00  0.00     0.003 A 
HETATM   27  C   UNL     1      44.726 -20.759   3.338  1.00  0.00     0.037 A 
HETATM   28  C   UNL     1      44.078 -19.565   3.020  1.00  0.00     0.078 A 
HETATM   29  C   UNL     1      43.605 -18.745   4.052  1.00  0.00     0.044 A 
BRANCH  28  30
HETATM   30  O   UNL     1      43.982 -19.318   1.679  1.00  0.00    -0.255 OA
BRANCH  30  31
HETATM   31  C   UNL     1      43.657 -18.001   1.269  1.00  0.00     0.530 C 
HETATM   32  F   UNL     1      44.479 -17.092   1.835  1.00  0.00    -0.144 F 
HETATM   33  F   UNL     1      42.394 -17.724   1.662  1.00  0.00    -0.144 F 
HETATM   34  F   UNL     1      43.712 -17.885  -0.076  1.00  0.00    -0.144 F 
ENDBRANCH  30  31
ENDBRANCH  28  30
ENDBRANCH   1  24
TORSDOF 5
ENDMDL
MODEL 10
REMARK VINA RESULT:      -8.9      3.985      5.979
REMARK  5 active torsions:
REMARK  status: ('A' for Active; 'I' for Inactive)
REMARK    1  A    between atoms: C_2  and  O_5 
REMARK    2  A    between atoms: O_5  and  C_6 
REMARK    3  A    between atoms: C_10  and  C_12 
REMARK    4  A    between atoms: C_16  and  C_17 
REMARK       I    between atoms: C_17  and  N_19 
REMARK    5  A    between atoms: N_19  and  C_20 
ROOT
HETATM    1  C   UNL     1      43.214 -17.614   2.552  1.00  0.00     0.061 C 
HETATM    2  C   UNL     1      43.645 -17.804   1.099  1.00  0.00     0.279 C 
HETATM    3  N   UNL     1      42.804 -16.833   0.389  1.00  0.00     0.085 N 
HETATM    4  C   UNL     1      41.465 -17.009   0.957  1.00  0.00     0.284 C 
HETATM    5  C   UNL     1      41.699 -17.359   2.428  1.00  0.00     0.116 C 
HETATM    6  H   UNL     1      42.801 -17.032  -0.613  1.00  0.00     0.315 HD
ENDROOT
BRANCH   5   7
HETATM    7  C   UNL     1      41.251 -16.281   3.402  1.00  0.00     0.228 C 
HETATM    8  O   UNL     1      40.530 -16.581   4.350  1.00  0.00    -0.273 OA
HETATM    9  N   UNL     1      41.750 -15.019   3.148  1.00  0.00    -0.325 N 
HETATM   10  H   UNL     1      42.157 -14.847   2.229  1.00  0.00     0.169 HD
BRANCH   9  11
HETATM   11  C   UNL     1      41.656 -13.886   3.992  1.00  0.00     0.057 A 
HETATM   12  C   UNL     1      40.699 -12.882   3.791  1.00  0.00     0.043 A 
HETATM   13  C   UNL     1      40.604 -11.799   4.672  1.00  0.00    -0.017 A 
HETATM   14  C   UNL     1      39.579 -10.769   4.488  1.00  0.00     0.029 A 
HETATM   15  C   UNL     1      41.490 -11.712   5.754  1.00  0.00     0.044 A 
HETATM   16  C   UNL     1      39.509  -9.750   5.352  1.00  0.00     0.092 A 
HETATM   17  N   UNL     1      40.381  -9.648   6.404  1.00  0.00    -0.333 N 
HETATM   18  C   UNL     1      41.383 -10.554   6.678  1.00  0.00     0.256 A 
HETATM   19  H   UNL     1      40.315  -8.864   7.044  1.00  0.00     0.168 HD
HETATM   20  O   UNL     1      42.141 -10.419   7.632  1.00  0.00    -0.267 OA
HETATM   21  C   UNL     1      42.451 -12.702   5.973  1.00  0.00     0.044 A 
HETATM   22  C   UNL     1      42.519 -13.789   5.101  1.00  0.00     0.061 A 
HETATM   23 CL   UNL     1      43.711 -15.007   5.406  1.00  0.00    -0.082 Cl
ENDBRANCH   9  11
ENDBRANCH   5   7
BRANCH   1  24
HETATM   24  C   UNL     1      43.696 -18.722   3.470  1.00  0.00    -0.049 A 
HETATM   25  C   UNL     1      44.367 -19.814   2.894  1.00  0.00     0.007 A 
HETATM   26  C   UNL     1      44.856 -20.854   3.682  1.00  0.00     0.003 A 
HETATM   27  C   UNL     1      44.681 -20.818   5.062  1.00  0.00     0.037 A 
HETATM   28  C   UNL     1      44.016 -19.749   5.665  1.00  0.00     0.078 A 
HETATM   29  C   UNL     1      43.513 -18.715   4.865  1.00  0.00     0.044 A 
BRANCH  28  30
HETATM   30  O   UNL     1      43.923 -19.839   7.025  1.00  0.00    -0.255 OA
BRANCH  30  31
HETATM   31  C   UNL     1      44.167 -18.669   7.786  1.00  0.00     0.530 C 
HETATM   32  F   UNL     1      45.202 -17.962   7.284  1.00  0.00    -0.144 F 
HETATM   33  F   UNL     1      44.481 -19.032   9.050  1.00  0.00    -0.144 F 
HETATM   34  F   UNL     1      43.067 -17.886   7.838  1.00  0.00    -0.144 F 
ENDBRANCH  30  31
ENDBRANCH  28  30
ENDBRANCH   1  24
TORSDOF 5
ENDMDL
