MODEL 1
REMARK VINA RESULT:     -10.8      0.000      0.000
REMARK  5 active torsions:
REMARK  status: ('A' for Active; 'I' for Inactive)
REMARK    1  A    between atoms: C_2  and  N_3 
REMARK    2  A    between atoms: C_7  and  N_8 
REMARK       I    between atoms: N_8  and  C_9 
REMARK    3  A    between atoms: C_9  and  C_10 
REMARK    4  A    between atoms: C_13  and  C_14 
REMARK    5  A    between atoms: C_14  and  C_15 
ROOT
HETATM    1  N   UNL     1      43.680 -14.460   7.552  1.00  0.00    -0.323 N 
HETATM    2  C   UNL     1      44.702 -13.536   7.677  1.00  0.00     0.256 C 
HETATM    3  O   UNL     1      45.771 -13.544   7.078  1.00  0.00    -0.267 OA
HETATM    4  H   UNL     1      42.784 -14.217   7.949  1.00  0.00     0.169 HD
ENDROOT
BRANCH   1   5
HETATM    5  C   UNL     1      43.750 -15.727   6.930  1.00  0.00     0.035 A 
HETATM    6  C   UNL     1      43.606 -15.921   5.554  1.00  0.00     0.044 A 
HETATM    7  C   UNL     1      43.778 -17.207   4.992  1.00  0.00     0.005 A 
HETATM    8  C   UNL     1      44.092 -18.276   5.832  1.00  0.00     0.046 A 
HETATM    9  C   UNL     1      43.712 -17.709   3.656  1.00  0.00     0.003 A 
HETATM   10  N   UNL     1      44.242 -19.389   5.026  1.00  0.00    -0.346 N 
HETATM   11  C   UNL     1      44.210 -18.110   7.220  1.00  0.00     0.033 A 
HETATM   12  C   UNL     1      44.002 -19.075   3.701  1.00  0.00     0.046 A 
HETATM   13  C   UNL     1      44.019 -19.867   2.541  1.00  0.00     0.030 A 
HETATM   14  C   UNL     1      43.738 -19.251   1.317  1.00  0.00     0.002 A 
HETATM   15  C   UNL     1      43.449 -17.893   1.248  1.00  0.00     0.001 A 
HETATM   16  C   UNL     1      43.432 -17.114   2.408  1.00  0.00     0.014 A 
HETATM   17  C   UNL     1      44.038 -16.823   7.748  1.00  0.00     0.032 A 
BRANCH  10  18
HETATM   18  C   UNL     1      44.637 -20.707   5.501  1.00  0.00     0.125 C 
HETATM   19  C   UNL     1      43.718 -21.228   6.591  1.00  0.00     0.027 C 
ENDBRANCH  10  18
ENDBRANCH   1   5
BRANCH   2  20
HETATM   20  C   UNL     1      44.444 -12.424   8.641  1.00  0.00     0.032 A 
HETATM   21  C   UNL     1      43.347 -11.564   8.508  1.00  0.00     0.017 A 
HETATM   22  C   UNL     1      43.094 -10.590   9.479  1.00  0.00     0.008 A 
HETATM   23  C   UNL     1      43.914 -10.480  10.610  1.00  0.00    -0.057 A 
HETATM   24  C   UNL     1      45.018 -11.334  10.731  1.00  0.00     0.008 A 
HETATM   25  C   UNL     1      45.279 -12.302   9.757  1.00  0.00     0.017 A 
BRANCH  23  26
HETATM   26  C   UNL     1      43.589  -9.494  11.711  1.00  0.00     0.053 C 
BRANCH  26  27
HETATM   27  C   UNL     1      43.189 -10.114  13.059  1.00  0.00     0.091 C 
HETATM   28  C   UNL     1      41.744 -10.546  13.072  1.00  0.00     0.229 C 
HETATM   29  O   UNL     1      41.261 -11.424  12.376  1.00  0.00    -0.273 OA
HETATM   30  N   UNL     1      41.062  -9.772  13.952  1.00  0.00    -0.297 N 
HETATM   31  C   UNL     1      41.855  -8.910  14.634  1.00  0.00     0.225 C 
HETATM   32  H   UNL     1      40.064  -9.822  14.079  1.00  0.00     0.171 HD
HETATM   33  O   UNL     1      41.478  -8.098  15.462  1.00  0.00    -0.273 OA
HETATM   34  C   UNL     1      43.285  -9.170  14.260  1.00  0.00     0.117 C 
ENDBRANCH  26  27
ENDBRANCH  23  26
ENDBRANCH   2  20
TORSDOF 5
ENDMDL
MODEL 2
REMARK VINA RESULT:     -10.4      1.439      2.776
REMARK  5 active torsions:
REMARK  status: ('A' for Active; 'I' for Inactive)
REMARK    1  A    between atoms: C_2  and  N_3 
REMARK    2  A    between atoms: C_7  and  N_8 
REMARK       I    between atoms: N_8  and  C_9 
REMARK    3  A    between atoms: C_9  and  C_10 
REMARK    4  A    between atoms: C_13  and  C_14 
REMARK    5  A    between atoms: C_14  and  C_15 
ROOT
HETATM    1  N   UNL     1      43.578 -13.540   6.908  1.00  0.00    -0.323 N 
HETATM    2  C   UNL     1      44.710 -13.089   7.563  1.00  0.00     0.256 C 
HETATM    3  O   UNL     1      45.870 -13.221   7.192  1.00  0.00    -0.267 OA
HETATM    4  H   UNL     1      42.687 -13.183   7.222  1.00  0.00     0.169 HD
ENDROOT
BRANCH   1   5
HETATM    5  C   UNL     1      43.525 -14.463   5.840  1.00  0.00     0.035 A 
HETATM    6  C   UNL     1      43.937 -15.793   5.947  1.00  0.00     0.044 A 
HETATM    7  C   UNL     1      43.769 -16.682   4.861  1.00  0.00     0.005 A 
HETATM    8  C   UNL     1      43.190 -16.211   3.683  1.00  0.00     0.046 A 
HETATM    9  C   UNL     1      44.069 -18.067   4.673  1.00  0.00     0.003 A 
HETATM   10  N   UNL     1      43.111 -17.284   2.815  1.00  0.00    -0.346 N 
HETATM   11  C   UNL     1      42.798 -14.871   3.542  1.00  0.00     0.033 A 
HETATM   12  C   UNL     1      43.651 -18.421   3.388  1.00  0.00     0.046 A 
HETATM   13  C   UNL     1      43.806 -19.727   2.893  1.00  0.00     0.030 A 
HETATM   14  C   UNL     1      44.393 -20.684   3.726  1.00  0.00     0.002 A 
HETATM   15  C   UNL     1      44.814 -20.354   5.009  1.00  0.00     0.001 A 
HETATM   16  C   UNL     1      44.658 -19.053   5.493  1.00  0.00     0.014 A 
HETATM   17  C   UNL     1      42.972 -14.014   4.637  1.00  0.00     0.032 A 
BRANCH  10  18
HETATM   18  C   UNL     1      42.505 -17.237   1.493  1.00  0.00     0.125 C 
HETATM   19  C   UNL     1      40.996 -17.394   1.544  1.00  0.00     0.027 C 
ENDBRANCH  10  18
ENDBRANCH   1   5
BRANCH   2  20
HETATM   20  C   UNL     1      44.460 -12.363   8.845  1.00  0.00     0.032 A 
HETATM   21  C   UNL     1      45.307 -12.497   9.953  1.00  0.00     0.017 A 
HETATM   22  C   UNL     1      45.086 -11.735  11.105  1.00  0.00     0.008 A 
HETATM   23  C   UNL     1      44.036 -10.809  11.157  1.00  0.00    -0.057 A 
HETATM   24  C   UNL     1      43.183 -10.690  10.051  1.00  0.00     0.008 A 
HETATM   25  C   UNL     1      43.396 -11.456   8.903  1.00  0.00     0.017 A 
BRANCH  23  26
HETATM   26  C   UNL     1      43.850  -9.913  12.361  1.00  0.00     0.053 C 
BRANCH  26  27
HETATM   27  C   UNL     1      42.448  -9.931  12.992  1.00  0.00     0.091 C 
HETATM   28  C   UNL     1      41.797  -8.571  12.950  1.00  0.00     0.229 C 
HETATM   29  O   UNL     1      41.477  -7.969  11.938  1.00  0.00    -0.273 OA
HETATM   30  N   UNL     1      41.662  -8.109  14.218  1.00  0.00    -0.297 N 
HETATM   31  C   UNL     1      42.047  -9.006  15.159  1.00  0.00     0.225 C 
HETATM   32  H   UNL     1      41.321  -7.188  14.441  1.00  0.00     0.171 HD
HETATM   33  O   UNL     1      42.041  -8.822  16.364  1.00  0.00    -0.273 OA
HETATM   34  C   UNL     1      42.410 -10.294  14.478  1.00  0.00     0.117 C 
ENDBRANCH  26  27
ENDBRANCH  23  26
ENDBRANCH   2  20
TORSDOF 5
ENDMDL
MODEL 3
REMARK VINA RESULT:     -10.0      1.706      3.092
REMARK  5 active torsions:
REMARK  status: ('A' for Active; 'I' for Inactive)
REMARK    1  A    between atoms: C_2  and  N_3 
REMARK    2  A    between atoms: C_7  and  N_8 
REMARK       I    between atoms: N_8  and  C_9 
REMARK    3  A    between atoms: C_9  and  C_10 
REMARK    4  A    between atoms: C_13  and  C_14 
REMARK    5  A    between atoms: C_14  and  C_15 
ROOT
HETATM    1  N   UNL     1      43.491 -13.019   7.460  1.00  0.00    -0.323 N 
HETATM    2  C   UNL     1      44.521 -12.798   8.357  1.00  0.00     0.256 C 
HETATM    3  O   UNL     1      45.690 -13.140   8.224  1.00  0.00    -0.267 OA
HETATM    4  H   UNL     1      42.632 -12.506   7.604  1.00  0.00     0.169 HD
ENDROOT
BRANCH   1   5
HETATM    5  C   UNL     1      43.500 -13.897   6.354  1.00  0.00     0.035 A 
HETATM    6  C   UNL     1      43.860 -15.245   6.440  1.00  0.00     0.044 A 
HETATM    7  C   UNL     1      43.758 -16.085   5.308  1.00  0.00     0.005 A 
HETATM    8  C   UNL     1      43.294 -15.549   4.106  1.00  0.00     0.046 A 
HETATM    9  C   UNL     1      44.029 -17.471   5.089  1.00  0.00     0.003 A 
HETATM   10  N   UNL     1      43.256 -16.585   3.192  1.00  0.00    -0.346 N 
HETATM   11  C   UNL     1      42.957 -14.192   3.989  1.00  0.00     0.033 A 
HETATM   12  C   UNL     1      43.711 -17.760   3.760  1.00  0.00     0.046 A 
HETATM   13  C   UNL     1      43.867 -19.051   3.226  1.00  0.00     0.030 A 
HETATM   14  C   UNL     1      44.352 -20.059   4.065  1.00  0.00     0.002 A 
HETATM   15  C   UNL     1      44.673 -19.793   5.391  1.00  0.00     0.001 A 
HETATM   16  C   UNL     1      44.517 -18.507   5.914  1.00  0.00     0.014 A 
HETATM   17  C   UNL     1      43.064 -13.384   5.129  1.00  0.00     0.032 A 
BRANCH  10  18
HETATM   18  C   UNL     1      42.766 -16.466   1.827  1.00  0.00     0.125 C 
HETATM   19  C   UNL     1      41.309 -16.872   1.700  1.00  0.00     0.027 C 
ENDBRANCH  10  18
ENDBRANCH   1   5
BRANCH   2  20
HETATM   20  C   UNL     1      44.140 -12.060   9.599  1.00  0.00     0.032 A 
HETATM   21  C   UNL     1      43.609 -10.765   9.561  1.00  0.00     0.017 A 
HETATM   22  C   UNL     1      43.187 -10.142  10.740  1.00  0.00     0.008 A 
HETATM   23  C   UNL     1      43.261 -10.813  11.967  1.00  0.00    -0.057 A 
HETATM   24  C   UNL     1      43.806 -12.104  12.001  1.00  0.00     0.008 A 
HETATM   25  C   UNL     1      44.237 -12.725  10.827  1.00  0.00     0.017 A 
BRANCH  23  26
HETATM   26  C   UNL     1      42.716 -10.184  13.230  1.00  0.00     0.053 C 
BRANCH  26  27
HETATM   27  C   UNL     1      41.191  -9.998  13.275  1.00  0.00     0.091 C 
HETATM   28  C   UNL     1      40.463 -11.183  12.692  1.00  0.00     0.229 C 
HETATM   29  O   UNL     1      40.470 -12.314  13.149  1.00  0.00    -0.273 OA
HETATM   30  N   UNL     1      39.834 -10.796  11.555  1.00  0.00    -0.297 N 
HETATM   31  C   UNL     1      39.944  -9.467  11.308  1.00  0.00     0.225 C 
HETATM   32  H   UNL     1      39.344 -11.432  10.947  1.00  0.00     0.171 HD
HETATM   33  O   UNL     1      39.485  -8.883  10.341  1.00  0.00    -0.273 OA
HETATM   34  C   UNL     1      40.657  -8.820  12.458  1.00  0.00     0.117 C 
ENDBRANCH  26  27
ENDBRANCH  23  26
ENDBRANCH   2  20
TORSDOF 5
ENDMDL
MODEL 4
REMARK VINA RESULT:      -9.9      7.341     11.757
REMARK  5 active torsions:
REMARK  status: ('A' for Active; 'I' for Inactive)
REMARK    1  A    between atoms: C_2  and  N_3 
REMARK    2  A    between atoms: C_7  and  N_8 
REMARK       I    between atoms: N_8  and  C_9 
REMARK    3  A    between atoms: C_9  and  C_10 
REMARK    4  A    between atoms: C_13  and  C_14 
REMARK    5  A    between atoms: C_14  and  C_15 
ROOT
HETATM    1  N   UNL     1      41.412 -15.230   1.304  1.00  0.00    -0.323 N 
HETATM    2  C   UNL     1      40.048 -15.022   1.210  1.00  0.00     0.256 C 
HETATM    3  O   UNL     1      39.197 -15.380   2.017  1.00  0.00    -0.267 OA
HETATM    4  H   UNL     1      42.006 -14.705   0.678  1.00  0.00     0.169 HD
ENDROOT
BRANCH   1   5
HETATM    5  C   UNL     1      42.079 -16.113   2.183  1.00  0.00     0.035 A 
HETATM    6  C   UNL     1      42.359 -17.446   1.873  1.00  0.00     0.044 A 
HETATM    7  C   UNL     1      43.110 -18.244   2.766  1.00  0.00     0.005 A 
HETATM    8  C   UNL     1      43.565 -17.681   3.959  1.00  0.00     0.046 A 
HETATM    9  C   UNL     1      43.560 -19.600   2.727  1.00  0.00     0.003 A 
HETATM   10  N   UNL     1      44.296 -18.656   4.611  1.00  0.00    -0.346 N 
HETATM   11  C   UNL     1      43.270 -16.353   4.304  1.00  0.00     0.033 A 
HETATM   12  C   UNL     1      44.296 -19.836   3.890  1.00  0.00     0.046 A 
HETATM   13  C   UNL     1      44.881 -21.086   4.155  1.00  0.00     0.030 A 
HETATM   14  C   UNL     1      44.712 -22.108   3.215  1.00  0.00     0.002 A 
HETATM   15  C   UNL     1      43.985 -21.894   2.049  1.00  0.00     0.001 A 
HETATM   16  C   UNL     1      43.405 -20.648   1.795  1.00  0.00     0.014 A 
HETATM   17  C   UNL     1      42.527 -15.586   3.398  1.00  0.00     0.032 A 
BRANCH  10  18
HETATM   18  C   UNL     1      45.004 -18.459   5.867  1.00  0.00     0.125 C 
HETATM   19  C   UNL     1      44.141 -18.781   7.073  1.00  0.00     0.027 C 
ENDBRANCH  10  18
ENDBRANCH   1   5
BRANCH   2  20
HETATM   20  C   UNL     1      39.597 -14.274  -0.002  1.00  0.00     0.032 A 
HETATM   21  C   UNL     1      40.277 -14.359  -1.223  1.00  0.00     0.017 A 
HETATM   22  C   UNL     1      39.774 -13.711  -2.356  1.00  0.00     0.008 A 
HETATM   23  C   UNL     1      38.571 -12.995  -2.293  1.00  0.00    -0.057 A 
HETATM   24  C   UNL     1      37.902 -12.902  -1.064  1.00  0.00     0.008 A 
HETATM   25  C   UNL     1      38.408 -13.540   0.070  1.00  0.00     0.017 A 
BRANCH  23  26
HETATM   26  C   UNL     1      37.971 -12.374  -3.535  1.00  0.00     0.053 C 
BRANCH  26  27
HETATM   27  C   UNL     1      36.527 -12.792  -3.855  1.00  0.00     0.091 C 
HETATM   28  C   UNL     1      36.477 -14.068  -4.658  1.00  0.00     0.229 C 
HETATM   29  O   UNL     1      36.848 -15.164  -4.271  1.00  0.00    -0.273 OA
HETATM   30  N   UNL     1      35.992 -13.791  -5.893  1.00  0.00    -0.297 N 
HETATM   31  C   UNL     1      35.602 -12.500  -6.039  1.00  0.00     0.225 C 
HETATM   32  H   UNL     1      35.936 -14.471  -6.634  1.00  0.00     0.171 HD
HETATM   33  O   UNL     1      35.154 -12.002  -7.057  1.00  0.00    -0.273 OA
HETATM   34  C   UNL     1      35.741 -11.802  -4.718  1.00  0.00     0.117 C 
ENDBRANCH  26  27
ENDBRANCH  23  26
ENDBRANCH   2  20
TORSDOF 5
ENDMDL
MODEL 5
REMARK VINA RESULT:      -9.6      7.974     12.259
REMARK  5 active torsions:
REMARK  status: ('A' for Active; 'I' for Inactive)
REMARK    1  A    between atoms: C_2  and  N_3 
REMARK    2  A    between atoms: C_7  and  N_8 
REMARK       I    between atoms: N_8  and  C_9 
REMARK    3  A    between atoms: C_9  and  C_10 
REMARK    4  A    between atoms: C_13  and  C_14 
REMARK    5  A    between atoms: C_14  and  C_15 
ROOT
HETATM    1  N   UNL     1      40.218 -15.469   0.374  1.00  0.00    -0.323 N 
HETATM    2  C   UNL     1      40.817 -14.518  -0.432  1.00  0.00     0.256 C 
HETATM    3  O   UNL     1      42.008 -14.229  -0.459  1.00  0.00    -0.267 OA
HETATM    4  H   UNL     1      39.273 -15.743   0.145  1.00  0.00     0.169 HD
ENDROOT
BRANCH   1   5
HETATM    5  C   UNL     1      40.782 -16.106   1.502  1.00  0.00     0.035 A 
HETATM    6  C   UNL     1      41.608 -17.230   1.422  1.00  0.00     0.044 A 
HETATM    7  C   UNL     1      42.208 -17.758   2.588  1.00  0.00     0.005 A 
HETATM    8  C   UNL     1      41.962 -17.142   3.815  1.00  0.00     0.046 A 
HETATM    9  C   UNL     1      43.090 -18.858   2.823  1.00  0.00     0.003 A 
HETATM   10  N   UNL     1      42.697 -17.829   4.764  1.00  0.00    -0.346 N 
HETATM   11  C   UNL     1      41.111 -16.032   3.923  1.00  0.00     0.033 A 
HETATM   12  C   UNL     1      43.379 -18.885   4.189  1.00  0.00     0.046 A 
HETATM   13  C   UNL     1      44.227 -19.857   4.747  1.00  0.00     0.030 A 
HETATM   14  C   UNL     1      44.788 -20.813   3.894  1.00  0.00     0.002 A 
HETATM   15  C   UNL     1      44.516 -20.803   2.531  1.00  0.00     0.001 A 
HETATM   16  C   UNL     1      43.670 -19.834   1.985  1.00  0.00     0.014 A 
HETATM   17  C   UNL     1      40.533 -15.528   2.750  1.00  0.00     0.032 A 
BRANCH  10  18
HETATM   18  C   UNL     1      42.774 -17.468   6.171  1.00  0.00     0.125 C 
HETATM   19  C   UNL     1      43.957 -16.565   6.471  1.00  0.00     0.027 C 
ENDBRANCH  10  18
ENDBRANCH   1   5
BRANCH   2  20
HETATM   20  C   UNL     1      39.896 -13.792  -1.358  1.00  0.00     0.032 A 
HETATM   21  C   UNL     1      40.291 -13.400  -2.643  1.00  0.00     0.017 A 
HETATM   22  C   UNL     1      39.373 -12.799  -3.510  1.00  0.00     0.008 A 
HETATM   23  C   UNL     1      38.042 -12.607  -3.117  1.00  0.00    -0.057 A 
HETATM   24  C   UNL     1      37.656 -12.989  -1.825  1.00  0.00     0.008 A 
HETATM   25  C   UNL     1      38.573 -13.581  -0.954  1.00  0.00     0.017 A 
BRANCH  23  26
HETATM   26  C   UNL     1      37.020 -12.047  -4.082  1.00  0.00     0.053 C 
BRANCH  26  27
HETATM   27  C   UNL     1      35.650 -12.744  -4.077  1.00  0.00     0.091 C 
HETATM   28  C   UNL     1      35.554 -13.802  -5.147  1.00  0.00     0.229 C 
HETATM   29  O   UNL     1      36.219 -14.823  -5.195  1.00  0.00    -0.273 OA
HETATM   30  N   UNL     1      34.637 -13.414  -6.067  1.00  0.00    -0.297 N 
HETATM   31  C   UNL     1      34.002 -12.262  -5.738  1.00  0.00     0.225 C 
HETATM   32  H   UNL     1      34.452 -13.922  -6.917  1.00  0.00     0.171 HD
HETATM   33  O   UNL     1      33.155 -11.698  -6.410  1.00  0.00    -0.273 OA
HETATM   34  C   UNL     1      34.458 -11.832  -4.375  1.00  0.00     0.117 C 
ENDBRANCH  26  27
ENDBRANCH  23  26
ENDBRANCH   2  20
TORSDOF 5
ENDMDL
MODEL 6
REMARK VINA RESULT:      -9.5      2.261      3.434
REMARK  5 active torsions:
REMARK  status: ('A' for Active; 'I' for Inactive)
REMARK    1  A    between atoms: C_2  and  N_3 
REMARK    2  A    between atoms: C_7  and  N_8 
REMARK       I    between atoms: N_8  and  C_9 
REMARK    3  A    between atoms: C_9  and  C_10 
REMARK    4  A    between atoms: C_13  and  C_14 
REMARK    5  A    between atoms: C_14  and  C_15 
ROOT
HETATM    1  N   UNL     1      41.382 -12.906   6.562  1.00  0.00    -0.323 N 
HETATM    2  C   UNL     1      41.547 -11.539   6.433  1.00  0.00     0.256 C 
HETATM    3  O   UNL     1      41.570 -10.902   5.387  1.00  0.00    -0.267 OA
HETATM    4  H   UNL     1      41.178 -13.265   7.485  1.00  0.00     0.169 HD
ENDROOT
BRANCH   1   5
HETATM    5  C   UNL     1      41.475 -13.875   5.538  1.00  0.00     0.035 A 
HETATM    6  C   UNL     1      42.315 -14.990   5.604  1.00  0.00     0.044 A 
HETATM    7  C   UNL     1      42.288 -15.965   4.580  1.00  0.00     0.005 A 
HETATM    8  C   UNL     1      41.414 -15.795   3.506  1.00  0.00     0.046 A 
HETATM    9  C   UNL     1      42.996 -17.189   4.375  1.00  0.00     0.003 A 
HETATM   10  N   UNL     1      41.564 -16.899   2.687  1.00  0.00    -0.346 N 
HETATM   11  C   UNL     1      40.585 -14.668   3.404  1.00  0.00     0.033 A 
HETATM   12  C   UNL     1      42.529 -17.754   3.186  1.00  0.00     0.046 A 
HETATM   13  C   UNL     1      43.030 -18.974   2.700  1.00  0.00     0.030 A 
HETATM   14  C   UNL     1      44.019 -19.626   3.443  1.00  0.00     0.002 A 
HETATM   15  C   UNL     1      44.496 -19.083   4.631  1.00  0.00     0.001 A 
HETATM   16  C   UNL     1      43.994 -17.868   5.106  1.00  0.00     0.014 A 
HETATM   17  C   UNL     1      40.630 -13.721   4.436  1.00  0.00     0.032 A 
BRANCH  10  18
HETATM   18  C   UNL     1      40.784 -17.150   1.485  1.00  0.00     0.125 C 
HETATM   19  C   UNL     1      41.459 -16.610   0.237  1.00  0.00     0.027 C 
ENDBRANCH  10  18
ENDBRANCH   1   5
BRANCH   2  20
HETATM   20  C   UNL     1      41.701 -10.790   7.717  1.00  0.00     0.032 A 
HETATM   21  C   UNL     1      40.720  -9.907   8.185  1.00  0.00     0.017 A 
HETATM   22  C   UNL     1      40.865  -9.290   9.432  1.00  0.00     0.008 A 
HETATM   23  C   UNL     1      41.975  -9.568  10.241  1.00  0.00    -0.057 A 
HETATM   24  C   UNL     1      42.960 -10.442   9.761  1.00  0.00     0.008 A 
HETATM   25  C   UNL     1      42.823 -11.051   8.512  1.00  0.00     0.017 A 
BRANCH  23  26
HETATM   26  C   UNL     1      42.089  -8.981  11.630  1.00  0.00     0.053 C 
BRANCH  26  27
HETATM   27  C   UNL     1      42.632  -9.931  12.710  1.00  0.00     0.091 C 
HETATM   28  C   UNL     1      41.532 -10.735  13.355  1.00  0.00     0.229 C 
HETATM   29  O   UNL     1      40.835 -11.562  12.792  1.00  0.00    -0.273 OA
HETATM   30  N   UNL     1      41.416 -10.358  14.653  1.00  0.00    -0.297 N 
HETATM   31  C   UNL     1      42.356  -9.459  15.036  1.00  0.00     0.225 C 
HETATM   32  H   UNL     1      40.698 -10.702  15.270  1.00  0.00     0.171 HD
HETATM   33  O   UNL     1      42.450  -8.954  16.141  1.00  0.00    -0.273 OA
HETATM   34  C   UNL     1      43.309  -9.244  13.897  1.00  0.00     0.117 C 
ENDBRANCH  26  27
ENDBRANCH  23  26
ENDBRANCH   2  20
TORSDOF 5
ENDMDL
MODEL 7
REMARK VINA RESULT:      -9.5      1.255      1.955
REMARK  5 active torsions:
REMARK  status: ('A' for Active; 'I' for Inactive)
REMARK    1  A    between atoms: C_2  and  N_3 
REMARK    2  A    between atoms: C_7  and  N_8 
REMARK       I    between atoms: N_8  and  C_9 
REMARK    3  A    between atoms: C_9  and  C_10 
REMARK    4  A    between atoms: C_13  and  C_14 
REMARK    5  A    between atoms: C_14  and  C_15 
ROOT
HETATM    1  N   UNL     1      43.869 -14.154   7.756  1.00  0.00    -0.323 N 
HETATM    2  C   UNL     1      44.954 -13.341   8.030  1.00  0.00     0.256 C 
HETATM    3  O   UNL     1      46.005 -13.291   7.402  1.00  0.00    -0.267 OA
HETATM    4  H   UNL     1      43.001 -13.944   8.228  1.00  0.00     0.169 HD
ENDROOT
BRANCH   1   5
HETATM    5  C   UNL     1      43.837 -15.266   6.886  1.00  0.00     0.035 A 
HETATM    6  C   UNL     1      43.482 -15.182   5.537  1.00  0.00     0.044 A 
HETATM    7  C   UNL     1      43.560 -16.322   4.706  1.00  0.00     0.005 A 
HETATM    8  C   UNL     1      43.994 -17.530   5.252  1.00  0.00     0.046 A 
HETATM    9  C   UNL     1      43.288 -16.545   3.320  1.00  0.00     0.003 A 
HETATM   10  N   UNL     1      44.013 -18.453   4.223  1.00  0.00    -0.346 N 
HETATM   11  C   UNL     1      44.324 -17.646   6.611  1.00  0.00     0.033 A 
HETATM   12  C   UNL     1      43.576 -17.883   3.042  1.00  0.00     0.046 A 
HETATM   13  C   UNL     1      43.411 -18.423   1.755  1.00  0.00     0.030 A 
HETATM   14  C   UNL     1      42.949 -17.581   0.739  1.00  0.00     0.002 A 
HETATM   15  C   UNL     1      42.659 -16.245   0.993  1.00  0.00     0.001 A 
HETATM   16  C   UNL     1      42.824 -15.717   2.277  1.00  0.00     0.014 A 
HETATM   17  C   UNL     1      44.241 -16.498   7.410  1.00  0.00     0.032 A 
BRANCH  10  18
HETATM   18  C   UNL     1      44.471 -19.828   4.353  1.00  0.00     0.125 C 
HETATM   19  C   UNL     1      44.963 -20.400   3.036  1.00  0.00     0.027 C 
ENDBRANCH  10  18
ENDBRANCH   1   5
BRANCH   2  20
HETATM   20  C   UNL     1      44.796 -12.439   9.211  1.00  0.00     0.032 A 
HETATM   21  C   UNL     1      45.017 -11.059   9.126  1.00  0.00     0.017 A 
HETATM   22  C   UNL     1      44.776 -10.238  10.233  1.00  0.00     0.008 A 
HETATM   23  C   UNL     1      44.284 -10.779  11.428  1.00  0.00    -0.057 A 
HETATM   24  C   UNL     1      44.078 -12.163  11.511  1.00  0.00     0.008 A 
HETATM   25  C   UNL     1      44.327 -12.986  10.410  1.00  0.00     0.017 A 
BRANCH  23  26
HETATM   26  C   UNL     1      43.929  -9.886  12.596  1.00  0.00     0.053 C 
BRANCH  26  27
HETATM   27  C   UNL     1      42.450  -9.476  12.694  1.00  0.00     0.091 C 
HETATM   28  C   UNL     1      41.702 -10.308  13.705  1.00  0.00     0.229 C 
HETATM   29  O   UNL     1      41.913 -10.322  14.906  1.00  0.00    -0.273 OA
HETATM   30  N   UNL     1      40.786 -11.069  13.056  1.00  0.00    -0.297 N 
HETATM   31  C   UNL     1      40.723 -10.813  11.726  1.00  0.00     0.225 C 
HETATM   32  H   UNL     1      40.216 -11.763  13.513  1.00  0.00     0.171 HD
HETATM   33  O   UNL     1      39.996 -11.378  10.927  1.00  0.00    -0.273 OA
HETATM   34  C   UNL     1      41.639  -9.668  11.411  1.00  0.00     0.117 C 
ENDBRANCH  26  27
ENDBRANCH  23  26
ENDBRANCH   2  20
TORSDOF 5
ENDMDL
MODEL 8
REMARK VINA RESULT:      -9.3      7.264     10.552
REMARK  5 active torsions:
REMARK  status: ('A' for Active; 'I' for Inactive)
REMARK    1  A    between atoms: C_2  and  N_3 
REMARK    2  A    between atoms: C_7  and  N_8 
REMARK       I    between atoms: N_8  and  C_9 
REMARK    3  A    between atoms: C_9  and  C_10 
REMARK    4  A    between atoms: C_13  and  C_14 
REMARK    5  A    between atoms: C_14  and  C_15 
ROOT
HETATM    1  N   UNL     1      41.963 -15.339   1.107  1.00  0.00    -0.323 N 
HETATM    2  C   UNL     1      40.635 -15.029   0.875  1.00  0.00     0.256 C 
HETATM    3  O   UNL     1      39.686 -15.294   1.604  1.00  0.00    -0.267 OA
HETATM    4  H   UNL     1      42.654 -14.882   0.528  1.00  0.00     0.169 HD
ENDROOT
BRANCH   1   5
HETATM    5  C   UNL     1      42.471 -16.241   2.068  1.00  0.00     0.035 A 
HETATM    6  C   UNL     1      42.752 -17.582   1.796  1.00  0.00     0.044 A 
HETATM    7  C   UNL     1      43.344 -18.402   2.784  1.00  0.00     0.005 A 
HETATM    8  C   UNL     1      43.641 -17.852   4.032  1.00  0.00     0.046 A 
HETATM    9  C   UNL     1      43.753 -19.771   2.805  1.00  0.00     0.003 A 
HETATM   10  N   UNL     1      44.241 -18.849   4.778  1.00  0.00    -0.346 N 
HETATM   11  C   UNL     1      43.339 -16.516   4.336  1.00  0.00     0.033 A 
HETATM   12  C   UNL     1      44.309 -20.028   4.060  1.00  0.00     0.046 A 
HETATM   13  C   UNL     1      44.812 -21.296   4.401  1.00  0.00     0.030 A 
HETATM   14  C   UNL     1      44.747 -22.312   3.443  1.00  0.00     0.002 A 
HETATM   15  C   UNL     1      44.201 -22.077   2.186  1.00  0.00     0.001 A 
HETATM   16  C   UNL     1      43.702 -20.814   1.856  1.00  0.00     0.014 A 
HETATM   17  C   UNL     1      42.756 -15.727   3.336  1.00  0.00     0.032 A 
BRANCH  10  18
HETATM   18  C   UNL     1      44.769 -18.672   6.123  1.00  0.00     0.125 C 
HETATM   19  C   UNL     1      43.784 -19.112   7.191  1.00  0.00     0.027 C 
ENDBRANCH  10  18
ENDBRANCH   1   5
BRANCH   2  20
HETATM   20  C   UNL     1      40.362 -14.289  -0.394  1.00  0.00     0.032 A 
HETATM   21  C   UNL     1      39.177 -13.572  -0.596  1.00  0.00     0.017 A 
HETATM   22  C   UNL     1      38.997 -12.823  -1.764  1.00  0.00     0.008 A 
HETATM   23  C   UNL     1      40.008 -12.757  -2.731  1.00  0.00    -0.057 A 
HETATM   24  C   UNL     1      41.187 -13.488  -2.529  1.00  0.00     0.008 A 
HETATM   25  C   UNL     1      41.365 -14.244  -1.368  1.00  0.00     0.017 A 
BRANCH  23  26
HETATM   26  C   UNL     1      39.861 -11.872  -3.949  1.00  0.00     0.053 C 
BRANCH  26  27
HETATM   27  C   UNL     1      40.431 -10.451  -3.811  1.00  0.00     0.091 C 
HETATM   28  C   UNL     1      41.822 -10.346  -4.384  1.00  0.00     0.229 C 
HETATM   29  O   UNL     1      42.117 -10.492  -5.559  1.00  0.00    -0.273 OA
HETATM   30  N   UNL     1      42.695 -10.104  -3.375  1.00  0.00    -0.297 N 
HETATM   31  C   UNL     1      42.091  -9.930  -2.174  1.00  0.00     0.225 C 
HETATM   32  H   UNL     1      43.694 -10.069  -3.501  1.00  0.00     0.171 HD
HETATM   33  O   UNL     1      42.658  -9.722  -1.115  1.00  0.00    -0.273 OA
HETATM   34  C   UNL     1      40.604  -9.959  -2.373  1.00  0.00     0.117 C 
ENDBRANCH  26  27
ENDBRANCH  23  26
ENDBRANCH   2  20
TORSDOF 5
ENDMDL
MODEL 9
REMARK VINA RESULT:      -9.3      2.854      4.179
REMARK  5 active torsions:
REMARK  status: ('A' for Active; 'I' for Inactive)
REMARK    1  A    between atoms: C_2  and  N_3 
REMARK    2  A    between atoms: C_7  and  N_8 
REMARK       I    between atoms: N_8  and  C_9 
REMARK    3  A    between atoms: C_9  and  C_10 
REMARK    4  A    between atoms: C_13  and  C_14 
REMARK    5  A    between atoms: C_14  and  C_15 
ROOT
HETATM    1  N   UNL     1      41.043 -13.335   6.317  1.00  0.00    -0.323 N 
HETATM    2  C   UNL     1      39.920 -12.574   6.587  1.00  0.00     0.256 C 
HETATM    3  O   UNL     1      38.810 -12.705   6.083  1.00  0.00    -0.267 OA
HETATM    4  H   UNL     1      41.825 -13.250   6.950  1.00  0.00     0.169 HD
ENDROOT
BRANCH   1   5
HETATM    5  C   UNL     1      41.227 -14.226   5.235  1.00  0.00     0.035 A 
HETATM    6  C   UNL     1      42.061 -15.345   5.290  1.00  0.00     0.044 A 
HETATM    7  C   UNL     1      42.126 -16.241   4.199  1.00  0.00     0.005 A 
HETATM    8  C   UNL     1      41.347 -15.990   3.069  1.00  0.00     0.046 A 
HETATM    9  C   UNL     1      42.852 -17.450   3.965  1.00  0.00     0.003 A 
HETATM   10  N   UNL     1      41.571 -17.031   2.187  1.00  0.00    -0.346 N 
HETATM   11  C   UNL     1      40.526 -14.855   2.980  1.00  0.00     0.033 A 
HETATM   12  C   UNL     1      42.492 -17.924   2.702  1.00  0.00     0.046 A 
HETATM   13  C   UNL     1      43.036 -19.106   2.172  1.00  0.00     0.030 A 
HETATM   14  C   UNL     1      43.960 -19.814   2.947  1.00  0.00     0.002 A 
HETATM   15  C   UNL     1      44.331 -19.362   4.208  1.00  0.00     0.001 A 
HETATM   16  C   UNL     1      43.786 -18.184   4.727  1.00  0.00     0.014 A 
HETATM   17  C   UNL     1      40.480 -13.987   4.079  1.00  0.00     0.032 A 
BRANCH  10  18
HETATM   18  C   UNL     1      40.898 -17.189   0.906  1.00  0.00     0.125 C 
HETATM   19  C   UNL     1      41.438 -16.242  -0.150  1.00  0.00     0.027 C 
ENDBRANCH  10  18
ENDBRANCH   1   5
BRANCH   2  20
HETATM   20  C   UNL     1      40.107 -11.498   7.606  1.00  0.00     0.032 A 
HETATM   21  C   UNL     1      39.160 -11.249   8.608  1.00  0.00     0.017 A 
HETATM   22  C   UNL     1      39.413 -10.289   9.593  1.00  0.00     0.008 A 
HETATM   23  C   UNL     1      40.624  -9.586   9.610  1.00  0.00    -0.057 A 
HETATM   24  C   UNL     1      41.562  -9.829   8.597  1.00  0.00     0.008 A 
HETATM   25  C   UNL     1      41.308 -10.780   7.606  1.00  0.00     0.017 A 
BRANCH  23  26
HETATM   26  C   UNL     1      40.945  -8.618  10.727  1.00  0.00     0.053 C 
BRANCH  26  27
HETATM   27  C   UNL     1      41.381  -9.257  12.055  1.00  0.00     0.091 C 
HETATM   28  C   UNL     1      42.415 -10.335  11.847  1.00  0.00     0.229 C 
HETATM   29  O   UNL     1      43.541 -10.161  11.410  1.00  0.00    -0.273 OA
HETATM   30  N   UNL     1      41.877 -11.532  12.185  1.00  0.00    -0.297 N 
HETATM   31  C   UNL     1      40.625 -11.431  12.696  1.00  0.00     0.225 C 
HETATM   32  H   UNL     1      42.352 -12.411  12.060  1.00  0.00     0.171 HD
HETATM   33  O   UNL     1      39.924 -12.363  13.053  1.00  0.00    -0.273 OA
HETATM   34  C   UNL     1      40.271  -9.979  12.823  1.00  0.00     0.117 C 
ENDBRANCH  26  27
ENDBRANCH  23  26
ENDBRANCH   2  20
TORSDOF 5
ENDMDL
MODEL 10
REMARK VINA RESULT:      -9.2      4.556     11.591
REMARK  5 active torsions:
REMARK  status: ('A' for Active; 'I' for Inactive)
REMARK    1  A    between atoms: C_2  and  N_3 
REMARK    2  A    between atoms: C_7  and  N_8 
REMARK       I    between atoms: N_8  and  C_9 
REMARK    3  A    between atoms: C_9  and  C_10 
REMARK    4  A    between atoms: C_13  and  C_14 
REMARK    5  A    between atoms: C_14  and  C_15 
ROOT
HETATM    1  N   UNL     1      40.897 -14.266   5.019  1.00  0.00    -0.323 N 
HETATM    2  C   UNL     1      42.224 -14.652   5.080  1.00  0.00     0.256 C 
HETATM    3  O   UNL     1      43.143 -14.026   5.596  1.00  0.00    -0.267 OA
HETATM    4  H   UNL     1      40.221 -14.968   4.750  1.00  0.00     0.169 HD
ENDROOT
BRANCH   1   5
HETATM    5  C   UNL     1      40.371 -12.982   5.285  1.00  0.00     0.035 A 
HETATM    6  C   UNL     1      40.153 -12.488   6.574  1.00  0.00     0.044 A 
HETATM    7  C   UNL     1      39.709 -11.160   6.763  1.00  0.00     0.005 A 
HETATM    8  C   UNL     1      39.490 -10.353   5.646  1.00  0.00     0.046 A 
HETATM    9  C   UNL     1      39.417 -10.381   7.925  1.00  0.00     0.003 A 
HETATM   10  N   UNL     1      39.106  -9.111   6.117  1.00  0.00    -0.346 N 
HETATM   11  C   UNL     1      39.672 -10.838   4.342  1.00  0.00     0.033 A 
HETATM   12  C   UNL     1      39.040  -9.106   7.497  1.00  0.00     0.046 A 
HETATM   13  C   UNL     1      38.688  -8.094   8.407  1.00  0.00     0.030 A 
HETATM   14  C   UNL     1      38.725  -8.391   9.773  1.00  0.00     0.002 A 
HETATM   15  C   UNL     1      39.099  -9.653  10.221  1.00  0.00     0.001 A 
HETATM   16  C   UNL     1      39.446 -10.654   9.309  1.00  0.00     0.014 A 
HETATM   17  C   UNL     1      40.117 -12.158   4.185  1.00  0.00     0.032 A 
BRANCH  10  18
HETATM   18  C   UNL     1      38.844  -7.953   5.276  1.00  0.00     0.125 C 
HETATM   19  C   UNL     1      37.368  -7.786   4.965  1.00  0.00     0.027 C 
ENDBRANCH  10  18
ENDBRANCH   1   5
BRANCH   2  20
HETATM   20  C   UNL     1      42.536 -15.972   4.455  1.00  0.00     0.032 A 
HETATM   21  C   UNL     1      42.002 -17.171   4.944  1.00  0.00     0.017 A 
HETATM   22  C   UNL     1      42.250 -18.376   4.279  1.00  0.00     0.008 A 
HETATM   23  C   UNL     1      43.010 -18.398   3.102  1.00  0.00    -0.057 A 
HETATM   24  C   UNL     1      43.553 -17.196   2.625  1.00  0.00     0.008 A 
HETATM   25  C   UNL     1      43.314 -15.993   3.293  1.00  0.00     0.017 A 
BRANCH  23  26
HETATM   26  C   UNL     1      43.201 -19.681   2.324  1.00  0.00     0.053 C 
BRANCH  26  27
HETATM   27  C   UNL     1      44.521 -20.424   2.583  1.00  0.00     0.091 C 
HETATM   28  C   UNL     1      44.407 -21.896   2.271  1.00  0.00     0.229 C 
HETATM   29  O   UNL     1      44.204 -22.372   1.167  1.00  0.00    -0.273 OA
HETATM   30  N   UNL     1      44.527 -22.599   3.424  1.00  0.00    -0.297 N 
HETATM   31  C   UNL     1      44.806 -21.822   4.500  1.00  0.00     0.225 C 
HETATM   32  H   UNL     1      44.410 -23.598   3.481  1.00  0.00     0.171 HD
HETATM   33  O   UNL     1      44.940 -22.214   5.646  1.00  0.00    -0.273 OA
HETATM   34  C   UNL     1      45.000 -20.408   4.036  1.00  0.00     0.117 C 
ENDBRANCH  26  27
ENDBRANCH  23  26
ENDBRANCH   2  20
TORSDOF 5
ENDMDL
