MODEL 1
REMARK VINA RESULT:      -9.4      0.000      0.000
REMARK  8 active torsions:
REMARK  status: ('A' for Active; 'I' for Inactive)
REMARK    1  A    between atoms: O_2  and  C_3 
REMARK    2  A    between atoms: C_4  and  N_5 
REMARK       I    between atoms: N_5  and  C_6 
REMARK       I    between atoms: C_6  and  N_7 
REMARK    3  A    between atoms: N_7  and  C_8 
REMARK    4  A    between atoms: C_11  and  C_12 
REMARK    5  A    between atoms: C_12  and  C_13 
REMARK       I    between atoms: C_13  and  N_14 
REMARK    6  A    between atoms: N_14  and  C_15 
REMARK    7  A    between atoms: C_16  and  O_17 
REMARK    8  A    between atoms: O_17  and  C_18 
ROOT
HETATM    1  C   UNL     1      40.507 -11.624   6.566  1.00  0.00     0.174 C 
HETATM    2  S   UNL     1      39.249 -12.610   5.975  1.00  0.00    -0.062 SA
HETATM    3  C   UNL     1      40.408 -13.520   5.102  1.00  0.00     0.081 C 
HETATM    4  C   UNL     1      41.672 -12.990   5.298  1.00  0.00     0.052 C 
HETATM    5  N   UNL     1      41.728 -11.950   6.221  1.00  0.00    -0.228 NA
ENDROOT
BRANCH   4   6
HETATM    6  C   UNL     1      42.918 -13.397   4.579  1.00  0.00     0.163 C 
BRANCH   6   7
HETATM    7  C   UNL     1      43.689 -14.405   5.427  1.00  0.00     0.227 C 
HETATM    8  N   UNL     1      43.271 -15.712   5.254  1.00  0.00    -0.324 N 
HETATM    9  H   UNL     1      42.688 -15.932   4.453  1.00  0.00     0.169 HD
HETATM   10  O   UNL     1      44.589 -14.041   6.182  1.00  0.00    -0.273 OA
BRANCH   8  11
HETATM   11  C   UNL     1      43.574 -16.822   6.078  1.00  0.00     0.069 A 
HETATM   12  C   UNL     1      44.073 -17.983   5.463  1.00  0.00     0.102 A 
HETATM   13  C   UNL     1      44.284 -19.154   6.203  1.00  0.00     0.039 A 
HETATM   14  C   UNL     1      44.046 -19.157   7.575  1.00  0.00     0.003 A 
HETATM   15  C   UNL     1      43.587 -17.999   8.201  1.00  0.00     0.002 A 
HETATM   16  C   UNL     1      43.349 -16.838   7.456  1.00  0.00     0.032 A 
BRANCH  12  17
HETATM   17  O   UNL     1      44.304 -17.953   4.101  1.00  0.00    -0.309 OA
BRANCH  17  18
HETATM   18  C   UNL     1      44.101 -19.122   3.399  1.00  0.00     0.076 A 
HETATM   19  C   UNL     1      43.038 -19.125   2.494  1.00  0.00     0.037 A 
HETATM   20  C   UNL     1      42.770 -20.265   1.735  1.00  0.00     0.003 A 
HETATM   21  C   UNL     1      43.572 -21.398   1.869  1.00  0.00     0.000 A 
HETATM   22  C   UNL     1      44.651 -21.388   2.755  1.00  0.00     0.003 A 
HETATM   23  C   UNL     1      44.925 -20.247   3.511  1.00  0.00     0.037 A 
ENDBRANCH  17  18
ENDBRANCH  12  17
ENDBRANCH   8  11
ENDBRANCH   6   7
ENDBRANCH   4   6
BRANCH   1  24
HETATM   24  N   UNL     1      40.080 -10.564   7.307  1.00  0.00    -0.287 N 
HETATM   25  C   UNL     1      40.604 -10.138   8.491  1.00  0.00     0.326 C 
HETATM   26  N   UNL     1      41.352 -11.035   9.199  1.00  0.00    -0.306 N 
HETATM   27  O   UNL     1      40.304  -9.006   8.872  1.00  0.00    -0.247 OA
HETATM   28  H   UNL     1      41.290 -12.006   8.908  1.00  0.00     0.171 HD
HETATM   29  H   UNL     1      39.426  -9.931   6.874  1.00  0.00     0.172 HD
BRANCH  26  30
HETATM   30  C   UNL     1      41.973 -10.813  10.446  1.00  0.00     0.069 A 
HETATM   31  C   UNL     1      43.353 -10.552  10.463  1.00  0.00     0.095 A 
HETATM   32  C   UNL     1      44.009 -10.286  11.669  1.00  0.00     0.039 A 
HETATM   33  C   UNL     1      43.295 -10.305  12.867  1.00  0.00     0.003 A 
HETATM   34  C   UNL     1      41.928 -10.579  12.859  1.00  0.00     0.002 A 
HETATM   35  C   UNL     1      41.269 -10.834  11.653  1.00  0.00     0.032 A 
BRANCH  31  36
HETATM   36  O   UNL     1      44.025 -10.568   9.263  1.00  0.00    -0.354 OA
HETATM   37  C   UNL     1      44.804 -11.755   9.099  1.00  0.00     0.210 C 
ENDBRANCH  31  36
ENDBRANCH  26  30
ENDBRANCH   1  24
TORSDOF 8
ENDMDL
MODEL 2
REMARK VINA RESULT:      -9.4      3.843      6.754
REMARK  8 active torsions:
REMARK  status: ('A' for Active; 'I' for Inactive)
REMARK    1  A    between atoms: O_2  and  C_3 
REMARK    2  A    between atoms: C_4  and  N_5 
REMARK       I    between atoms: N_5  and  C_6 
REMARK       I    between atoms: C_6  and  N_7 
REMARK    3  A    between atoms: N_7  and  C_8 
REMARK    4  A    between atoms: C_11  and  C_12 
REMARK    5  A    between atoms: C_12  and  C_13 
REMARK       I    between atoms: C_13  and  N_14 
REMARK    6  A    between atoms: N_14  and  C_15 
REMARK    7  A    between atoms: C_16  and  O_17 
REMARK    8  A    between atoms: O_17  and  C_18 
ROOT
HETATM    1  C   UNL     1      39.859 -13.907   5.294  1.00  0.00     0.174 C 
HETATM    2  S   UNL     1      39.713 -12.637   6.420  1.00  0.00    -0.062 SA
HETATM    3  C   UNL     1      40.245 -11.542   5.214  1.00  0.00     0.081 C 
HETATM    4  C   UNL     1      40.525 -12.226   4.043  1.00  0.00     0.052 C 
HETATM    5  N   UNL     1      40.209 -13.581   4.074  1.00  0.00    -0.228 NA
ENDROOT
BRANCH   4   6
HETATM    6  C   UNL     1      41.168 -11.653   2.822  1.00  0.00     0.163 C 
BRANCH   6   7
HETATM    7  C   UNL     1      40.583 -12.319   1.579  1.00  0.00     0.227 C 
HETATM    8  N   UNL     1      41.441 -13.219   0.974  1.00  0.00    -0.324 N 
HETATM    9  H   UNL     1      42.252 -13.540   1.493  1.00  0.00     0.169 HD
HETATM   10  O   UNL     1      39.449 -12.045   1.189  1.00  0.00    -0.273 OA
BRANCH   8  11
HETATM   11  C   UNL     1      41.319 -13.776  -0.321  1.00  0.00     0.069 A 
HETATM   12  C   UNL     1      41.073 -15.156  -0.426  1.00  0.00     0.102 A 
HETATM   13  C   UNL     1      41.057 -15.791  -1.674  1.00  0.00     0.039 A 
HETATM   14  C   UNL     1      41.236 -15.041  -2.834  1.00  0.00     0.003 A 
HETATM   15  C   UNL     1      41.443 -13.665  -2.744  1.00  0.00     0.002 A 
HETATM   16  C   UNL     1      41.489 -13.036  -1.494  1.00  0.00     0.032 A 
BRANCH  12  17
HETATM   17  O   UNL     1      40.894 -15.877   0.739  1.00  0.00    -0.309 OA
BRANCH  17  18
HETATM   18  C   UNL     1      41.837 -16.838   1.040  1.00  0.00     0.076 A 
HETATM   19  C   UNL     1      43.158 -16.400   1.140  1.00  0.00     0.037 A 
HETATM   20  C   UNL     1      44.172 -17.307   1.451  1.00  0.00     0.003 A 
HETATM   21  C   UNL     1      43.865 -18.649   1.675  1.00  0.00     0.000 A 
HETATM   22  C   UNL     1      42.541 -19.083   1.600  1.00  0.00     0.003 A 
HETATM   23  C   UNL     1      41.524 -18.178   1.294  1.00  0.00     0.037 A 
ENDBRANCH  17  18
ENDBRANCH  12  17
ENDBRANCH   8  11
ENDBRANCH   6   7
ENDBRANCH   4   6
BRANCH   1  24
HETATM   24  N   UNL     1      39.631 -15.143   5.819  1.00  0.00    -0.287 N 
HETATM   25  C   UNL     1      40.571 -16.080   6.127  1.00  0.00     0.326 C 
HETATM   26  N   UNL     1      41.792 -15.957   5.526  1.00  0.00    -0.306 N 
HETATM   27  O   UNL     1      40.232 -17.008   6.861  1.00  0.00    -0.247 OA
HETATM   28  H   UNL     1      41.847 -15.315   4.740  1.00  0.00     0.171 HD
HETATM   29  H   UNL     1      38.705 -15.332   6.169  1.00  0.00     0.172 HD
BRANCH  26  30
HETATM   30  C   UNL     1      42.898 -16.817   5.688  1.00  0.00     0.069 A 
HETATM   31  C   UNL     1      43.919 -16.426   6.571  1.00  0.00     0.095 A 
HETATM   32  C   UNL     1      45.018 -17.260   6.797  1.00  0.00     0.039 A 
HETATM   33  C   UNL     1      45.117 -18.477   6.123  1.00  0.00     0.003 A 
HETATM   34  C   UNL     1      44.117 -18.863   5.232  1.00  0.00     0.002 A 
HETATM   35  C   UNL     1      43.011 -18.036   5.013  1.00  0.00     0.032 A 
BRANCH  31  36
HETATM   36  O   UNL     1      43.795 -15.207   7.196  1.00  0.00    -0.354 OA
HETATM   37  C   UNL     1      44.744 -14.256   6.711  1.00  0.00     0.210 C 
ENDBRANCH  31  36
ENDBRANCH  26  30
ENDBRANCH   1  24
TORSDOF 8
ENDMDL
MODEL 3
REMARK VINA RESULT:      -9.2      5.668      9.058
REMARK  8 active torsions:
REMARK  status: ('A' for Active; 'I' for Inactive)
REMARK    1  A    between atoms: O_2  and  C_3 
REMARK    2  A    between atoms: C_4  and  N_5 
REMARK       I    between atoms: N_5  and  C_6 
REMARK       I    between atoms: C_6  and  N_7 
REMARK    3  A    between atoms: N_7  and  C_8 
REMARK    4  A    between atoms: C_11  and  C_12 
REMARK    5  A    between atoms: C_12  and  C_13 
REMARK       I    between atoms: C_13  and  N_14 
REMARK    6  A    between atoms: N_14  and  C_15 
REMARK    7  A    between atoms: C_16  and  O_17 
REMARK    8  A    between atoms: O_17  and  C_18 
ROOT
HETATM    1  C   UNL     1      41.502 -14.894  -0.130  1.00  0.00     0.174 C 
HETATM    2  S   UNL     1      41.903 -13.267   0.175  1.00  0.00    -0.062 SA
HETATM    3  C   UNL     1      41.482 -13.499   1.819  1.00  0.00     0.081 C 
HETATM    4  C   UNL     1      41.036 -14.795   2.016  1.00  0.00     0.052 C 
HETATM    5  N   UNL     1      41.141 -15.619   0.899  1.00  0.00    -0.228 NA
ENDROOT
BRANCH   4   6
HETATM    6  C   UNL     1      40.424 -15.335   3.267  1.00  0.00     0.163 C 
BRANCH   6   7
HETATM    7  C   UNL     1      41.493 -15.441   4.352  1.00  0.00     0.227 C 
HETATM    8  N   UNL     1      41.990 -16.721   4.520  1.00  0.00    -0.324 N 
HETATM    9  H   UNL     1      41.805 -17.411   3.800  1.00  0.00     0.169 HD
HETATM   10  O   UNL     1      41.844 -14.452   4.993  1.00  0.00    -0.273 OA
BRANCH   8  11
HETATM   11  C   UNL     1      42.760 -17.201   5.605  1.00  0.00     0.069 A 
HETATM   12  C   UNL     1      43.939 -17.910   5.315  1.00  0.00     0.102 A 
HETATM   13  C   UNL     1      44.686 -18.512   6.336  1.00  0.00     0.039 A 
HETATM   14  C   UNL     1      44.287 -18.366   7.663  1.00  0.00     0.003 A 
HETATM   15  C   UNL     1      43.141 -17.633   7.964  1.00  0.00     0.002 A 
HETATM   16  C   UNL     1      42.379 -17.056   6.941  1.00  0.00     0.032 A 
BRANCH  12  17
HETATM   17  O   UNL     1      44.314 -18.038   3.991  1.00  0.00    -0.309 OA
BRANCH  17  18
HETATM   18  C   UNL     1      44.166 -19.278   3.408  1.00  0.00     0.076 A 
HETATM   19  C   UNL     1      43.244 -19.367   2.365  1.00  0.00     0.037 A 
HETATM   20  C   UNL     1      43.041 -20.585   1.713  1.00  0.00     0.003 A 
HETATM   21  C   UNL     1      43.769 -21.711   2.095  1.00  0.00     0.000 A 
HETATM   22  C   UNL     1      44.710 -21.618   3.121  1.00  0.00     0.003 A 
HETATM   23  C   UNL     1      44.919 -20.401   3.771  1.00  0.00     0.037 A 
ENDBRANCH  17  18
ENDBRANCH  12  17
ENDBRANCH   8  11
ENDBRANCH   6   7
ENDBRANCH   4   6
BRANCH   1  24
HETATM   24  N   UNL     1      41.565 -15.243  -1.445  1.00  0.00    -0.287 N 
HETATM   25  C   UNL     1      40.666 -14.915  -2.416  1.00  0.00     0.326 C 
HETATM   26  N   UNL     1      39.416 -14.544  -2.008  1.00  0.00    -0.306 N 
HETATM   27  O   UNL     1      41.019 -15.049  -3.588  1.00  0.00    -0.247 OA
HETATM   28  H   UNL     1      39.180 -14.742  -1.040  1.00  0.00     0.171 HD
HETATM   29  H   UNL     1      42.430 -15.639  -1.777  1.00  0.00     0.172 HD
BRANCH  26  30
HETATM   30  C   UNL     1      38.335 -14.181  -2.836  1.00  0.00     0.069 A 
HETATM   31  C   UNL     1      38.019 -12.817  -2.956  1.00  0.00     0.095 A 
HETATM   32  C   UNL     1      36.981 -12.401  -3.795  1.00  0.00     0.039 A 
HETATM   33  C   UNL     1      36.236 -13.346  -4.500  1.00  0.00     0.003 A 
HETATM   34  C   UNL     1      36.533 -14.702  -4.373  1.00  0.00     0.002 A 
HETATM   35  C   UNL     1      37.577 -15.119  -3.543  1.00  0.00     0.032 A 
BRANCH  31  36
HETATM   36  O   UNL     1      38.762 -11.920  -2.224  1.00  0.00    -0.354 OA
HETATM   37  C   UNL     1      39.603 -11.116  -3.054  1.00  0.00     0.210 C 
ENDBRANCH  31  36
ENDBRANCH  26  30
ENDBRANCH   1  24
TORSDOF 8
ENDMDL
MODEL 4
REMARK VINA RESULT:      -9.1      1.878      3.687
REMARK  8 active torsions:
REMARK  status: ('A' for Active; 'I' for Inactive)
REMARK    1  A    between atoms: O_2  and  C_3 
REMARK    2  A    between atoms: C_4  and  N_5 
REMARK       I    between atoms: N_5  and  C_6 
REMARK       I    between atoms: C_6  and  N_7 
REMARK    3  A    between atoms: N_7  and  C_8 
REMARK    4  A    between atoms: C_11  and  C_12 
REMARK    5  A    between atoms: C_12  and  C_13 
REMARK       I    between atoms: C_13  and  N_14 
REMARK    6  A    between atoms: N_14  and  C_15 
REMARK    7  A    between atoms: C_16  and  O_17 
REMARK    8  A    between atoms: O_17  and  C_18 
ROOT
HETATM    1  C   UNL     1      40.006 -11.091   6.196  1.00  0.00     0.174 C 
HETATM    2  S   UNL     1      39.536 -10.665   4.614  1.00  0.00    -0.062 SA
HETATM    3  C   UNL     1      39.400 -12.330   4.235  1.00  0.00     0.081 C 
HETATM    4  C   UNL     1      39.751 -13.097   5.333  1.00  0.00     0.052 C 
HETATM    5  N   UNL     1      40.010 -12.367   6.490  1.00  0.00    -0.228 NA
ENDROOT
BRANCH   4   6
HETATM    6  C   UNL     1      39.921 -14.581   5.352  1.00  0.00     0.163 C 
BRANCH   6   7
HETATM    7  C   UNL     1      41.150 -14.963   4.531  1.00  0.00     0.227 C 
HETATM    8  N   UNL     1      40.954 -16.061   3.713  1.00  0.00    -0.324 N 
HETATM    9  H   UNL     1      40.004 -16.373   3.541  1.00  0.00     0.169 HD
HETATM   10  O   UNL     1      42.197 -14.323   4.623  1.00  0.00    -0.273 OA
BRANCH   8  11
HETATM   11  C   UNL     1      41.947 -16.826   3.058  1.00  0.00     0.069 A 
HETATM   12  C   UNL     1      42.391 -18.005   3.680  1.00  0.00     0.102 A 
HETATM   13  C   UNL     1      43.452 -18.746   3.145  1.00  0.00     0.039 A 
HETATM   14  C   UNL     1      44.045 -18.341   1.951  1.00  0.00     0.003 A 
HETATM   15  C   UNL     1      43.587 -17.194   1.305  1.00  0.00     0.002 A 
HETATM   16  C   UNL     1      42.547 -16.437   1.857  1.00  0.00     0.032 A 
BRANCH  12  17
HETATM   17  O   UNL     1      41.784 -18.387   4.861  1.00  0.00    -0.309 OA
BRANCH  17  18
HETATM   18  C   UNL     1      42.531 -18.294   6.016  1.00  0.00     0.076 A 
HETATM   19  C   UNL     1      43.364 -19.376   6.304  1.00  0.00     0.037 A 
HETATM   20  C   UNL     1      44.163 -19.358   7.449  1.00  0.00     0.003 A 
HETATM   21  C   UNL     1      44.139 -18.254   8.299  1.00  0.00     0.000 A 
HETATM   22  C   UNL     1      43.325 -17.160   8.001  1.00  0.00     0.003 A 
HETATM   23  C   UNL     1      42.530 -17.173   6.853  1.00  0.00     0.037 A 
ENDBRANCH  17  18
ENDBRANCH  12  17
ENDBRANCH   8  11
ENDBRANCH   6   7
ENDBRANCH   4   6
BRANCH   1  24
HETATM   24  N   UNL     1      40.371 -10.031   6.970  1.00  0.00    -0.287 N 
HETATM   25  C   UNL     1      41.484  -9.943   7.752  1.00  0.00     0.326 C 
HETATM   26  N   UNL     1      42.088 -11.115   8.109  1.00  0.00    -0.306 N 
HETATM   27  O   UNL     1      41.817  -8.825   8.144  1.00  0.00    -0.247 OA
HETATM   28  H   UNL     1      41.555 -11.966   7.950  1.00  0.00     0.171 HD
HETATM   29  H   UNL     1      39.871  -9.166   6.835  1.00  0.00     0.172 HD
BRANCH  26  30
HETATM   30  C   UNL     1      43.233 -11.258   8.919  1.00  0.00     0.069 A 
HETATM   31  C   UNL     1      44.215 -12.183   8.524  1.00  0.00     0.095 A 
HETATM   32  C   UNL     1      45.387 -12.335   9.271  1.00  0.00     0.039 A 
HETATM   33  C   UNL     1      45.574 -11.581  10.430  1.00  0.00     0.003 A 
HETATM   34  C   UNL     1      44.598 -10.674  10.837  1.00  0.00     0.002 A 
HETATM   35  C   UNL     1      43.430 -10.513  10.085  1.00  0.00     0.032 A 
BRANCH  31  36
HETATM   36  O   UNL     1      43.979 -12.924   7.390  1.00  0.00    -0.354 OA
HETATM   37  C   UNL     1      44.994 -13.905   7.168  1.00  0.00     0.210 C 
ENDBRANCH  31  36
ENDBRANCH  26  30
ENDBRANCH   1  24
TORSDOF 8
ENDMDL
MODEL 5
REMARK VINA RESULT:      -9.1      5.287      9.106
REMARK  8 active torsions:
REMARK  status: ('A' for Active; 'I' for Inactive)
REMARK    1  A    between atoms: O_2  and  C_3 
REMARK    2  A    between atoms: C_4  and  N_5 
REMARK       I    between atoms: N_5  and  C_6 
REMARK       I    between atoms: C_6  and  N_7 
REMARK    3  A    between atoms: N_7  and  C_8 
REMARK    4  A    between atoms: C_11  and  C_12 
REMARK    5  A    between atoms: C_12  and  C_13 
REMARK       I    between atoms: C_13  and  N_14 
REMARK    6  A    between atoms: N_14  and  C_15 
REMARK    7  A    between atoms: C_16  and  O_17 
REMARK    8  A    between atoms: O_17  and  C_18 
ROOT
HETATM    1  C   UNL     1      40.890 -12.406   3.497  1.00  0.00     0.174 C 
HETATM    2  S   UNL     1      40.097 -11.628   4.788  1.00  0.00    -0.062 SA
HETATM    3  C   UNL     1      38.675 -11.554   3.836  1.00  0.00     0.081 C 
HETATM    4  C   UNL     1      38.912 -12.103   2.587  1.00  0.00     0.052 C 
HETATM    5  N   UNL     1      40.171 -12.677   2.436  1.00  0.00    -0.228 NA
ENDROOT
BRANCH   4   6
HETATM    6  C   UNL     1      37.978 -12.074   1.421  1.00  0.00     0.163 C 
BRANCH   6   7
HETATM    7  C   UNL     1      38.154 -13.346   0.596  1.00  0.00     0.227 C 
HETATM    8  N   UNL     1      38.886 -13.161  -0.562  1.00  0.00    -0.324 N 
HETATM    9  H   UNL     1      39.427 -12.309  -0.662  1.00  0.00     0.169 HD
HETATM   10  O   UNL     1      37.669 -14.414   0.968  1.00  0.00    -0.273 OA
BRANCH   8  11
HETATM   11  C   UNL     1      38.984 -14.048  -1.661  1.00  0.00     0.069 A 
HETATM   12  C   UNL     1      40.263 -14.496  -2.034  1.00  0.00     0.102 A 
HETATM   13  C   UNL     1      40.444 -15.281  -3.180  1.00  0.00     0.039 A 
HETATM   14  C   UNL     1      39.338 -15.667  -3.935  1.00  0.00     0.003 A 
HETATM   15  C   UNL     1      38.062 -15.260  -3.552  1.00  0.00     0.002 A 
HETATM   16  C   UNL     1      37.885 -14.451  -2.423  1.00  0.00     0.032 A 
BRANCH  12  17
HETATM   17  O   UNL     1      41.342 -14.102  -1.267  1.00  0.00    -0.309 OA
BRANCH  17  18
HETATM   18  C   UNL     1      41.906 -12.876  -1.550  1.00  0.00     0.076 A 
HETATM   19  C   UNL     1      42.318 -12.116  -0.455  1.00  0.00     0.037 A 
HETATM   20  C   UNL     1      42.908 -10.866  -0.653  1.00  0.00     0.003 A 
HETATM   21  C   UNL     1      43.098 -10.382  -1.947  1.00  0.00     0.000 A 
HETATM   22  C   UNL     1      42.709 -11.151  -3.045  1.00  0.00     0.003 A 
HETATM   23  C   UNL     1      42.124 -12.403  -2.849  1.00  0.00     0.037 A 
ENDBRANCH  17  18
ENDBRANCH  12  17
ENDBRANCH   8  11
ENDBRANCH   6   7
ENDBRANCH   4   6
BRANCH   1  24
HETATM   24  N   UNL     1      42.218 -12.621   3.710  1.00  0.00    -0.287 N 
HETATM   25  C   UNL     1      42.933 -13.721   3.340  1.00  0.00     0.326 C 
HETATM   26  N   UNL     1      42.228 -14.864   3.087  1.00  0.00    -0.306 N 
HETATM   27  O   UNL     1      44.160 -13.629   3.336  1.00  0.00    -0.247 OA
HETATM   28  H   UNL     1      41.259 -14.875   3.394  1.00  0.00     0.171 HD
HETATM   29  H   UNL     1      42.769 -11.834   4.019  1.00  0.00     0.172 HD
BRANCH  26  30
HETATM   30  C   UNL     1      42.760 -16.113   2.708  1.00  0.00     0.069 A 
HETATM   31  C   UNL     1      42.917 -17.096   3.700  1.00  0.00     0.095 A 
HETATM   32  C   UNL     1      43.404 -18.364   3.370  1.00  0.00     0.039 A 
HETATM   33  C   UNL     1      43.761 -18.650   2.052  1.00  0.00     0.003 A 
HETATM   34  C   UNL     1      43.624 -17.675   1.066  1.00  0.00     0.002 A 
HETATM   35  C   UNL     1      43.127 -16.410   1.393  1.00  0.00     0.032 A 
BRANCH  31  36
HETATM   36  O   UNL     1      42.578 -16.765   4.991  1.00  0.00    -0.354 OA
HETATM   37  C   UNL     1      43.724 -16.657   5.838  1.00  0.00     0.210 C 
ENDBRANCH  31  36
ENDBRANCH  26  30
ENDBRANCH   1  24
TORSDOF 8
ENDMDL
MODEL 6
REMARK VINA RESULT:      -9.1      4.234      7.016
REMARK  8 active torsions:
REMARK  status: ('A' for Active; 'I' for Inactive)
REMARK    1  A    between atoms: O_2  and  C_3 
REMARK    2  A    between atoms: C_4  and  N_5 
REMARK       I    between atoms: N_5  and  C_6 
REMARK       I    between atoms: C_6  and  N_7 
REMARK    3  A    between atoms: N_7  and  C_8 
REMARK    4  A    between atoms: C_11  and  C_12 
REMARK    5  A    between atoms: C_12  and  C_13 
REMARK       I    between atoms: C_13  and  N_14 
REMARK    6  A    between atoms: N_14  and  C_15 
REMARK    7  A    between atoms: C_16  and  O_17 
REMARK    8  A    between atoms: O_17  and  C_18 
ROOT
HETATM    1  C   UNL     1      41.007 -12.026   3.257  1.00  0.00     0.174 C 
HETATM    2  S   UNL     1      40.489 -10.764   4.277  1.00  0.00    -0.062 SA
HETATM    3  C   UNL     1      38.930 -10.872   3.575  1.00  0.00     0.081 C 
HETATM    4  C   UNL     1      38.921 -11.844   2.589  1.00  0.00     0.052 C 
HETATM    5  N   UNL     1      40.104 -12.569   2.479  1.00  0.00    -0.228 NA
ENDROOT
BRANCH   4   6
HETATM    6  C   UNL     1      37.803 -12.122   1.637  1.00  0.00     0.163 C 
BRANCH   6   7
HETATM    7  C   UNL     1      38.110 -13.392   0.848  1.00  0.00     0.227 C 
HETATM    8  N   UNL     1      39.174 -13.261  -0.026  1.00  0.00    -0.324 N 
HETATM    9  H   UNL     1      39.793 -12.465   0.081  1.00  0.00     0.169 HD
HETATM   10  O   UNL     1      37.442 -14.413   1.008  1.00  0.00    -0.273 OA
BRANCH   8  11
HETATM   11  C   UNL     1      39.525 -14.136  -1.081  1.00  0.00     0.069 A 
HETATM   12  C   UNL     1      40.658 -14.951  -0.914  1.00  0.00     0.102 A 
HETATM   13  C   UNL     1      41.127 -15.753  -1.962  1.00  0.00     0.039 A 
HETATM   14  C   UNL     1      40.436 -15.786  -3.171  1.00  0.00     0.003 A 
HETATM   15  C   UNL     1      39.289 -15.011  -3.334  1.00  0.00     0.002 A 
HETATM   16  C   UNL     1      38.837 -14.187  -2.296  1.00  0.00     0.032 A 
BRANCH  12  17
HETATM   17  O   UNL     1      41.324 -14.902   0.296  1.00  0.00    -0.309 OA
BRANCH  17  18
HETATM   18  C   UNL     1      41.830 -16.086   0.788  1.00  0.00     0.076 A 
HETATM   19  C   UNL     1      43.192 -16.099   1.091  1.00  0.00     0.037 A 
HETATM   20  C   UNL     1      43.782 -17.256   1.604  1.00  0.00     0.003 A 
HETATM   21  C   UNL     1      43.009 -18.395   1.826  1.00  0.00     0.000 A 
HETATM   22  C   UNL     1      41.642 -18.375   1.548  1.00  0.00     0.003 A 
HETATM   23  C   UNL     1      41.048 -17.219   1.040  1.00  0.00     0.037 A 
ENDBRANCH  17  18
ENDBRANCH  12  17
ENDBRANCH   8  11
ENDBRANCH   6   7
ENDBRANCH   4   6
BRANCH   1  24
HETATM   24  N   UNL     1      42.340 -12.297   3.343  1.00  0.00    -0.287 N 
HETATM   25  C   UNL     1      42.907 -13.431   3.842  1.00  0.00     0.326 C 
HETATM   26  N   UNL     1      42.138 -14.197   4.672  1.00  0.00    -0.306 N 
HETATM   27  O   UNL     1      44.090 -13.641   3.574  1.00  0.00    -0.247 OA
HETATM   28  H   UNL     1      41.288 -13.768   5.025  1.00  0.00     0.171 HD
HETATM   29  H   UNL     1      42.968 -11.684   2.846  1.00  0.00     0.172 HD
BRANCH  26  30
HETATM   30  C   UNL     1      42.526 -15.395   5.308  1.00  0.00     0.069 A 
HETATM   31  C   UNL     1      43.344 -15.307   6.447  1.00  0.00     0.095 A 
HETATM   32  C   UNL     1      43.724 -16.462   7.137  1.00  0.00     0.039 A 
HETATM   33  C   UNL     1      43.309 -17.713   6.680  1.00  0.00     0.003 A 
HETATM   34  C   UNL     1      42.511 -17.808   5.541  1.00  0.00     0.002 A 
HETATM   35  C   UNL     1      42.122 -16.654   4.856  1.00  0.00     0.032 A 
BRANCH  31  36
HETATM   36  O   UNL     1      43.751 -14.056   6.849  1.00  0.00    -0.354 OA
HETATM   37  C   UNL     1      45.173 -13.961   6.951  1.00  0.00     0.210 C 
ENDBRANCH  31  36
ENDBRANCH  26  30
ENDBRANCH   1  24
TORSDOF 8
ENDMDL
MODEL 7
REMARK VINA RESULT:      -9.0      1.389      3.234
REMARK  8 active torsions:
REMARK  status: ('A' for Active; 'I' for Inactive)
REMARK    1  A    between atoms: O_2  and  C_3 
REMARK    2  A    between atoms: C_4  and  N_5 
REMARK       I    between atoms: N_5  and  C_6 
REMARK       I    between atoms: C_6  and  N_7 
REMARK    3  A    between atoms: N_7  and  C_8 
REMARK    4  A    between atoms: C_11  and  C_12 
REMARK    5  A    between atoms: C_12  and  C_13 
REMARK       I    between atoms: C_13  and  N_14 
REMARK    6  A    between atoms: N_14  and  C_15 
REMARK    7  A    between atoms: C_16  and  O_17 
REMARK    8  A    between atoms: O_17  and  C_18 
ROOT
HETATM    1  C   UNL     1      40.394 -11.599   6.595  1.00  0.00     0.174 C 
HETATM    2  S   UNL     1      39.269 -12.845   6.302  1.00  0.00    -0.062 SA
HETATM    3  C   UNL     1      40.385 -13.561   5.216  1.00  0.00     0.081 C 
HETATM    4  C   UNL     1      41.528 -12.783   5.130  1.00  0.00     0.052 C 
HETATM    5  N   UNL     1      41.558 -11.700   6.004  1.00  0.00    -0.228 NA
ENDROOT
BRANCH   4   6
HETATM    6  C   UNL     1      42.656 -12.979   4.170  1.00  0.00     0.163 C 
BRANCH   6   7
HETATM    7  C   UNL     1      42.370 -14.193   3.290  1.00  0.00     0.227 C 
HETATM    8  N   UNL     1      42.979 -15.354   3.728  1.00  0.00    -0.324 N 
HETATM    9  H   UNL     1      43.351 -15.379   4.672  1.00  0.00     0.169 HD
HETATM   10  O   UNL     1      41.658 -14.096   2.291  1.00  0.00    -0.273 OA
BRANCH   8  11
HETATM   11  C   UNL     1      43.146 -16.557   3.002  1.00  0.00     0.069 A 
HETATM   12  C   UNL     1      42.651 -17.744   3.568  1.00  0.00     0.102 A 
HETATM   13  C   UNL     1      42.884 -18.983   2.959  1.00  0.00     0.039 A 
HETATM   14  C   UNL     1      43.572 -19.041   1.749  1.00  0.00     0.003 A 
HETATM   15  C   UNL     1      44.035 -17.866   1.160  1.00  0.00     0.002 A 
HETATM   16  C   UNL     1      43.827 -16.630   1.784  1.00  0.00     0.032 A 
BRANCH  12  17
HETATM   17  O   UNL     1      41.969 -17.659   4.767  1.00  0.00    -0.309 OA
BRANCH  17  18
HETATM   18  C   UNL     1      42.671 -17.950   5.917  1.00  0.00     0.076 A 
HETATM   19  C   UNL     1      42.624 -16.992   6.931  1.00  0.00     0.037 A 
HETATM   20  C   UNL     1      43.299 -17.213   8.133  1.00  0.00     0.003 A 
HETATM   21  C   UNL     1      44.012 -18.396   8.326  1.00  0.00     0.000 A 
HETATM   22  C   UNL     1      44.040 -19.365   7.323  1.00  0.00     0.003 A 
HETATM   23  C   UNL     1      43.361 -19.150   6.123  1.00  0.00     0.037 A 
ENDBRANCH  17  18
ENDBRANCH  12  17
ENDBRANCH   8  11
ENDBRANCH   6   7
ENDBRANCH   4   6
BRANCH   1  24
HETATM   24  N   UNL     1      39.921 -10.602   7.394  1.00  0.00    -0.287 N 
HETATM   25  C   UNL     1      40.439 -10.205   8.590  1.00  0.00     0.326 C 
HETATM   26  N   UNL     1      41.245 -11.094   9.244  1.00  0.00    -0.306 N 
HETATM   27  O   UNL     1      40.083  -9.112   9.031  1.00  0.00    -0.247 OA
HETATM   28  H   UNL     1      41.230 -12.052   8.906  1.00  0.00     0.171 HD
HETATM   29  H   UNL     1      39.227  -9.985   7.000  1.00  0.00     0.172 HD
BRANCH  26  30
HETATM   30  C   UNL     1      41.871 -10.899  10.493  1.00  0.00     0.069 A 
HETATM   31  C   UNL     1      43.243 -10.600  10.508  1.00  0.00     0.095 A 
HETATM   32  C   UNL     1      43.903 -10.359  11.717  1.00  0.00     0.039 A 
HETATM   33  C   UNL     1      43.201 -10.441  12.919  1.00  0.00     0.003 A 
HETATM   34  C   UNL     1      41.843 -10.754  12.913  1.00  0.00     0.002 A 
HETATM   35  C   UNL     1      41.180 -10.984  11.704  1.00  0.00     0.032 A 
BRANCH  31  36
HETATM   36  O   UNL     1      43.903 -10.553   9.302  1.00  0.00    -0.354 OA
HETATM   37  C   UNL     1      44.878 -11.592   9.182  1.00  0.00     0.210 C 
ENDBRANCH  31  36
ENDBRANCH  26  30
ENDBRANCH   1  24
TORSDOF 8
ENDMDL
MODEL 8
REMARK VINA RESULT:      -9.0      1.534      1.919
REMARK  8 active torsions:
REMARK  status: ('A' for Active; 'I' for Inactive)
REMARK    1  A    between atoms: O_2  and  C_3 
REMARK    2  A    between atoms: C_4  and  N_5 
REMARK       I    between atoms: N_5  and  C_6 
REMARK       I    between atoms: C_6  and  N_7 
REMARK    3  A    between atoms: N_7  and  C_8 
REMARK    4  A    between atoms: C_11  and  C_12 
REMARK    5  A    between atoms: C_12  and  C_13 
REMARK       I    between atoms: C_13  and  N_14 
REMARK    6  A    between atoms: N_14  and  C_15 
REMARK    7  A    between atoms: C_16  and  O_17 
REMARK    8  A    between atoms: O_17  and  C_18 
ROOT
HETATM    1  C   UNL     1      40.229 -10.806   6.305  1.00  0.00     0.174 C 
HETATM    2  S   UNL     1      40.850 -10.584   4.734  1.00  0.00    -0.062 SA
HETATM    3  C   UNL     1      40.606 -12.253   4.431  1.00  0.00     0.081 C 
HETATM    4  C   UNL     1      40.096 -12.870   5.561  1.00  0.00     0.052 C 
HETATM    5  N   UNL     1      39.795 -12.004   6.608  1.00  0.00    -0.228 NA
ENDROOT
BRANCH   4   6
HETATM    6  C   UNL     1      39.907 -14.340   5.751  1.00  0.00     0.163 C 
BRANCH   6   7
HETATM    7  C   UNL     1      41.269 -15.018   5.866  1.00  0.00     0.227 C 
HETATM    8  N   UNL     1      41.197 -16.360   6.190  1.00  0.00    -0.324 N 
HETATM    9  H   UNL     1      40.305 -16.834   6.098  1.00  0.00     0.169 HD
HETATM   10  O   UNL     1      42.308 -14.386   5.681  1.00  0.00    -0.273 OA
BRANCH   8  11
HETATM   11  C   UNL     1      42.253 -17.187   6.641  1.00  0.00     0.069 A 
HETATM   12  C   UNL     1      42.630 -18.275   5.835  1.00  0.00     0.102 A 
HETATM   13  C   UNL     1      43.586 -19.199   6.275  1.00  0.00     0.039 A 
HETATM   14  C   UNL     1      44.212 -19.014   7.506  1.00  0.00     0.003 A 
HETATM   15  C   UNL     1      43.873 -17.917   8.297  1.00  0.00     0.002 A 
HETATM   16  C   UNL     1      42.896 -17.010   7.869  1.00  0.00     0.032 A 
BRANCH  12  17
HETATM   17  O   UNL     1      41.997 -18.434   4.617  1.00  0.00    -0.309 OA
BRANCH  17  18
HETATM   18  C   UNL     1      42.704 -18.084   3.486  1.00  0.00     0.076 A 
HETATM   19  C   UNL     1      43.015 -19.120   2.605  1.00  0.00     0.037 A 
HETATM   20  C   UNL     1      43.720 -18.850   1.430  1.00  0.00     0.003 A 
HETATM   21  C   UNL     1      44.101 -17.543   1.130  1.00  0.00     0.000 A 
HETATM   22  C   UNL     1      43.768 -16.502   1.997  1.00  0.00     0.003 A 
HETATM   23  C   UNL     1      43.059 -16.768   3.170  1.00  0.00     0.037 A 
ENDBRANCH  17  18
ENDBRANCH  12  17
ENDBRANCH   8  11
ENDBRANCH   6   7
ENDBRANCH   4   6
BRANCH   1  24
HETATM   24  N   UNL     1      40.301  -9.696   7.092  1.00  0.00    -0.287 N 
HETATM   25  C   UNL     1      40.915  -9.598   8.304  1.00  0.00     0.326 C 
HETATM   26  N   UNL     1      41.148 -10.763   8.979  1.00  0.00    -0.306 N 
HETATM   27  O   UNL     1      41.146  -8.469   8.737  1.00  0.00    -0.247 OA
HETATM   28  H   UNL     1      40.663 -11.588   8.638  1.00  0.00     0.171 HD
HETATM   29  H   UNL     1      40.022  -8.819   6.679  1.00  0.00     0.172 HD
BRANCH  26  30
HETATM   30  C   UNL     1      41.753 -10.894  10.246  1.00  0.00     0.069 A 
HETATM   31  C   UNL     1      43.156 -10.903  10.314  1.00  0.00     0.095 A 
HETATM   32  C   UNL     1      43.805 -10.991  11.549  1.00  0.00     0.039 A 
HETATM   33  C   UNL     1      43.057 -11.095  12.722  1.00  0.00     0.003 A 
HETATM   34  C   UNL     1      41.664 -11.103  12.661  1.00  0.00     0.002 A 
HETATM   35  C   UNL     1      41.014 -11.004  11.428  1.00  0.00     0.032 A 
BRANCH  31  36
HETATM   36  O   UNL     1      43.856 -10.825   9.133  1.00  0.00    -0.354 OA
HETATM   37  C   UNL     1      44.726 -11.943   8.948  1.00  0.00     0.210 C 
ENDBRANCH  31  36
ENDBRANCH  26  30
ENDBRANCH   1  24
TORSDOF 8
ENDMDL
MODEL 9
REMARK VINA RESULT:      -9.0      4.817      8.796
REMARK  8 active torsions:
REMARK  status: ('A' for Active; 'I' for Inactive)
REMARK    1  A    between atoms: O_2  and  C_3 
REMARK    2  A    between atoms: C_4  and  N_5 
REMARK       I    between atoms: N_5  and  C_6 
REMARK       I    between atoms: C_6  and  N_7 
REMARK    3  A    between atoms: N_7  and  C_8 
REMARK    4  A    between atoms: C_11  and  C_12 
REMARK    5  A    between atoms: C_12  and  C_13 
REMARK       I    between atoms: C_13  and  N_14 
REMARK    6  A    between atoms: N_14  and  C_15 
REMARK    7  A    between atoms: C_16  and  O_17 
REMARK    8  A    between atoms: O_17  and  C_18 
ROOT
HETATM    1  C   UNL     1      41.769 -14.783   5.434  1.00  0.00     0.174 C 
HETATM    2  S   UNL     1      41.730 -13.080   5.459  1.00  0.00    -0.062 SA
HETATM    3  C   UNL     1      40.548 -13.115   4.220  1.00  0.00     0.081 C 
HETATM    4  C   UNL     1      40.286 -14.424   3.851  1.00  0.00     0.052 C 
HETATM    5  N   UNL     1      40.930 -15.384   4.627  1.00  0.00    -0.228 NA
ENDROOT
BRANCH   4   6
HETATM    6  C   UNL     1      39.444 -14.862   2.697  1.00  0.00     0.163 C 
BRANCH   6   7
HETATM    7  C   UNL     1      39.668 -13.920   1.517  1.00  0.00     0.227 C 
HETATM    8  N   UNL     1      40.907 -14.060   0.920  1.00  0.00    -0.324 N 
HETATM    9  H   UNL     1      41.456 -14.887   1.132  1.00  0.00     0.169 HD
HETATM   10  O   UNL     1      38.797 -13.124   1.168  1.00  0.00    -0.273 OA
BRANCH   8  11
HETATM   11  C   UNL     1      41.523 -13.168   0.011  1.00  0.00     0.069 A 
HETATM   12  C   UNL     1      41.752 -13.616  -1.301  1.00  0.00     0.102 A 
HETATM   13  C   UNL     1      42.460 -12.829  -2.218  1.00  0.00     0.039 A 
HETATM   14  C   UNL     1      42.901 -11.561  -1.844  1.00  0.00     0.003 A 
HETATM   15  C   UNL     1      42.646 -11.091  -0.557  1.00  0.00     0.002 A 
HETATM   16  C   UNL     1      41.964 -11.891   0.368  1.00  0.00     0.032 A 
BRANCH  12  17
HETATM   17  O   UNL     1      41.301 -14.876  -1.648  1.00  0.00    -0.309 OA
BRANCH  17  18
HETATM   18  C   UNL     1      40.156 -14.950  -2.413  1.00  0.00     0.076 A 
HETATM   19  C   UNL     1      40.124 -15.950  -3.386  1.00  0.00     0.037 A 
HETATM   20  C   UNL     1      38.998 -16.101  -4.197  1.00  0.00     0.003 A 
HETATM   21  C   UNL     1      37.898 -15.260  -4.027  1.00  0.00     0.000 A 
HETATM   22  C   UNL     1      37.918 -14.276  -3.038  1.00  0.00     0.003 A 
HETATM   23  C   UNL     1      39.041 -14.127  -2.222  1.00  0.00     0.037 A 
ENDBRANCH  17  18
ENDBRANCH  12  17
ENDBRANCH   8  11
ENDBRANCH   6   7
ENDBRANCH   4   6
BRANCH   1  24
HETATM   24  N   UNL     1      42.719 -15.328   6.244  1.00  0.00    -0.287 N 
HETATM   25  C   UNL     1      43.467 -16.438   5.985  1.00  0.00     0.326 C 
HETATM   26  N   UNL     1      42.989 -17.304   5.041  1.00  0.00    -0.306 N 
HETATM   27  O   UNL     1      44.473 -16.619   6.670  1.00  0.00    -0.247 OA
HETATM   28  H   UNL     1      42.022 -17.175   4.758  1.00  0.00     0.171 HD
HETATM   29  H   UNL     1      43.023 -14.780   7.033  1.00  0.00     0.172 HD
BRANCH  26  30
HETATM   30  C   UNL     1      43.589 -18.512   4.630  1.00  0.00     0.069 A 
HETATM   31  C   UNL     1      43.715 -18.754   3.252  1.00  0.00     0.095 A 
HETATM   32  C   UNL     1      44.337 -19.919   2.791  1.00  0.00     0.039 A 
HETATM   33  C   UNL     1      44.813 -20.860   3.704  1.00  0.00     0.003 A 
HETATM   34  C   UNL     1      44.676 -20.633   5.073  1.00  0.00     0.002 A 
HETATM   35  C   UNL     1      44.065 -19.464   5.535  1.00  0.00     0.032 A 
BRANCH  31  36
HETATM   36  O   UNL     1      43.209 -17.813   2.385  1.00  0.00    -0.354 OA
HETATM   37  C   UNL     1      44.211 -17.301   1.504  1.00  0.00     0.210 C 
ENDBRANCH  31  36
ENDBRANCH  26  30
ENDBRANCH   1  24
TORSDOF 8
ENDMDL
MODEL 10
REMARK VINA RESULT:      -8.9      2.103     10.171
REMARK  8 active torsions:
REMARK  status: ('A' for Active; 'I' for Inactive)
REMARK    1  A    between atoms: O_2  and  C_3 
REMARK    2  A    between atoms: C_4  and  N_5 
REMARK       I    between atoms: N_5  and  C_6 
REMARK       I    between atoms: C_6  and  N_7 
REMARK    3  A    between atoms: N_7  and  C_8 
REMARK    4  A    between atoms: C_11  and  C_12 
REMARK    5  A    between atoms: C_12  and  C_13 
REMARK       I    between atoms: C_13  and  N_14 
REMARK    6  A    between atoms: N_14  and  C_15 
REMARK    7  A    between atoms: C_16  and  O_17 
REMARK    8  A    between atoms: O_17  and  C_18 
ROOT
HETATM    1  C   UNL     1      43.067 -15.099   5.613  1.00  0.00     0.174 C 
HETATM    2  S   UNL     1      42.874 -16.303   6.803  1.00  0.00    -0.062 SA
HETATM    3  C   UNL     1      43.908 -15.410   7.837  1.00  0.00     0.081 C 
HETATM    4  C   UNL     1      44.353 -14.269   7.191  1.00  0.00     0.052 C 
HETATM    5  N   UNL     1      43.785 -14.053   5.939  1.00  0.00    -0.228 NA
ENDROOT
BRANCH   4   6
HETATM    6  C   UNL     1      45.396 -13.324   7.693  1.00  0.00     0.163 C 
BRANCH   6   7
HETATM    7  C   UNL     1      44.721 -12.095   8.298  1.00  0.00     0.227 C 
HETATM    8  N   UNL     1      43.343 -12.103   8.182  1.00  0.00    -0.324 N 
HETATM    9  H   UNL     1      42.883 -12.974   7.938  1.00  0.00     0.169 HD
HETATM   10  O   UNL     1      45.385 -11.205   8.827  1.00  0.00    -0.273 OA
BRANCH   8  11
HETATM   11  C   UNL     1      42.463 -11.013   8.376  1.00  0.00     0.069 A 
HETATM   12  C   UNL     1      42.118 -10.670   9.694  1.00  0.00     0.102 A 
HETATM   13  C   UNL     1      41.163  -9.678   9.953  1.00  0.00     0.039 A 
HETATM   14  C   UNL     1      40.584  -8.983   8.894  1.00  0.00     0.003 A 
HETATM   15  C   UNL     1      40.948  -9.288   7.584  1.00  0.00     0.002 A 
HETATM   16  C   UNL     1      41.880 -10.300   7.325  1.00  0.00     0.032 A 
BRANCH  12  17
HETATM   17  O   UNL     1      42.709 -11.373  10.727  1.00  0.00    -0.309 OA
BRANCH  17  18
HETATM   18  C   UNL     1      42.606 -10.840  11.995  1.00  0.00     0.076 A 
HETATM   19  C   UNL     1      43.589  -9.921  12.362  1.00  0.00     0.037 A 
HETATM   20  C   UNL     1      43.554  -9.327  13.625  1.00  0.00     0.003 A 
HETATM   21  C   UNL     1      42.528  -9.641  14.516  1.00  0.00     0.000 A 
HETATM   22  C   UNL     1      41.530 -10.542  14.141  1.00  0.00     0.003 A 
HETATM   23  C   UNL     1      41.560 -11.133  12.877  1.00  0.00     0.037 A 
ENDBRANCH  17  18
ENDBRANCH  12  17
ENDBRANCH   8  11
ENDBRANCH   6   7
ENDBRANCH   4   6
BRANCH   1  24
HETATM   24  N   UNL     1      42.474 -15.395   4.423  1.00  0.00    -0.287 N 
HETATM   25  C   UNL     1      42.544 -16.580   3.754  1.00  0.00     0.326 C 
HETATM   26  N   UNL     1      43.579 -17.414   4.071  1.00  0.00    -0.306 N 
HETATM   27  O   UNL     1      41.720 -16.779   2.861  1.00  0.00    -0.247 OA
HETATM   28  H   UNL     1      44.333 -17.010   4.619  1.00  0.00     0.171 HD
HETATM   29  H   UNL     1      41.785 -14.746   4.077  1.00  0.00     0.172 HD
BRANCH  26  30
HETATM   30  C   UNL     1      43.850 -18.673   3.497  1.00  0.00     0.069 A 
HETATM   31  C   UNL     1      44.403 -19.671   4.316  1.00  0.00     0.095 A 
HETATM   32  C   UNL     1      44.655 -20.948   3.806  1.00  0.00     0.039 A 
HETATM   33  C   UNL     1      44.379 -21.228   2.467  1.00  0.00     0.003 A 
HETATM   34  C   UNL     1      43.846 -20.237   1.644  1.00  0.00     0.002 A 
HETATM   35  C   UNL     1      43.584 -18.963   2.156  1.00  0.00     0.032 A 
BRANCH  31  36
HETATM   36  O   UNL     1      44.683 -19.346   5.623  1.00  0.00    -0.354 OA
HETATM   37  C   UNL     1      43.828 -20.028   6.542  1.00  0.00     0.210 C 
ENDBRANCH  31  36
ENDBRANCH  26  30
ENDBRANCH   1  24
TORSDOF 8
ENDMDL
