MODEL 1
REMARK VINA RESULT:      -8.9      0.000      0.000
REMARK  7 active torsions:
REMARK  status: ('A' for Active; 'I' for Inactive)
REMARK    1  A    between atoms: O_2  and  C_3 
REMARK    2  A    between atoms: C_4  and  C_5 
REMARK    3  A    between atoms: C_5  and  C_6 
REMARK       I    between atoms: C_6  and  N_7 
REMARK    4  A    between atoms: N_7  and  N_8 
REMARK       I    between atoms: N_8  and  C_9 
REMARK    5  A    between atoms: C_9  and  C_10 
REMARK    6  A    between atoms: C_15  and  O_16 
REMARK    7  A    between atoms: O_16  and  C_17 
ROOT
HETATM    1  N   UNL     1      44.346 -14.202   7.723  1.00  0.00    -0.262 N 
HETATM    2  C   UNL     1      43.613 -14.302   6.560  1.00  0.00     0.286 C 
HETATM    3  O   UNL     1      42.948 -13.360   6.129  1.00  0.00    -0.264 OA
HETATM    4  H   UNL     1      44.904 -14.960   8.107  1.00  0.00     0.190 HD
ENDROOT
BRANCH   2   5
HETATM    5  C   UNL     1      43.672 -15.582   5.892  1.00  0.00     0.103 A 
HETATM    6  N   UNL     1      44.320 -16.657   6.461  1.00  0.00    -0.351 N 
HETATM    7  H   UNL     1      44.778 -16.621   7.363  1.00  0.00     0.166 HD
HETATM    8  C   UNL     1      44.286 -17.753   5.633  1.00  0.00     0.045 A 
HETATM    9  C   UNL     1      43.588 -17.378   4.486  1.00  0.00     0.026 A 
HETATM   10  C   UNL     1      44.828 -19.031   5.805  1.00  0.00     0.030 A 
HETATM   11  C   UNL     1      43.414 -18.320   3.447  1.00  0.00     0.087 A 
HETATM   12  C   UNL     1      43.196 -16.019   4.669  1.00  0.00     0.052 A 
HETATM   13  C   UNL     1      43.982 -19.595   3.595  1.00  0.00     0.038 A 
HETATM   14  C   UNL     1      44.667 -19.944   4.760  1.00  0.00     0.005 A 
BRANCH  11  15
HETATM   15  O   UNL     1      42.755 -17.914   2.316  1.00  0.00    -0.289 OA
BRANCH  15  16
HETATM   16  C   UNL     1      43.569 -17.871   1.155  1.00  0.00     0.505 C 
HETATM   17  F   UNL     1      42.861 -17.237   0.188  1.00  0.00    -0.184 F 
HETATM   18  F   UNL     1      44.654 -17.096   1.408  1.00  0.00    -0.184 F 
ENDBRANCH  15  16
ENDBRANCH  11  15
ENDBRANCH   2   5
BRANCH   1  19
HETATM   19  N   UNL     1      44.244 -13.044   8.499  1.00  0.00    -0.267 N 
HETATM   20  C   UNL     1      45.374 -12.272   8.676  1.00  0.00     0.240 C 
HETATM   21  O   UNL     1      46.440 -12.533   8.119  1.00  0.00    -0.272 OA
HETATM   22  H   UNL     1      43.333 -12.827   8.902  1.00  0.00     0.190 HD
BRANCH  20  23
HETATM   23  C   UNL     1      45.188 -11.098   9.610  1.00  0.00     0.146 C 
BRANCH  23  24
HETATM   24  C   UNL     1      43.914 -11.078  10.430  1.00  0.00    -0.016 A 
HETATM   25  C   UNL     1      42.730 -10.595   9.830  1.00  0.00     0.074 A 
HETATM   26  C   UNL     1      41.542 -10.545  10.567  1.00  0.00     0.037 A 
HETATM   27  C   UNL     1      41.517 -10.977  11.893  1.00  0.00     0.003 A 
HETATM   28  C   UNL     1      42.677 -11.459  12.491  1.00  0.00     0.001 A 
HETATM   29  C   UNL     1      43.868 -11.509  11.766  1.00  0.00     0.010 A 
BRANCH  25  30
HETATM   30  O   UNL     1      42.851 -10.181   8.527  1.00  0.00    -0.355 OA
HETATM   31  C   UNL     1      41.736 -10.389   7.671  1.00  0.00     0.210 C 
ENDBRANCH  25  30
ENDBRANCH  23  24
ENDBRANCH  20  23
ENDBRANCH   1  19
TORSDOF 7
ENDMDL
MODEL 2
REMARK VINA RESULT:      -8.8      2.244      2.756
REMARK  7 active torsions:
REMARK  status: ('A' for Active; 'I' for Inactive)
REMARK    1  A    between atoms: O_2  and  C_3 
REMARK    2  A    between atoms: C_4  and  C_5 
REMARK    3  A    between atoms: C_5  and  C_6 
REMARK       I    between atoms: C_6  and  N_7 
REMARK    4  A    between atoms: N_7  and  N_8 
REMARK       I    between atoms: N_8  and  C_9 
REMARK    5  A    between atoms: C_9  and  C_10 
REMARK    6  A    between atoms: C_15  and  O_16 
REMARK    7  A    between atoms: O_16  and  C_17 
ROOT
HETATM    1  N   UNL     1      44.359 -14.121   7.638  1.00  0.00    -0.262 N 
HETATM    2  C   UNL     1      43.585 -14.258   6.506  1.00  0.00     0.286 C 
HETATM    3  O   UNL     1      42.847 -13.356   6.111  1.00  0.00    -0.264 OA
HETATM    4  H   UNL     1      44.977 -14.847   7.992  1.00  0.00     0.190 HD
ENDROOT
BRANCH   2   5
HETATM    5  C   UNL     1      43.692 -15.528   5.826  1.00  0.00     0.103 A 
HETATM    6  N   UNL     1      43.352 -15.660   4.496  1.00  0.00    -0.351 N 
HETATM    7  H   UNL     1      43.020 -14.892   3.926  1.00  0.00     0.166 HD
HETATM    8  C   UNL     1      43.493 -16.960   4.073  1.00  0.00     0.045 A 
HETATM    9  C   UNL     1      43.944 -17.699   5.165  1.00  0.00     0.026 A 
HETATM   10  C   UNL     1      43.243 -17.532   2.822  1.00  0.00     0.030 A 
HETATM   11  C   UNL     1      44.162 -19.087   5.014  1.00  0.00     0.087 A 
HETATM   12  C   UNL     1      44.080 -16.786   6.253  1.00  0.00     0.052 A 
HETATM   13  C   UNL     1      43.883 -19.679   3.772  1.00  0.00     0.038 A 
HETATM   14  C   UNL     1      43.441 -18.909   2.694  1.00  0.00     0.005 A 
BRANCH  11  15
HETATM   15  O   UNL     1      44.571 -19.797   6.113  1.00  0.00    -0.289 OA
BRANCH  15  16
HETATM   16  C   UNL     1      43.858 -21.003   6.322  1.00  0.00     0.505 C 
HETATM   17  F   UNL     1      44.691 -22.027   6.007  1.00  0.00    -0.184 F 
HETATM   18  F   UNL     1      43.582 -21.126   7.645  1.00  0.00    -0.184 F 
ENDBRANCH  15  16
ENDBRANCH  11  15
ENDBRANCH   2   5
BRANCH   1  19
HETATM   19  N   UNL     1      44.221 -12.977   8.428  1.00  0.00    -0.267 N 
HETATM   20  C   UNL     1      45.345 -12.219   8.685  1.00  0.00     0.240 C 
HETATM   21  O   UNL     1      46.440 -12.480   8.187  1.00  0.00    -0.272 OA
HETATM   22  H   UNL     1      43.290 -12.759   8.780  1.00  0.00     0.190 HD
BRANCH  20  23
HETATM   23  C   UNL     1      45.114 -11.059   9.628  1.00  0.00     0.146 C 
BRANCH  23  24
HETATM   24  C   UNL     1      43.822 -11.076  10.420  1.00  0.00    -0.016 A 
HETATM   25  C   UNL     1      42.639 -10.625   9.796  1.00  0.00     0.074 A 
HETATM   26  C   UNL     1      41.434 -10.610  10.506  1.00  0.00     0.037 A 
HETATM   27  C   UNL     1      41.393 -11.044  11.832  1.00  0.00     0.003 A 
HETATM   28  C   UNL     1      42.552 -11.494  12.454  1.00  0.00     0.001 A 
HETATM   29  C   UNL     1      43.760 -11.510  11.754  1.00  0.00     0.010 A 
BRANCH  25  30
HETATM   30  O   UNL     1      42.776 -10.206   8.496  1.00  0.00    -0.355 OA
HETATM   31  C   UNL     1      41.649 -10.351   7.641  1.00  0.00     0.210 C 
ENDBRANCH  25  30
ENDBRANCH  23  24
ENDBRANCH  20  23
ENDBRANCH   1  19
TORSDOF 7
ENDMDL
MODEL 3
REMARK VINA RESULT:      -8.4      6.917      9.396
REMARK  7 active torsions:
REMARK  status: ('A' for Active; 'I' for Inactive)
REMARK    1  A    between atoms: O_2  and  C_3 
REMARK    2  A    between atoms: C_4  and  C_5 
REMARK    3  A    between atoms: C_5  and  C_6 
REMARK       I    between atoms: C_6  and  N_7 
REMARK    4  A    between atoms: N_7  and  N_8 
REMARK       I    between atoms: N_8  and  C_9 
REMARK    5  A    between atoms: C_9  and  C_10 
REMARK    6  A    between atoms: C_15  and  O_16 
REMARK    7  A    between atoms: O_16  and  C_17 
ROOT
HETATM    1  N   UNL     1      42.576 -17.180   0.664  1.00  0.00    -0.262 N 
HETATM    2  C   UNL     1      43.310 -16.991   1.815  1.00  0.00     0.286 C 
HETATM    3  O   UNL     1      43.608 -15.867   2.218  1.00  0.00    -0.264 OA
HETATM    4  H   UNL     1      42.315 -18.094   0.303  1.00  0.00     0.190 HD
ENDROOT
BRANCH   2   5
HETATM    5  C   UNL     1      43.711 -18.195   2.505  1.00  0.00     0.103 A 
HETATM    6  N   UNL     1      43.811 -19.400   1.843  1.00  0.00    -0.351 N 
HETATM    7  H   UNL     1      43.622 -19.514   0.856  1.00  0.00     0.166 HD
HETATM    8  C   UNL     1      44.166 -20.412   2.704  1.00  0.00     0.045 A 
HETATM    9  C   UNL     1      44.304 -19.844   3.969  1.00  0.00     0.026 A 
HETATM   10  C   UNL     1      44.358 -21.776   2.461  1.00  0.00     0.030 A 
HETATM   11  C   UNL     1      44.653 -20.670   5.060  1.00  0.00     0.087 A 
HETATM   12  C   UNL     1      44.032 -18.451   3.827  1.00  0.00     0.052 A 
HETATM   13  C   UNL     1      44.816 -22.047   4.835  1.00  0.00     0.038 A 
HETATM   14  C   UNL     1      44.680 -22.584   3.554  1.00  0.00     0.005 A 
BRANCH  11  15
HETATM   15  O   UNL     1      44.747 -20.093   6.300  1.00  0.00    -0.289 OA
BRANCH  15  16
HETATM   16  C   UNL     1      43.540 -20.112   7.042  1.00  0.00     0.505 C 
HETATM   17  F   UNL     1      43.529 -21.257   7.769  1.00  0.00    -0.184 F 
HETATM   18  F   UNL     1      43.557 -19.090   7.934  1.00  0.00    -0.184 F 
ENDBRANCH  15  16
ENDBRANCH  11  15
ENDBRANCH   2   5
BRANCH   1  19
HETATM   19  N   UNL     1      42.257 -16.077  -0.133  1.00  0.00    -0.267 N 
HETATM   20  C   UNL     1      41.068 -15.418   0.107  1.00  0.00     0.240 C 
HETATM   21  O   UNL     1      40.323 -15.726   1.038  1.00  0.00    -0.272 OA
HETATM   22  H   UNL     1      42.921 -15.815  -0.859  1.00  0.00     0.190 HD
BRANCH  20  23
HETATM   23  C   UNL     1      40.765 -14.303  -0.868  1.00  0.00     0.146 C 
BRANCH  23  24
HETATM   24  C   UNL     1      39.829 -14.637  -2.012  1.00  0.00    -0.016 A 
HETATM   25  C   UNL     1      38.562 -14.017  -2.053  1.00  0.00     0.074 A 
HETATM   26  C   UNL     1      37.667 -14.319  -3.085  1.00  0.00     0.037 A 
HETATM   27  C   UNL     1      38.023 -15.229  -4.081  1.00  0.00     0.003 A 
HETATM   28  C   UNL     1      39.270 -15.843  -4.051  1.00  0.00     0.001 A 
HETATM   29  C   UNL     1      40.168 -15.550  -3.024  1.00  0.00     0.010 A 
BRANCH  25  30
HETATM   30  O   UNL     1      38.294 -13.145  -1.027  1.00  0.00    -0.355 OA
HETATM   31  C   UNL     1      38.449 -11.757  -1.292  1.00  0.00     0.210 C 
ENDBRANCH  25  30
ENDBRANCH  23  24
ENDBRANCH  20  23
ENDBRANCH   1  19
TORSDOF 7
ENDMDL
MODEL 4
REMARK VINA RESULT:      -8.4      2.493      3.482
REMARK  7 active torsions:
REMARK  status: ('A' for Active; 'I' for Inactive)
REMARK    1  A    between atoms: O_2  and  C_3 
REMARK    2  A    between atoms: C_4  and  C_5 
REMARK    3  A    between atoms: C_5  and  C_6 
REMARK       I    between atoms: C_6  and  N_7 
REMARK    4  A    between atoms: N_7  and  N_8 
REMARK       I    between atoms: N_8  and  C_9 
REMARK    5  A    between atoms: C_9  and  C_10 
REMARK    6  A    between atoms: C_15  and  O_16 
REMARK    7  A    between atoms: O_16  and  C_17 
ROOT
HETATM    1  N   UNL     1      42.875 -14.006   6.219  1.00  0.00    -0.262 N 
HETATM    2  C   UNL     1      43.666 -15.047   6.655  1.00  0.00     0.286 C 
HETATM    3  O   UNL     1      44.255 -15.008   7.735  1.00  0.00    -0.264 OA
HETATM    4  H   UNL     1      42.376 -14.006   5.333  1.00  0.00     0.190 HD
ENDROOT
BRANCH   2   5
HETATM    5  C   UNL     1      43.759 -16.178   5.760  1.00  0.00     0.103 A 
HETATM    6  N   UNL     1      43.164 -16.158   4.517  1.00  0.00    -0.351 N 
HETATM    7  H   UNL     1      42.643 -15.367   4.158  1.00  0.00     0.166 HD
HETATM    8  C   UNL     1      43.347 -17.351   3.859  1.00  0.00     0.045 A 
HETATM    9  C   UNL     1      44.090 -18.174   4.703  1.00  0.00     0.026 A 
HETATM   10  C   UNL     1      42.903 -17.763   2.599  1.00  0.00     0.030 A 
HETATM   11  C   UNL     1      44.414 -19.483   4.279  1.00  0.00     0.087 A 
HETATM   12  C   UNL     1      44.355 -17.421   5.885  1.00  0.00     0.052 A 
HETATM   13  C   UNL     1      43.945 -19.918   3.029  1.00  0.00     0.038 A 
HETATM   14  C   UNL     1      43.211 -19.066   2.202  1.00  0.00     0.005 A 
BRANCH  11  15
HETATM   15  O   UNL     1      45.114 -20.283   5.143  1.00  0.00    -0.289 OA
BRANCH  15  16
HETATM   16  C   UNL     1      44.519 -21.550   5.370  1.00  0.00     0.505 C 
HETATM   17  F   UNL     1      45.524 -22.455   5.482  1.00  0.00    -0.184 F 
HETATM   18  F   UNL     1      43.887 -21.528   6.571  1.00  0.00    -0.184 F 
ENDBRANCH  15  16
ENDBRANCH  11  15
ENDBRANCH   2   5
BRANCH   1  19
HETATM   19  N   UNL     1      42.831 -12.823   6.962  1.00  0.00    -0.267 N 
HETATM   20  C   UNL     1      41.794 -11.943   6.730  1.00  0.00     0.240 C 
HETATM   21  O   UNL     1      40.879 -12.198   5.948  1.00  0.00    -0.272 OA
HETATM   22  H   UNL     1      43.574 -12.667   7.641  1.00  0.00     0.190 HD
BRANCH  20  23
HETATM   23  C   UNL     1      41.887 -10.650   7.509  1.00  0.00     0.146 C 
BRANCH  23  24
HETATM   24  C   UNL     1      41.829 -10.762   9.020  1.00  0.00    -0.016 A 
HETATM   25  C   UNL     1      43.042 -10.822   9.741  1.00  0.00     0.074 A 
HETATM   26  C   UNL     1      43.023 -10.944  11.134  1.00  0.00     0.037 A 
HETATM   27  C   UNL     1      41.809 -11.003  11.819  1.00  0.00     0.003 A 
HETATM   28  C   UNL     1      40.609 -10.941  11.118  1.00  0.00     0.001 A 
HETATM   29  C   UNL     1      40.618 -10.821   9.727  1.00  0.00     0.010 A 
BRANCH  25  30
HETATM   30  O   UNL     1      44.186 -10.769   8.984  1.00  0.00    -0.355 OA
HETATM   31  C   UNL     1      45.292 -11.548   9.420  1.00  0.00     0.210 C 
ENDBRANCH  25  30
ENDBRANCH  23  24
ENDBRANCH  20  23
ENDBRANCH   1  19
TORSDOF 7
ENDMDL
MODEL 5
REMARK VINA RESULT:      -8.2      6.126      8.600
REMARK  7 active torsions:
REMARK  status: ('A' for Active; 'I' for Inactive)
REMARK    1  A    between atoms: O_2  and  C_3 
REMARK    2  A    between atoms: C_4  and  C_5 
REMARK    3  A    between atoms: C_5  and  C_6 
REMARK       I    between atoms: C_6  and  N_7 
REMARK    4  A    between atoms: N_7  and  N_8 
REMARK       I    between atoms: N_8  and  C_9 
REMARK    5  A    between atoms: C_9  and  C_10 
REMARK    6  A    between atoms: C_15  and  O_16 
REMARK    7  A    between atoms: O_16  and  C_17 
ROOT
HETATM    1  N   UNL     1      39.849 -16.377   2.433  1.00  0.00    -0.262 N 
HETATM    2  C   UNL     1      40.884 -16.942   1.719  1.00  0.00     0.286 C 
HETATM    3  O   UNL     1      40.977 -16.815   0.499  1.00  0.00    -0.264 OA
HETATM    4  H   UNL     1      39.742 -16.464   3.440  1.00  0.00     0.190 HD
ENDROOT
BRANCH   2   5
HETATM    5  C   UNL     1      41.840 -17.696   2.497  1.00  0.00     0.103 A 
HETATM    6  N   UNL     1      42.042 -17.433   3.835  1.00  0.00    -0.351 N 
HETATM    7  H   UNL     1      41.539 -16.718   4.346  1.00  0.00     0.166 HD
HETATM    8  C   UNL     1      43.024 -18.240   4.359  1.00  0.00     0.045 A 
HETATM    9  C   UNL     1      43.474 -19.059   3.325  1.00  0.00     0.026 A 
HETATM   10  C   UNL     1      43.550 -18.295   5.652  1.00  0.00     0.030 A 
HETATM   11  C   UNL     1      44.507 -19.988   3.583  1.00  0.00     0.087 A 
HETATM   12  C   UNL     1      42.713 -18.718   2.167  1.00  0.00     0.052 A 
HETATM   13  C   UNL     1      45.066 -20.030   4.870  1.00  0.00     0.038 A 
HETATM   14  C   UNL     1      44.586 -19.203   5.887  1.00  0.00     0.005 A 
BRANCH  11  15
HETATM   15  O   UNL     1      44.956 -20.756   2.540  1.00  0.00    -0.289 OA
BRANCH  15  16
HETATM   16  C   UNL     1      44.218 -21.950   2.340  1.00  0.00     0.505 C 
HETATM   17  F   UNL     1      44.212 -22.203   1.007  1.00  0.00    -0.184 F 
HETATM   18  F   UNL     1      44.882 -22.979   2.924  1.00  0.00    -0.184 F 
ENDBRANCH  15  16
ENDBRANCH  11  15
ENDBRANCH   2   5
BRANCH   1  19
HETATM   19  N   UNL     1      38.812 -15.740   1.746  1.00  0.00    -0.267 N 
HETATM   20  C   UNL     1      38.821 -14.362   1.678  1.00  0.00     0.240 C 
HETATM   21  O   UNL     1      39.742 -13.688   2.138  1.00  0.00    -0.272 OA
HETATM   22  H   UNL     1      38.093 -16.330   1.329  1.00  0.00     0.190 HD
BRANCH  20  23
HETATM   23  C   UNL     1      37.608 -13.763   1.001  1.00  0.00     0.146 C 
BRANCH  23  24
HETATM   24  C   UNL     1      37.819 -13.187  -0.385  1.00  0.00    -0.016 A 
HETATM   25  C   UNL     1      37.247 -11.933  -0.691  1.00  0.00     0.074 A 
HETATM   26  C   UNL     1      37.406 -11.383  -1.967  1.00  0.00     0.037 A 
HETATM   27  C   UNL     1      38.135 -12.066  -2.942  1.00  0.00     0.003 A 
HETATM   28  C   UNL     1      38.706 -13.300  -2.648  1.00  0.00     0.001 A 
HETATM   29  C   UNL     1      38.549 -13.858  -1.379  1.00  0.00     0.010 A 
BRANCH  25  30
HETATM   30  O   UNL     1      36.538 -11.340   0.324  1.00  0.00    -0.355 OA
HETATM   31  C   UNL     1      35.172 -11.036   0.075  1.00  0.00     0.210 C 
ENDBRANCH  25  30
ENDBRANCH  23  24
ENDBRANCH  20  23
ENDBRANCH   1  19
TORSDOF 7
ENDMDL
MODEL 6
REMARK VINA RESULT:      -8.1      1.252      2.309
REMARK  7 active torsions:
REMARK  status: ('A' for Active; 'I' for Inactive)
REMARK    1  A    between atoms: O_2  and  C_3 
REMARK    2  A    between atoms: C_4  and  C_5 
REMARK    3  A    between atoms: C_5  and  C_6 
REMARK       I    between atoms: C_6  and  N_7 
REMARK    4  A    between atoms: N_7  and  N_8 
REMARK       I    between atoms: N_8  and  C_9 
REMARK    5  A    between atoms: C_9  and  C_10 
REMARK    6  A    between atoms: C_15  and  O_16 
REMARK    7  A    between atoms: O_16  and  C_17 
ROOT
HETATM    1  N   UNL     1      42.755 -14.117   6.177  1.00  0.00    -0.262 N 
HETATM    2  C   UNL     1      43.597 -15.125   6.594  1.00  0.00     0.286 C 
HETATM    3  O   UNL     1      44.258 -15.032   7.628  1.00  0.00    -0.264 OA
HETATM    4  H   UNL     1      42.196 -14.162   5.328  1.00  0.00     0.190 HD
ENDROOT
BRANCH   2   5
HETATM    5  C   UNL     1      43.656 -16.286   5.736  1.00  0.00     0.103 A 
HETATM    6  N   UNL     1      44.379 -17.404   6.091  1.00  0.00    -0.351 N 
HETATM    7  H   UNL     1      44.896 -17.483   6.957  1.00  0.00     0.166 HD
HETATM    8  C   UNL     1      44.327 -18.363   5.108  1.00  0.00     0.045 A 
HETATM    9  C   UNL     1      43.539 -17.852   4.079  1.00  0.00     0.026 A 
HETATM   10  C   UNL     1      44.924 -19.626   5.048  1.00  0.00     0.030 A 
HETATM   11  C   UNL     1      43.327 -18.633   2.920  1.00  0.00     0.087 A 
HETATM   12  C   UNL     1      43.111 -16.555   4.492  1.00  0.00     0.052 A 
HETATM   13  C   UNL     1      43.948 -19.889   2.835  1.00  0.00     0.038 A 
HETATM   14  C   UNL     1      44.724 -20.378   3.888  1.00  0.00     0.005 A 
BRANCH  11  15
HETATM   15  O   UNL     1      42.577 -18.093   1.908  1.00  0.00    -0.289 OA
BRANCH  15  16
HETATM   16  C   UNL     1      43.340 -17.437   0.909  1.00  0.00     0.505 C 
HETATM   17  F   UNL     1      42.878 -16.165   0.817  1.00  0.00    -0.184 F 
HETATM   18  F   UNL     1      44.628 -17.348   1.328  1.00  0.00    -0.184 F 
ENDBRANCH  15  16
ENDBRANCH  11  15
ENDBRANCH   2   5
BRANCH   1  19
HETATM   19  N   UNL     1      42.734 -12.908   6.878  1.00  0.00    -0.267 N 
HETATM   20  C   UNL     1      41.750 -11.990   6.571  1.00  0.00     0.240 C 
HETATM   21  O   UNL     1      40.860 -12.231   5.756  1.00  0.00    -0.272 OA
HETATM   22  H   UNL     1      43.453 -12.763   7.585  1.00  0.00     0.190 HD
BRANCH  20  23
HETATM   23  C   UNL     1      41.870 -10.677   7.310  1.00  0.00     0.146 C 
BRANCH  23  24
HETATM   24  C   UNL     1      41.720 -10.731   8.817  1.00  0.00    -0.016 A 
HETATM   25  C   UNL     1      42.886 -10.783   9.612  1.00  0.00     0.074 A 
HETATM   26  C   UNL     1      42.781 -10.853  11.005  1.00  0.00     0.037 A 
HETATM   27  C   UNL     1      41.527 -10.866  11.617  1.00  0.00     0.003 A 
HETATM   28  C   UNL     1      40.373 -10.810  10.843  1.00  0.00     0.001 A 
HETATM   29  C   UNL     1      40.468 -10.743   9.452  1.00  0.00     0.010 A 
BRANCH  25  30
HETATM   30  O   UNL     1      44.074 -10.778   8.925  1.00  0.00    -0.355 OA
HETATM   31  C   UNL     1      45.095 -11.655   9.381  1.00  0.00     0.210 C 
ENDBRANCH  25  30
ENDBRANCH  23  24
ENDBRANCH  20  23
ENDBRANCH   1  19
TORSDOF 7
ENDMDL
MODEL 7
REMARK VINA RESULT:      -8.1      6.213      8.615
REMARK  7 active torsions:
REMARK  status: ('A' for Active; 'I' for Inactive)
REMARK    1  A    between atoms: O_2  and  C_3 
REMARK    2  A    between atoms: C_4  and  C_5 
REMARK    3  A    between atoms: C_5  and  C_6 
REMARK       I    between atoms: C_6  and  N_7 
REMARK    4  A    between atoms: N_7  and  N_8 
REMARK       I    between atoms: N_8  and  C_9 
REMARK    5  A    between atoms: C_9  and  C_10 
REMARK    6  A    between atoms: C_15  and  O_16 
REMARK    7  A    between atoms: O_16  and  C_17 
ROOT
HETATM    1  N   UNL     1      42.118 -15.641   0.846  1.00  0.00    -0.262 N 
HETATM    2  C   UNL     1      41.376 -16.466   1.663  1.00  0.00     0.286 C 
HETATM    3  O   UNL     1      40.152 -16.370   1.743  1.00  0.00    -0.264 OA
HETATM    4  H   UNL     1      43.130 -15.693   0.758  1.00  0.00     0.190 HD
ENDROOT
BRANCH   2   5
HETATM    5  C   UNL     1      42.130 -17.437   2.422  1.00  0.00     0.103 A 
HETATM    6  N   UNL     1      42.101 -17.450   3.800  1.00  0.00    -0.351 N 
HETATM    7  H   UNL     1      41.557 -16.800   4.354  1.00  0.00     0.166 HD
HETATM    8  C   UNL     1      42.923 -18.429   4.306  1.00  0.00     0.045 A 
HETATM    9  C   UNL     1      43.505 -19.077   3.218  1.00  0.00     0.026 A 
HETATM   10  C   UNL     1      43.203 -18.774   5.631  1.00  0.00     0.030 A 
HETATM   11  C   UNL     1      44.418 -20.130   3.451  1.00  0.00     0.087 A 
HETATM   12  C   UNL     1      42.987 -18.456   2.043  1.00  0.00     0.052 A 
HETATM   13  C   UNL     1      44.731 -20.464   4.779  1.00  0.00     0.038 A 
HETATM   14  C   UNL     1      44.124 -19.802   5.847  1.00  0.00     0.005 A 
BRANCH  11  15
HETATM   15  O   UNL     1      45.003 -20.727   2.365  1.00  0.00    -0.289 OA
BRANCH  15  16
HETATM   16  C   UNL     1      44.417 -21.965   1.999  1.00  0.00     0.505 C 
HETATM   17  F   UNL     1      44.494 -22.784   3.077  1.00  0.00    -0.184 F 
HETATM   18  F   UNL     1      43.095 -21.770   1.759  1.00  0.00    -0.184 F 
ENDBRANCH  15  16
ENDBRANCH  11  15
ENDBRANCH   2   5
BRANCH   1  19
HETATM   19  N   UNL     1      41.485 -14.591   0.175  1.00  0.00    -0.267 N 
HETATM   20  C   UNL     1      41.721 -13.302   0.607  1.00  0.00     0.240 C 
HETATM   21  O   UNL     1      42.518 -13.048   1.510  1.00  0.00    -0.272 OA
HETATM   22  H   UNL     1      40.873 -14.833  -0.603  1.00  0.00     0.190 HD
BRANCH  20  23
HETATM   23  C   UNL     1      40.915 -12.246  -0.115  1.00  0.00     0.146 C 
BRANCH  23  24
HETATM   24  C   UNL     1      41.480 -11.740  -1.427  1.00  0.00    -0.016 A 
HETATM   25  C   UNL     1      41.088 -12.380  -2.624  1.00  0.00     0.074 A 
HETATM   26  C   UNL     1      41.607 -11.950  -3.850  1.00  0.00     0.037 A 
HETATM   27  C   UNL     1      42.508 -10.886  -3.899  1.00  0.00     0.003 A 
HETATM   28  C   UNL     1      42.896 -10.247  -2.726  1.00  0.00     0.001 A 
HETATM   29  C   UNL     1      42.387 -10.671  -1.498  1.00  0.00     0.010 A 
BRANCH  25  30
HETATM   30  O   UNL     1      40.209 -13.423  -2.479  1.00  0.00    -0.355 OA
HETATM   31  C   UNL     1      40.251 -14.453  -3.458  1.00  0.00     0.210 C 
ENDBRANCH  25  30
ENDBRANCH  23  24
ENDBRANCH  20  23
ENDBRANCH   1  19
TORSDOF 7
ENDMDL
MODEL 8
REMARK VINA RESULT:      -8.0      2.005      3.290
REMARK  7 active torsions:
REMARK  status: ('A' for Active; 'I' for Inactive)
REMARK    1  A    between atoms: O_2  and  C_3 
REMARK    2  A    between atoms: C_4  and  C_5 
REMARK    3  A    between atoms: C_5  and  C_6 
REMARK       I    between atoms: C_6  and  N_7 
REMARK    4  A    between atoms: N_7  and  N_8 
REMARK       I    between atoms: N_8  and  C_9 
REMARK    5  A    between atoms: C_9  and  C_10 
REMARK    6  A    between atoms: C_15  and  O_16 
REMARK    7  A    between atoms: O_16  and  C_17 
ROOT
HETATM    1  N   UNL     1      42.284 -13.166   6.273  1.00  0.00    -0.262 N 
HETATM    2  C   UNL     1      43.232 -14.122   5.980  1.00  0.00     0.286 C 
HETATM    3  O   UNL     1      44.289 -14.201   6.605  1.00  0.00    -0.264 OA
HETATM    4  H   UNL     1      41.402 -13.072   5.775  1.00  0.00     0.190 HD
ENDROOT
BRANCH   2   5
HETATM    5  C   UNL     1      42.905 -15.013   4.891  1.00  0.00     0.103 A 
HETATM    6  N   UNL     1      42.117 -14.599   3.838  1.00  0.00    -0.351 N 
HETATM    7  H   UNL     1      41.734 -13.666   3.760  1.00  0.00     0.166 HD
HETATM    8  C   UNL     1      41.903 -15.622   2.944  1.00  0.00     0.045 A 
HETATM    9  C   UNL     1      42.578 -16.739   3.432  1.00  0.00     0.026 A 
HETATM   10  C   UNL     1      41.159 -15.643   1.762  1.00  0.00     0.030 A 
HETATM   11  C   UNL     1      42.515 -17.951   2.709  1.00  0.00     0.087 A 
HETATM   12  C   UNL     1      43.215 -16.340   4.645  1.00  0.00     0.052 A 
HETATM   13  C   UNL     1      41.743 -17.994   1.537  1.00  0.00     0.038 A 
HETATM   14  C   UNL     1      41.087 -16.855   1.069  1.00  0.00     0.005 A 
BRANCH  11  15
HETATM   15  O   UNL     1      43.158 -19.044   3.229  1.00  0.00    -0.289 OA
BRANCH  15  16
HETATM   16  C   UNL     1      43.856 -19.818   2.267  1.00  0.00     0.505 C 
HETATM   17  F   UNL     1      44.964 -20.313   2.872  1.00  0.00    -0.184 F 
HETATM   18  F   UNL     1      43.093 -20.887   1.927  1.00  0.00    -0.184 F 
ENDBRANCH  15  16
ENDBRANCH  11  15
ENDBRANCH   2   5
BRANCH   1  19
HETATM   19  N   UNL     1      42.573 -12.184   7.225  1.00  0.00    -0.267 N 
HETATM   20  C   UNL     1      41.624 -11.214   7.474  1.00  0.00     0.240 C 
HETATM   21  O   UNL     1      40.515 -11.229   6.940  1.00  0.00    -0.272 OA
HETATM   22  H   UNL     1      43.479 -12.232   7.688  1.00  0.00     0.190 HD
BRANCH  20  23
HETATM   23  C   UNL     1      42.067 -10.142   8.444  1.00  0.00     0.146 C 
BRANCH  23  24
HETATM   24  C   UNL     1      42.390 -10.594   9.854  1.00  0.00    -0.016 A 
HETATM   25  C   UNL     1      43.734 -10.875  10.184  1.00  0.00     0.074 A 
HETATM   26  C   UNL     1      44.062 -11.313  11.471  1.00  0.00     0.037 A 
HETATM   27  C   UNL     1      43.067 -11.469  12.437  1.00  0.00     0.003 A 
HETATM   28  C   UNL     1      41.741 -11.191  12.122  1.00  0.00     0.001 A 
HETATM   29  C   UNL     1      41.403 -10.756  10.840  1.00  0.00     0.010 A 
BRANCH  25  30
HETATM   30  O   UNL     1      44.642 -10.705   9.170  1.00  0.00    -0.355 OA
HETATM   31  C   UNL     1      45.660 -11.689   9.033  1.00  0.00     0.210 C 
ENDBRANCH  25  30
ENDBRANCH  23  24
ENDBRANCH  20  23
ENDBRANCH   1  19
TORSDOF 7
ENDMDL
MODEL 9
REMARK VINA RESULT:      -8.0      6.844      8.869
REMARK  7 active torsions:
REMARK  status: ('A' for Active; 'I' for Inactive)
REMARK    1  A    between atoms: O_2  and  C_3 
REMARK    2  A    between atoms: C_4  and  C_5 
REMARK    3  A    between atoms: C_5  and  C_6 
REMARK       I    between atoms: C_6  and  N_7 
REMARK    4  A    between atoms: N_7  and  N_8 
REMARK       I    between atoms: N_8  and  C_9 
REMARK    5  A    between atoms: C_9  and  C_10 
REMARK    6  A    between atoms: C_15  and  O_16 
REMARK    7  A    between atoms: O_16  and  C_17 
ROOT
HETATM    1  N   UNL     1      41.987 -16.557   1.009  1.00  0.00    -0.262 N 
HETATM    2  C   UNL     1      42.911 -16.516   2.030  1.00  0.00     0.286 C 
HETATM    3  O   UNL     1      43.309 -15.452   2.504  1.00  0.00    -0.264 OA
HETATM    4  H   UNL     1      41.639 -17.418   0.594  1.00  0.00     0.190 HD
ENDROOT
BRANCH   2   5
HETATM    5  C   UNL     1      43.383 -17.800   2.497  1.00  0.00     0.103 A 
HETATM    6  N   UNL     1      43.408 -18.899   1.667  1.00  0.00    -0.351 N 
HETATM    7  H   UNL     1      43.112 -18.876   0.699  1.00  0.00     0.166 HD
HETATM    8  C   UNL     1      43.853 -20.016   2.334  1.00  0.00     0.045 A 
HETATM    9  C   UNL     1      44.129 -19.628   3.643  1.00  0.00     0.026 A 
HETATM   10  C   UNL     1      44.015 -21.330   1.883  1.00  0.00     0.030 A 
HETATM   11  C   UNL     1      44.593 -20.594   4.564  1.00  0.00     0.087 A 
HETATM   12  C   UNL     1      43.845 -18.233   3.728  1.00  0.00     0.052 A 
HETATM   13  C   UNL     1      44.729 -21.923   4.132  1.00  0.00     0.038 A 
HETATM   14  C   UNL     1      44.453 -22.278   2.810  1.00  0.00     0.005 A 
BRANCH  11  15
HETATM   15  O   UNL     1      44.824 -20.193   5.855  1.00  0.00    -0.289 OA
BRANCH  15  16
HETATM   16  C   UNL     1      43.689 -20.279   6.699  1.00  0.00     0.505 C 
HETATM   17  F   UNL     1      43.732 -21.487   7.316  1.00  0.00    -0.184 F 
HETATM   18  F   UNL     1      43.798 -19.344   7.677  1.00  0.00    -0.184 F 
ENDBRANCH  15  16
ENDBRANCH  11  15
ENDBRANCH   2   5
BRANCH   1  19
HETATM   19  N   UNL     1      41.574 -15.363   0.411  1.00  0.00    -0.267 N 
HETATM   20  C   UNL     1      40.333 -14.859   0.744  1.00  0.00     0.240 C 
HETATM   21  O   UNL     1      39.617 -15.387   1.595  1.00  0.00    -0.272 OA
HETATM   22  H   UNL     1      42.214 -14.922  -0.248  1.00  0.00     0.190 HD
BRANCH  20  23
HETATM   23  C   UNL     1      39.936 -13.621  -0.027  1.00  0.00     0.146 C 
BRANCH  23  24
HETATM   24  C   UNL     1      40.886 -13.165  -1.117  1.00  0.00    -0.016 A 
HETATM   25  C   UNL     1      40.676 -13.628  -2.434  1.00  0.00     0.074 A 
HETATM   26  C   UNL     1      41.546 -13.242  -3.459  1.00  0.00     0.037 A 
HETATM   27  C   UNL     1      42.621 -12.394  -3.187  1.00  0.00     0.003 A 
HETATM   28  C   UNL     1      42.833 -11.931  -1.894  1.00  0.00     0.001 A 
HETATM   29  C   UNL     1      41.972 -12.313  -0.864  1.00  0.00     0.010 A 
BRANCH  25  30
HETATM   30  O   UNL     1      39.603 -14.466  -2.606  1.00  0.00    -0.355 OA
HETATM   31  C   UNL     1      38.504 -13.972  -3.361  1.00  0.00     0.210 C 
ENDBRANCH  25  30
ENDBRANCH  23  24
ENDBRANCH  20  23
ENDBRANCH   1  19
TORSDOF 7
ENDMDL
MODEL 10
REMARK VINA RESULT:      -7.9      1.577      2.576
REMARK  7 active torsions:
REMARK  status: ('A' for Active; 'I' for Inactive)
REMARK    1  A    between atoms: O_2  and  C_3 
REMARK    2  A    between atoms: C_4  and  C_5 
REMARK    3  A    between atoms: C_5  and  C_6 
REMARK       I    between atoms: C_6  and  N_7 
REMARK    4  A    between atoms: N_7  and  N_8 
REMARK       I    between atoms: N_8  and  C_9 
REMARK    5  A    between atoms: C_9  and  C_10 
REMARK    6  A    between atoms: C_15  and  O_16 
REMARK    7  A    between atoms: O_16  and  C_17 
ROOT
HETATM    1  N   UNL     1      42.712 -13.410   6.337  1.00  0.00    -0.262 N 
HETATM    2  C   UNL     1      43.572 -14.484   6.413  1.00  0.00     0.286 C 
HETATM    3  O   UNL     1      44.394 -14.595   7.321  1.00  0.00    -0.264 OA
HETATM    4  H   UNL     1      42.022 -13.288   5.599  1.00  0.00     0.190 HD
ENDROOT
BRANCH   2   5
HETATM    5  C   UNL     1      43.448 -15.460   5.354  1.00  0.00     0.103 A 
HETATM    6  N   UNL     1      43.741 -16.790   5.568  1.00  0.00    -0.351 N 
HETATM    7  H   UNL     1      44.048 -17.159   6.459  1.00  0.00     0.166 HD
HETATM    8  C   UNL     1      43.593 -17.523   4.414  1.00  0.00     0.045 A 
HETATM    9  C   UNL     1      43.186 -16.639   3.417  1.00  0.00     0.026 A 
HETATM   10  C   UNL     1      43.801 -18.886   4.180  1.00  0.00     0.030 A 
HETATM   11  C   UNL     1      42.971 -17.129   2.109  1.00  0.00     0.087 A 
HETATM   12  C   UNL     1      43.083 -15.352   4.023  1.00  0.00     0.052 A 
HETATM   13  C   UNL     1      43.208 -18.489   1.854  1.00  0.00     0.038 A 
HETATM   14  C   UNL     1      43.607 -19.351   2.877  1.00  0.00     0.005 A 
BRANCH  11  15
HETATM   15  O   UNL     1      42.605 -16.232   1.139  1.00  0.00    -0.289 OA
BRANCH  15  16
HETATM   16  C   UNL     1      41.204 -16.116   0.956  1.00  0.00     0.505 C 
HETATM   17  F   UNL     1      40.628 -17.193   1.547  1.00  0.00    -0.184 F 
HETATM   18  F   UNL     1      40.763 -15.025   1.630  1.00  0.00    -0.184 F 
ENDBRANCH  15  16
ENDBRANCH  11  15
ENDBRANCH   2   5
BRANCH   1  19
HETATM   19  N   UNL     1      42.849 -12.357   7.246  1.00  0.00    -0.267 N 
HETATM   20  C   UNL     1      41.826 -11.436   7.340  1.00  0.00     0.240 C 
HETATM   21  O   UNL     1      40.778 -11.552   6.705  1.00  0.00    -0.272 OA
HETATM   22  H   UNL     1      43.706 -12.321   7.795  1.00  0.00     0.190 HD
BRANCH  20  23
HETATM   23  C   UNL     1      42.110 -10.283   8.275  1.00  0.00     0.146 C 
BRANCH  23  24
HETATM   24  C   UNL     1      42.379 -10.634   9.725  1.00  0.00    -0.016 A 
HETATM   25  C   UNL     1      43.716 -10.796  10.146  1.00  0.00     0.074 A 
HETATM   26  C   UNL     1      43.997 -11.140  11.473  1.00  0.00     0.037 A 
HETATM   27  C   UNL     1      42.958 -11.319  12.387  1.00  0.00     0.003 A 
HETATM   28  C   UNL     1      41.638 -11.158  11.983  1.00  0.00     0.001 A 
HETATM   29  C   UNL     1      41.348 -10.818  10.661  1.00  0.00     0.010 A 
BRANCH  25  30
HETATM   30  O   UNL     1      44.670 -10.612   9.176  1.00  0.00    -0.355 OA
HETATM   31  C   UNL     1      45.772 -11.511   9.166  1.00  0.00     0.210 C 
ENDBRANCH  25  30
ENDBRANCH  23  24
ENDBRANCH  20  23
ENDBRANCH   1  19
TORSDOF 7
ENDMDL
