MODEL 1
REMARK VINA RESULT:      -9.3      0.000      0.000
REMARK  8 active torsions:
REMARK  status: ('A' for Active; 'I' for Inactive)
REMARK    1  A    between atoms: C_2  and  N_3 
REMARK    2  A    between atoms: C_2  and  C_36 
REMARK       I    between atoms: N_3  and  C_4 
REMARK    3  A    between atoms: C_4  and  C_5 
REMARK    4  A    between atoms: C_5  and  N_6 
REMARK       I    between atoms: N_12  and  C_13 
REMARK    5  A    between atoms: C_13  and  C_14 
REMARK    6  A    between atoms: C_15  and  O_16 
REMARK    7  A    between atoms: C_21  and  O_22 
REMARK    8  A    between atoms: N_27  and  C_28 
ROOT
HETATM    1  N   UNL     1      40.405 -15.069   4.180  1.00  0.00    -0.325 N 
HETATM    2  C   UNL     1      40.034 -15.152   2.856  1.00  0.00     0.250 C 
HETATM    3  O   UNL     1      40.115 -16.152   2.160  1.00  0.00    -0.270 OA
HETATM    4  C   UNL     1      39.650 -13.730   2.403  1.00  0.00     0.118 C 
HETATM    5  C   UNL     1      38.352 -13.785   1.578  1.00  0.00     0.061 C 
HETATM    6  C   UNL     1      38.594 -14.133   0.114  1.00  0.00     0.129 C 
HETATM    7  N   UNL     1      39.727 -13.401  -0.430  1.00  0.00    -0.348 N 
HETATM    8  C   UNL     1      39.496 -12.260  -1.209  1.00  0.00     0.259 C 
HETATM    9  O   UNL     1      38.384 -11.766  -1.367  1.00  0.00    -0.267 OA
HETATM   10  C   UNL     1      40.989 -13.689   0.234  1.00  0.00     0.129 C 
HETATM   11  C   UNL     1      40.910 -13.198   1.678  1.00  0.00     0.061 C 
HETATM   12  N   UNL     1      39.462 -13.044   3.717  1.00  0.00    -0.346 N 
HETATM   13  C   UNL     1      40.054 -13.824   4.796  1.00  0.00     0.254 C 
ENDROOT
BRANCH  12  14
HETATM   14  C   UNL     1      39.071 -11.734   3.933  1.00  0.00     0.032 A 
HETATM   15  C   UNL     1      38.267 -11.011   3.035  1.00  0.00     0.029 A 
HETATM   16  C   UNL     1      37.860  -9.691   3.277  1.00  0.00     0.002 A 
HETATM   17  C   UNL     1      38.244  -9.045   4.443  1.00  0.00     0.000 A 
HETATM   18  C   UNL     1      39.034  -9.722   5.359  1.00  0.00     0.002 A 
HETATM   19  C   UNL     1      39.437 -11.042   5.104  1.00  0.00     0.029 A 
ENDBRANCH  12  14
BRANCH   1  20
HETATM   20  C   UNL     1      41.218 -16.054   4.871  1.00  0.00     0.230 C 
BRANCH  20  21
HETATM   21  C   UNL     1      42.576 -16.355   4.241  1.00  0.00     0.236 C 
HETATM   22  N   UNL     1      42.676 -17.602   3.669  1.00  0.00    -0.351 N 
HETATM   23  H   UNL     1      41.802 -18.112   3.593  1.00  0.00     0.163 HD
HETATM   24  O   UNL     1      43.436 -15.482   4.160  1.00  0.00    -0.272 OA
BRANCH  22  25
HETATM   25  C   UNL     1      43.706 -17.981   2.708  1.00  0.00     0.113 C 
HETATM   26  C   UNL     1      43.481 -17.476   1.280  1.00  0.00     0.037 C 
BRANCH  25  27
HETATM   27  C   UNL     1      43.992 -19.471   2.801  1.00  0.00    -0.036 A 
HETATM   28  C   UNL     1      44.583 -19.998   3.961  1.00  0.00     0.009 A 
HETATM   29  C   UNL     1      44.819 -21.369   4.086  1.00  0.00     0.001 A 
HETATM   30  C   UNL     1      44.460 -22.235   3.057  1.00  0.00     0.000 A 
HETATM   31  C   UNL     1      43.865 -21.732   1.903  1.00  0.00     0.001 A 
HETATM   32  C   UNL     1      43.631 -20.361   1.776  1.00  0.00     0.009 A 
ENDBRANCH  25  27
ENDBRANCH  22  25
ENDBRANCH  20  21
ENDBRANCH   1  20
BRANCH   8  33
HETATM   33  C   UNL     1      40.634 -11.698  -1.977  1.00  0.00     0.098 A 
HETATM   34  C   UNL     1      41.294 -10.575  -1.452  1.00  0.00     0.086 A 
HETATM   35  C   UNL     1      42.368 -10.006  -2.137  1.00  0.00     0.038 A 
HETATM   36  C   UNL     1      42.769 -10.537  -3.358  1.00  0.00     0.005 A 
HETATM   37  C   UNL     1      42.124 -11.662  -3.882  1.00  0.00     0.038 A 
HETATM   38  C   UNL     1      41.061 -12.263  -3.192  1.00  0.00     0.086 A 
BRANCH  34  39
HETATM   39  O   UNL     1      40.989 -10.074  -0.214  1.00  0.00    -0.355 OA
HETATM   40  C   UNL     1      41.971  -9.134   0.218  1.00  0.00     0.210 C 
ENDBRANCH  34  39
BRANCH  38  41
HETATM   41  O   UNL     1      40.403 -13.383  -3.625  1.00  0.00    -0.355 OA
HETATM   42  C   UNL     1      41.064 -14.637  -3.486  1.00  0.00     0.210 C 
ENDBRANCH  38  41
ENDBRANCH   8  33
TORSDOF 8
ENDMDL
MODEL 2
REMARK VINA RESULT:      -9.2      0.300      1.980
REMARK  8 active torsions:
REMARK  status: ('A' for Active; 'I' for Inactive)
REMARK    1  A    between atoms: C_2  and  N_3 
REMARK    2  A    between atoms: C_2  and  C_36 
REMARK       I    between atoms: N_3  and  C_4 
REMARK    3  A    between atoms: C_4  and  C_5 
REMARK    4  A    between atoms: C_5  and  N_6 
REMARK       I    between atoms: N_12  and  C_13 
REMARK    5  A    between atoms: C_13  and  C_14 
REMARK    6  A    between atoms: C_15  and  O_16 
REMARK    7  A    between atoms: C_21  and  O_22 
REMARK    8  A    between atoms: N_27  and  C_28 
ROOT
HETATM    1  N   UNL     1      40.479 -15.079   4.316  1.00  0.00    -0.325 N 
HETATM    2  C   UNL     1      40.110 -15.154   2.990  1.00  0.00     0.250 C 
HETATM    3  O   UNL     1      40.196 -16.148   2.287  1.00  0.00    -0.270 OA
HETATM    4  C   UNL     1      39.722 -13.730   2.547  1.00  0.00     0.118 C 
HETATM    5  C   UNL     1      38.426 -13.783   1.720  1.00  0.00     0.061 C 
HETATM    6  C   UNL     1      38.671 -14.120   0.254  1.00  0.00     0.129 C 
HETATM    7  N   UNL     1      39.803 -13.380  -0.283  1.00  0.00    -0.348 N 
HETATM    8  C   UNL     1      39.569 -12.234  -1.054  1.00  0.00     0.259 C 
HETATM    9  O   UNL     1      38.455 -11.743  -1.210  1.00  0.00    -0.267 OA
HETATM   10  C   UNL     1      41.064 -13.669   0.381  1.00  0.00     0.129 C 
HETATM   11  C   UNL     1      40.982 -13.188   1.828  1.00  0.00     0.061 C 
HETATM   12  N   UNL     1      39.530 -13.055   3.866  1.00  0.00    -0.346 N 
HETATM   13  C   UNL     1      40.123 -13.841   4.940  1.00  0.00     0.254 C 
ENDROOT
BRANCH  12  14
HETATM   14  C   UNL     1      39.134 -11.748   4.091  1.00  0.00     0.032 A 
HETATM   15  C   UNL     1      38.327 -11.022   3.198  1.00  0.00     0.029 A 
HETATM   16  C   UNL     1      37.915  -9.704   3.449  1.00  0.00     0.002 A 
HETATM   17  C   UNL     1      38.297  -9.065   4.619  1.00  0.00     0.000 A 
HETATM   18  C   UNL     1      39.090  -9.745   5.531  1.00  0.00     0.002 A 
HETATM   19  C   UNL     1      39.497 -11.062   5.266  1.00  0.00     0.029 A 
ENDBRANCH  12  14
BRANCH   1  20
HETATM   20  C   UNL     1      41.294 -16.067   5.000  1.00  0.00     0.230 C 
BRANCH  20  21
HETATM   21  C   UNL     1      42.660 -16.349   4.378  1.00  0.00     0.236 C 
HETATM   22  N   UNL     1      42.773 -17.587   3.787  1.00  0.00    -0.351 N 
HETATM   23  H   UNL     1      41.904 -18.101   3.697  1.00  0.00     0.163 HD
HETATM   24  O   UNL     1      43.514 -15.469   4.317  1.00  0.00    -0.272 OA
BRANCH  22  25
HETATM   25  C   UNL     1      43.813 -17.945   2.830  1.00  0.00     0.113 C 
HETATM   26  C   UNL     1      43.640 -17.352   1.429  1.00  0.00     0.037 C 
BRANCH  25  27
HETATM   27  C   UNL     1      44.049 -19.446   2.843  1.00  0.00    -0.036 A 
HETATM   28  C   UNL     1      44.630 -20.053   3.969  1.00  0.00     0.009 A 
HETATM   29  C   UNL     1      44.819 -21.435   4.020  1.00  0.00     0.001 A 
HETATM   30  C   UNL     1      44.424 -22.234   2.950  1.00  0.00     0.000 A 
HETATM   31  C   UNL     1      43.838 -21.651   1.830  1.00  0.00     0.001 A 
HETATM   32  C   UNL     1      43.651 -20.268   1.775  1.00  0.00     0.009 A 
ENDBRANCH  25  27
ENDBRANCH  22  25
ENDBRANCH  20  21
ENDBRANCH   1  20
BRANCH   8  33
HETATM   33  C   UNL     1      40.705 -11.663  -1.817  1.00  0.00     0.098 A 
HETATM   34  C   UNL     1      41.042 -12.259  -3.044  1.00  0.00     0.086 A 
HETATM   35  C   UNL     1      42.105 -11.762  -3.799  1.00  0.00     0.038 A 
HETATM   36  C   UNL     1      42.850 -10.688  -3.322  1.00  0.00     0.005 A 
HETATM   37  C   UNL     1      42.513 -10.084  -2.107  1.00  0.00     0.038 A 
HETATM   38  C   UNL     1      41.430 -10.553  -1.349  1.00  0.00     0.086 A 
BRANCH  34  39
HETATM   39  O   UNL     1      40.283 -13.259  -3.592  1.00  0.00    -0.355 OA
HETATM   40  C   UNL     1      40.950 -14.516  -3.513  1.00  0.00     0.210 C 
ENDBRANCH  34  39
BRANCH  38  41
HETATM   41  O   UNL     1      41.023  -9.992  -0.168  1.00  0.00    -0.355 OA
HETATM   42  C   UNL     1      40.456  -8.687  -0.214  1.00  0.00     0.210 C 
ENDBRANCH  38  41
ENDBRANCH   8  33
TORSDOF 8
ENDMDL
MODEL 3
REMARK VINA RESULT:      -8.6      1.298      2.504
REMARK  8 active torsions:
REMARK  status: ('A' for Active; 'I' for Inactive)
REMARK    1  A    between atoms: C_2  and  N_3 
REMARK    2  A    between atoms: C_2  and  C_36 
REMARK       I    between atoms: N_3  and  C_4 
REMARK    3  A    between atoms: C_4  and  C_5 
REMARK    4  A    between atoms: C_5  and  N_6 
REMARK       I    between atoms: N_12  and  C_13 
REMARK    5  A    between atoms: C_13  and  C_14 
REMARK    6  A    between atoms: C_15  and  O_16 
REMARK    7  A    between atoms: C_21  and  O_22 
REMARK    8  A    between atoms: N_27  and  C_28 
ROOT
HETATM    1  N   UNL     1      41.680 -14.066   4.940  1.00  0.00    -0.325 N 
HETATM    2  C   UNL     1      41.319 -14.495   3.681  1.00  0.00     0.250 C 
HETATM    3  O   UNL     1      41.683 -15.537   3.158  1.00  0.00    -0.270 OA
HETATM    4  C   UNL     1      40.510 -13.358   3.029  1.00  0.00     0.118 C 
HETATM    5  C   UNL     1      39.270 -13.943   2.331  1.00  0.00     0.061 C 
HETATM    6  C   UNL     1      39.569 -14.467   0.930  1.00  0.00     0.129 C 
HETATM    7  N   UNL     1      40.412 -13.546   0.184  1.00  0.00    -0.348 N 
HETATM    8  C   UNL     1      39.826 -12.686  -0.754  1.00  0.00     0.259 C 
HETATM    9  O   UNL     1      38.612 -12.580  -0.904  1.00  0.00    -0.267 OA
HETATM   10  C   UNL     1      41.718 -13.323   0.785  1.00  0.00     0.129 C 
HETATM   11  C   UNL     1      41.530 -12.621   2.128  1.00  0.00     0.061 C 
HETATM   12  N   UNL     1      40.155 -12.529   4.221  1.00  0.00    -0.346 N 
HETATM   13  C   UNL     1      40.983 -12.889   5.364  1.00  0.00     0.254 C 
ENDROOT
BRANCH  12  14
HETATM   14  C   UNL     1      39.390 -11.376   4.245  1.00  0.00     0.032 A 
HETATM   15  C   UNL     1      38.423 -11.072   3.271  1.00  0.00     0.029 A 
HETATM   16  C   UNL     1      37.639  -9.910   3.320  1.00  0.00     0.002 A 
HETATM   17  C   UNL     1      37.794  -9.006   4.361  1.00  0.00     0.000 A 
HETATM   18  C   UNL     1      38.734  -9.269   5.346  1.00  0.00     0.002 A 
HETATM   19  C   UNL     1      39.514 -10.434   5.284  1.00  0.00     0.029 A 
ENDBRANCH  12  14
BRANCH   1  20
HETATM   20  C   UNL     1      42.771 -14.624   5.718  1.00  0.00     0.230 C 
BRANCH  20  21
HETATM   21  C   UNL     1      42.721 -16.132   5.949  1.00  0.00     0.236 C 
HETATM   22  N   UNL     1      43.570 -16.861   5.148  1.00  0.00    -0.351 N 
HETATM   23  H   UNL     1      44.236 -16.311   4.615  1.00  0.00     0.163 HD
HETATM   24  O   UNL     1      42.059 -16.603   6.870  1.00  0.00    -0.272 OA
BRANCH  22  25
HETATM   25  C   UNL     1      43.972 -18.236   5.419  1.00  0.00     0.113 C 
HETATM   26  C   UNL     1      45.277 -18.391   6.204  1.00  0.00     0.037 C 
BRANCH  25  27
HETATM   27  C   UNL     1      43.912 -19.065   4.146  1.00  0.00    -0.036 A 
HETATM   28  C   UNL     1      44.658 -20.251   4.048  1.00  0.00     0.009 A 
HETATM   29  C   UNL     1      44.587 -21.049   2.905  1.00  0.00     0.001 A 
HETATM   30  C   UNL     1      43.763 -20.680   1.845  1.00  0.00     0.000 A 
HETATM   31  C   UNL     1      43.009 -19.512   1.929  1.00  0.00     0.001 A 
HETATM   32  C   UNL     1      43.081 -18.711   3.070  1.00  0.00     0.009 A 
ENDBRANCH  25  27
ENDBRANCH  22  25
ENDBRANCH  20  21
ENDBRANCH   1  20
BRANCH   8  33
HETATM   33  C   UNL     1      40.719 -11.966  -1.693  1.00  0.00     0.098 A 
HETATM   34  C   UNL     1      41.088 -12.615  -2.883  1.00  0.00     0.086 A 
HETATM   35  C   UNL     1      41.928 -11.982  -3.800  1.00  0.00     0.038 A 
HETATM   36  C   UNL     1      42.424 -10.713  -3.521  1.00  0.00     0.005 A 
HETATM   37  C   UNL     1      42.052 -10.056  -2.343  1.00  0.00     0.038 A 
HETATM   38  C   UNL     1      41.186 -10.667  -1.425  1.00  0.00     0.086 A 
BRANCH  34  39
HETATM   39  O   UNL     1      40.553 -13.826  -3.239  1.00  0.00    -0.355 OA
HETATM   40  C   UNL     1      41.531 -14.861  -3.171  1.00  0.00     0.210 C 
ENDBRANCH  34  39
BRANCH  38  41
HETATM   41  O   UNL     1      40.753 -10.074  -0.270  1.00  0.00    -0.355 OA
HETATM   42  C   UNL     1      39.914  -8.930  -0.385  1.00  0.00     0.210 C 
ENDBRANCH  38  41
ENDBRANCH   8  33
TORSDOF 8
ENDMDL
MODEL 4
REMARK VINA RESULT:      -8.6      2.820      5.332
REMARK  8 active torsions:
REMARK  status: ('A' for Active; 'I' for Inactive)
REMARK    1  A    between atoms: C_2  and  N_3 
REMARK    2  A    between atoms: C_2  and  C_36 
REMARK       I    between atoms: N_3  and  C_4 
REMARK    3  A    between atoms: C_4  and  C_5 
REMARK    4  A    between atoms: C_5  and  N_6 
REMARK       I    between atoms: N_12  and  C_13 
REMARK    5  A    between atoms: C_13  and  C_14 
REMARK    6  A    between atoms: C_15  and  O_16 
REMARK    7  A    between atoms: C_21  and  O_22 
REMARK    8  A    between atoms: N_27  and  C_28 
ROOT
HETATM    1  N   UNL     1      40.240 -15.336   1.457  1.00  0.00    -0.325 N 
HETATM    2  C   UNL     1      39.468 -14.258   1.832  1.00  0.00     0.250 C 
HETATM    3  O   UNL     1      38.827 -14.173   2.868  1.00  0.00    -0.270 OA
HETATM    4  C   UNL     1      39.456 -13.275   0.645  1.00  0.00     0.118 C 
HETATM    5  C   UNL     1      39.665 -11.841   1.162  1.00  0.00     0.061 C 
HETATM    6  C   UNL     1      38.374 -11.192   1.650  1.00  0.00     0.129 C 
HETATM    7  N   UNL     1      37.271 -11.442   0.735  1.00  0.00    -0.348 N 
HETATM    8  C   UNL     1      36.895 -10.446  -0.175  1.00  0.00     0.259 C 
HETATM    9  O   UNL     1      37.524  -9.403  -0.329  1.00  0.00    -0.267 OA
HETATM   10  C   UNL     1      36.943 -12.851   0.579  1.00  0.00     0.129 C 
HETATM   11  C   UNL     1      38.121 -13.562  -0.084  1.00  0.00     0.061 C 
HETATM   12  N   UNL     1      40.617 -13.768  -0.155  1.00  0.00    -0.346 N 
HETATM   13  C   UNL     1      41.008 -15.105   0.272  1.00  0.00     0.254 C 
ENDROOT
BRANCH  12  14
HETATM   14  C   UNL     1      41.111 -13.236  -1.333  1.00  0.00     0.032 A 
HETATM   15  C   UNL     1      40.549 -13.498  -2.594  1.00  0.00     0.029 A 
HETATM   16  C   UNL     1      41.047 -12.934  -3.778  1.00  0.00     0.002 A 
HETATM   17  C   UNL     1      42.134 -12.073  -3.737  1.00  0.00     0.000 A 
HETATM   18  C   UNL     1      42.718 -11.783  -2.514  1.00  0.00     0.002 A 
HETATM   19  C   UNL     1      42.212 -12.356  -1.337  1.00  0.00     0.029 A 
ENDBRANCH  12  14
BRANCH   1  20
HETATM   20  C   UNL     1      40.181 -16.647   2.079  1.00  0.00     0.230 C 
BRANCH  20  21
HETATM   21  C   UNL     1      41.434 -17.082   2.835  1.00  0.00     0.236 C 
HETATM   22  N   UNL     1      42.295 -17.871   2.107  1.00  0.00    -0.351 N 
HETATM   23  H   UNL     1      42.079 -17.944   1.119  1.00  0.00     0.163 HD
HETATM   24  O   UNL     1      41.678 -16.635   3.953  1.00  0.00    -0.272 OA
BRANCH  22  25
HETATM   25  C   UNL     1      43.691 -18.101   2.461  1.00  0.00     0.113 C 
HETATM   26  C   UNL     1      44.715 -17.453   1.525  1.00  0.00     0.037 C 
BRANCH  25  27
HETATM   27  C   UNL     1      43.934 -19.580   2.716  1.00  0.00    -0.036 A 
HETATM   28  C   UNL     1      43.606 -20.523   1.728  1.00  0.00     0.009 A 
HETATM   29  C   UNL     1      43.857 -21.882   1.924  1.00  0.00     0.001 A 
HETATM   30  C   UNL     1      44.449 -22.320   3.106  1.00  0.00     0.000 A 
HETATM   31  C   UNL     1      44.790 -21.398   4.092  1.00  0.00     0.001 A 
HETATM   32  C   UNL     1      44.536 -20.038   3.900  1.00  0.00     0.009 A 
ENDBRANCH  25  27
ENDBRANCH  22  25
ENDBRANCH  20  21
ENDBRANCH   1  20
BRANCH   8  33
HETATM   33  C   UNL     1      35.609 -10.608  -0.894  1.00  0.00     0.098 A 
HETATM   34  C   UNL     1      35.653 -10.940  -2.259  1.00  0.00     0.086 A 
HETATM   35  C   UNL     1      34.471 -11.101  -2.983  1.00  0.00     0.038 A 
HETATM   36  C   UNL     1      33.245 -10.906  -2.357  1.00  0.00     0.005 A 
HETATM   37  C   UNL     1      33.193 -10.586  -0.996  1.00  0.00     0.038 A 
HETATM   38  C   UNL     1      34.371 -10.449  -0.247  1.00  0.00     0.086 A 
BRANCH  34  39
HETATM   39  O   UNL     1      36.834 -11.228  -2.892  1.00  0.00    -0.355 OA
HETATM   40  C   UNL     1      36.758 -12.472  -3.583  1.00  0.00     0.210 C 
ENDBRANCH  34  39
BRANCH  38  41
HETATM   41  O   UNL     1      34.397 -10.169   1.093  1.00  0.00    -0.355 OA
HETATM   42  C   UNL     1      33.211 -10.405   1.843  1.00  0.00     0.210 C 
ENDBRANCH  38  41
ENDBRANCH   8  33
TORSDOF 8
ENDMDL
MODEL 5
REMARK VINA RESULT:      -8.6      2.829      5.112
REMARK  8 active torsions:
REMARK  status: ('A' for Active; 'I' for Inactive)
REMARK    1  A    between atoms: C_2  and  N_3 
REMARK    2  A    between atoms: C_2  and  C_36 
REMARK       I    between atoms: N_3  and  C_4 
REMARK    3  A    between atoms: C_4  and  C_5 
REMARK    4  A    between atoms: C_5  and  N_6 
REMARK       I    between atoms: N_12  and  C_13 
REMARK    5  A    between atoms: C_13  and  C_14 
REMARK    6  A    between atoms: C_15  and  O_16 
REMARK    7  A    between atoms: C_21  and  O_22 
REMARK    8  A    between atoms: N_27  and  C_28 
ROOT
HETATM    1  N   UNL     1      40.220 -15.402   1.367  1.00  0.00    -0.325 N 
HETATM    2  C   UNL     1      39.446 -14.339   1.779  1.00  0.00     0.250 C 
HETATM    3  O   UNL     1      38.804 -14.293   2.817  1.00  0.00    -0.270 OA
HETATM    4  C   UNL     1      39.434 -13.314   0.629  1.00  0.00     0.118 C 
HETATM    5  C   UNL     1      39.640 -11.900   1.198  1.00  0.00     0.061 C 
HETATM    6  C   UNL     1      38.349 -11.270   1.707  1.00  0.00     0.129 C 
HETATM    7  N   UNL     1      37.246 -11.489   0.783  1.00  0.00    -0.348 N 
HETATM    8  C   UNL     1      36.870 -10.461  -0.091  1.00  0.00     0.259 C 
HETATM    9  O   UNL     1      37.498  -9.412  -0.207  1.00  0.00    -0.267 OA
HETATM   10  C   UNL     1      36.921 -12.891   0.575  1.00  0.00     0.129 C 
HETATM   11  C   UNL     1      38.100 -13.576  -0.112  1.00  0.00     0.061 C 
HETATM   12  N   UNL     1      40.597 -13.776  -0.188  1.00  0.00    -0.346 N 
HETATM   13  C   UNL     1      40.990 -15.126   0.191  1.00  0.00     0.254 C 
ENDROOT
BRANCH  12  14
HETATM   14  C   UNL     1      41.092 -13.200  -1.345  1.00  0.00     0.032 A 
HETATM   15  C   UNL     1      42.212 -12.352  -1.367  1.00  0.00     0.029 A 
HETATM   16  C   UNL     1      42.717 -11.793  -2.550  1.00  0.00     0.002 A 
HETATM   17  C   UNL     1      42.112 -12.073  -3.767  1.00  0.00     0.000 A 
HETATM   18  C   UNL     1      41.006 -12.909  -3.793  1.00  0.00     0.002 A 
HETATM   19  C   UNL     1      40.510 -13.459  -2.601  1.00  0.00     0.029 A 
ENDBRANCH  12  14
BRANCH   1  20
HETATM   20  C   UNL     1      40.162 -16.735   1.940  1.00  0.00     0.230 C 
BRANCH  20  21
HETATM   21  C   UNL     1      41.392 -17.171   2.733  1.00  0.00     0.236 C 
HETATM   22  N   UNL     1      42.315 -17.888   2.006  1.00  0.00    -0.351 N 
HETATM   23  H   UNL     1      42.151 -17.910   1.006  1.00  0.00     0.163 HD
HETATM   24  O   UNL     1      41.565 -16.784   3.885  1.00  0.00    -0.272 OA
BRANCH  22  25
HETATM   25  C   UNL     1      43.699 -18.093   2.416  1.00  0.00     0.113 C 
HETATM   26  C   UNL     1      44.746 -17.385   1.552  1.00  0.00     0.037 C 
BRANCH  25  27
HETATM   27  C   UNL     1      43.973 -19.572   2.633  1.00  0.00    -0.036 A 
HETATM   28  C   UNL     1      44.562 -20.007   3.832  1.00  0.00     0.009 A 
HETATM   29  C   UNL     1      44.785 -21.364   4.070  1.00  0.00     0.001 A 
HETATM   30  C   UNL     1      44.416 -22.310   3.118  1.00  0.00     0.000 A 
HETATM   31  C   UNL     1      43.822 -21.899   1.928  1.00  0.00     0.001 A 
HETATM   32  C   UNL     1      43.600 -20.542   1.686  1.00  0.00     0.009 A 
ENDBRANCH  25  27
ENDBRANCH  22  25
ENDBRANCH  20  21
ENDBRANCH   1  20
BRANCH   8  33
HETATM   33  C   UNL     1      35.585 -10.598  -0.817  1.00  0.00     0.098 A 
HETATM   34  C   UNL     1      34.396 -10.384  -0.101  1.00  0.00     0.086 A 
HETATM   35  C   UNL     1      33.160 -10.503  -0.736  1.00  0.00     0.038 A 
HETATM   36  C   UNL     1      33.104 -10.863  -2.079  1.00  0.00     0.005 A 
HETATM   37  C   UNL     1      34.284 -11.067  -2.801  1.00  0.00     0.038 A 
HETATM   38  C   UNL     1      35.535 -10.922  -2.184  1.00  0.00     0.086 A 
BRANCH  34  39
HETATM   39  O   UNL     1      34.406  -9.943   1.197  1.00  0.00    -0.355 OA
HETATM   40  C   UNL     1      33.241 -10.373   1.897  1.00  0.00     0.210 C 
ENDBRANCH  34  39
BRANCH  38  41
HETATM   41  O   UNL     1      36.731 -11.075  -2.834  1.00  0.00    -0.355 OA
HETATM   42  C   UNL     1      36.986 -12.322  -3.470  1.00  0.00     0.210 C 
ENDBRANCH  38  41
ENDBRANCH   8  33
TORSDOF 8
ENDMDL
MODEL 6
REMARK VINA RESULT:      -8.3      1.896      3.192
REMARK  8 active torsions:
REMARK  status: ('A' for Active; 'I' for Inactive)
REMARK    1  A    between atoms: C_2  and  N_3 
REMARK    2  A    between atoms: C_2  and  C_36 
REMARK       I    between atoms: N_3  and  C_4 
REMARK    3  A    between atoms: C_4  and  C_5 
REMARK    4  A    between atoms: C_5  and  N_6 
REMARK       I    between atoms: N_12  and  C_13 
REMARK    5  A    between atoms: C_13  and  C_14 
REMARK    6  A    between atoms: C_15  and  O_16 
REMARK    7  A    between atoms: C_21  and  O_22 
REMARK    8  A    between atoms: N_27  and  C_28 
ROOT
HETATM    1  N   UNL     1      41.354 -16.538   1.197  1.00  0.00    -0.325 N 
HETATM    2  C   UNL     1      40.982 -15.746   0.133  1.00  0.00     0.250 C 
HETATM    3  O   UNL     1      41.100 -16.044  -1.046  1.00  0.00    -0.270 OA
HETATM    4  C   UNL     1      40.542 -14.387   0.712  1.00  0.00     0.118 C 
HETATM    5  C   UNL     1      39.245 -13.930   0.023  1.00  0.00     0.061 C 
HETATM    6  C   UNL     1      39.495 -13.227  -1.307  1.00  0.00     0.129 C 
HETATM    7  N   UNL     1      40.597 -12.282  -1.214  1.00  0.00    -0.348 N 
HETATM    8  C   UNL     1      40.320 -10.918  -1.062  1.00  0.00     0.259 C 
HETATM    9  O   UNL     1      39.188 -10.477  -0.884  1.00  0.00    -0.267 OA
HETATM   10  C   UNL     1      41.871 -12.895  -0.871  1.00  0.00     0.129 C 
HETATM   11  C   UNL     1      41.779 -13.472   0.540  1.00  0.00     0.061 C 
HETATM   12  N   UNL     1      40.332 -14.735   2.150  1.00  0.00    -0.346 N 
HETATM   13  C   UNL     1      40.957 -16.012   2.468  1.00  0.00     0.254 C 
ENDROOT
BRANCH  12  14
HETATM   14  C   UNL     1      39.891 -13.899   3.160  1.00  0.00     0.032 A 
HETATM   15  C   UNL     1      39.966 -14.231   4.524  1.00  0.00     0.029 A 
HETATM   16  C   UNL     1      39.536 -13.364   5.539  1.00  0.00     0.002 A 
HETATM   17  C   UNL     1      39.016 -12.119   5.219  1.00  0.00     0.000 A 
HETATM   18  C   UNL     1      38.927 -11.748   3.886  1.00  0.00     0.002 A 
HETATM   19  C   UNL     1      39.359 -12.625   2.880  1.00  0.00     0.029 A 
ENDBRANCH  12  14
BRANCH   1  20
HETATM   20  C   UNL     1      42.207 -17.709   1.093  1.00  0.00     0.230 C 
BRANCH  20  21
HETATM   21  C   UNL     1      43.375 -17.769   2.074  1.00  0.00     0.236 C 
HETATM   22  N   UNL     1      43.250 -18.728   3.053  1.00  0.00    -0.351 N 
HETATM   23  H   UNL     1      42.484 -19.379   2.922  1.00  0.00     0.163 HD
HETATM   24  O   UNL     1      44.382 -17.090   1.892  1.00  0.00    -0.272 OA
BRANCH  22  25
HETATM   25  C   UNL     1      44.360 -19.224   3.859  1.00  0.00     0.113 C 
HETATM   26  C   UNL     1      44.694 -20.706   3.665  1.00  0.00     0.037 C 
BRANCH  25  27
HETATM   27  C   UNL     1      44.182 -18.814   5.312  1.00  0.00    -0.036 A 
HETATM   28  C   UNL     1      44.157 -17.452   5.656  1.00  0.00     0.009 A 
HETATM   29  C   UNL     1      43.954 -17.050   6.977  1.00  0.00     0.001 A 
HETATM   30  C   UNL     1      43.765 -18.003   7.975  1.00  0.00     0.000 A 
HETATM   31  C   UNL     1      43.778 -19.357   7.652  1.00  0.00     0.001 A 
HETATM   32  C   UNL     1      43.983 -19.761   6.331  1.00  0.00     0.009 A 
ENDBRANCH  25  27
ENDBRANCH  22  25
ENDBRANCH  20  21
ENDBRANCH   1  20
BRANCH   8  33
HETATM   33  C   UNL     1      41.432  -9.955  -1.250  1.00  0.00     0.098 A 
HETATM   34  C   UNL     1      42.008  -9.381  -0.104  1.00  0.00     0.086 A 
HETATM   35  C   UNL     1      43.055  -8.467  -0.226  1.00  0.00     0.038 A 
HETATM   36  C   UNL     1      43.512  -8.103  -1.488  1.00  0.00     0.005 A 
HETATM   37  C   UNL     1      42.951  -8.679  -2.632  1.00  0.00     0.038 A 
HETATM   38  C   UNL     1      41.917  -9.621  -2.526  1.00  0.00     0.086 A 
BRANCH  34  39
HETATM   39  O   UNL     1      41.649  -9.776   1.158  1.00  0.00    -0.355 OA
HETATM   40  C   UNL     1      40.908  -8.758   1.826  1.00  0.00     0.210 C 
ENDBRANCH  34  39
BRANCH  38  41
HETATM   41  O   UNL     1      41.342 -10.249  -3.598  1.00  0.00    -0.355 OA
HETATM   42  C   UNL     1      42.147 -11.152  -4.348  1.00  0.00     0.210 C 
ENDBRANCH  38  41
ENDBRANCH   8  33
TORSDOF 8
ENDMDL
MODEL 7
REMARK VINA RESULT:      -8.2      2.913      5.510
REMARK  8 active torsions:
REMARK  status: ('A' for Active; 'I' for Inactive)
REMARK    1  A    between atoms: C_2  and  N_3 
REMARK    2  A    between atoms: C_2  and  C_36 
REMARK       I    between atoms: N_3  and  C_4 
REMARK    3  A    between atoms: C_4  and  C_5 
REMARK    4  A    between atoms: C_5  and  N_6 
REMARK       I    between atoms: N_12  and  C_13 
REMARK    5  A    between atoms: C_13  and  C_14 
REMARK    6  A    between atoms: C_15  and  O_16 
REMARK    7  A    between atoms: C_21  and  O_22 
REMARK    8  A    between atoms: N_27  and  C_28 
ROOT
HETATM    1  N   UNL     1      40.962 -15.347   0.843  1.00  0.00    -0.325 N 
HETATM    2  C   UNL     1      40.003 -14.557   1.438  1.00  0.00     0.250 C 
HETATM    3  O   UNL     1      39.289 -14.892   2.371  1.00  0.00    -0.270 OA
HETATM    4  C   UNL     1      39.911 -13.258   0.614  1.00  0.00     0.118 C 
HETATM    5  C   UNL     1      39.851 -12.049   1.564  1.00  0.00     0.061 C 
HETATM    6  C   UNL     1      38.443 -11.766   2.076  1.00  0.00     0.129 C 
HETATM    7  N   UNL     1      37.458 -11.855   1.009  1.00  0.00    -0.348 N 
HETATM    8  C   UNL     1      36.988 -10.680   0.409  1.00  0.00     0.259 C 
HETATM    9  O   UNL     1      37.449  -9.569   0.653  1.00  0.00    -0.267 OA
HETATM   10  C   UNL     1      37.373 -13.171   0.394  1.00  0.00     0.129 C 
HETATM   11  C   UNL     1      38.692 -13.471  -0.315  1.00  0.00     0.061 C 
HETATM   12  N   UNL     1      41.188 -13.311  -0.160  1.00  0.00    -0.346 N 
HETATM   13  C   UNL     1      41.760 -14.650  -0.120  1.00  0.00     0.254 C 
ENDROOT
BRANCH  12  14
HETATM   14  C   UNL     1      41.667 -12.371  -1.056  1.00  0.00     0.032 A 
HETATM   15  C   UNL     1      42.532 -11.327  -0.688  1.00  0.00     0.029 A 
HETATM   16  C   UNL     1      43.028 -10.393  -1.611  1.00  0.00     0.002 A 
HETATM   17  C   UNL     1      42.674 -10.480  -2.949  1.00  0.00     0.000 A 
HETATM   18  C   UNL     1      41.825 -11.498  -3.357  1.00  0.00     0.002 A 
HETATM   19  C   UNL     1      41.334 -12.423  -2.424  1.00  0.00     0.029 A 
ENDBRANCH  12  14
BRANCH   1  20
HETATM   20  C   UNL     1      41.074 -16.783   1.025  1.00  0.00     0.230 C 
BRANCH  20  21
HETATM   21  C   UNL     1      42.447 -17.294   1.456  1.00  0.00     0.236 C 
HETATM   22  N   UNL     1      42.563 -17.555   2.802  1.00  0.00    -0.351 N 
HETATM   23  H   UNL     1      41.693 -17.528   3.321  1.00  0.00     0.163 HD
HETATM   24  O   UNL     1      43.307 -17.559   0.620  1.00  0.00    -0.272 OA
BRANCH  22  25
HETATM   25  C   UNL     1      43.616 -18.376   3.389  1.00  0.00     0.113 C 
HETATM   26  C   UNL     1      43.640 -19.834   2.922  1.00  0.00     0.037 C 
BRANCH  25  27
HETATM   27  C   UNL     1      43.637 -18.208   4.899  1.00  0.00    -0.036 A 
HETATM   28  C   UNL     1      44.814 -18.482   5.617  1.00  0.00     0.009 A 
HETATM   29  C   UNL     1      44.869 -18.296   6.999  1.00  0.00     0.001 A 
HETATM   30  C   UNL     1      43.753 -17.825   7.686  1.00  0.00     0.000 A 
HETATM   31  C   UNL     1      42.582 -17.539   6.990  1.00  0.00     0.001 A 
HETATM   32  C   UNL     1      42.523 -17.727   5.607  1.00  0.00     0.009 A 
ENDBRANCH  25  27
ENDBRANCH  22  25
ENDBRANCH  20  21
ENDBRANCH   1  20
BRANCH   8  33
HETATM   33  C   UNL     1      35.795 -10.773  -0.467  1.00  0.00     0.098 A 
HETATM   34  C   UNL     1      36.001 -10.858  -1.854  1.00  0.00     0.086 A 
HETATM   35  C   UNL     1      34.913 -10.945  -2.723  1.00  0.00     0.038 A 
HETATM   36  C   UNL     1      33.618 -10.920  -2.215  1.00  0.00     0.005 A 
HETATM   37  C   UNL     1      33.406 -10.846  -0.834  1.00  0.00     0.038 A 
HETATM   38  C   UNL     1      34.490 -10.788   0.054  1.00  0.00     0.086 A 
BRANCH  34  39
HETATM   39  O   UNL     1      37.256 -10.975  -2.391  1.00  0.00    -0.355 OA
HETATM   40  C   UNL     1      37.302 -12.003  -3.377  1.00  0.00     0.210 C 
ENDBRANCH  34  39
BRANCH  38  41
HETATM   41  O   UNL     1      34.360 -10.747   1.417  1.00  0.00    -0.355 OA
HETATM   42  C   UNL     1      33.190 -10.141   1.954  1.00  0.00     0.210 C 
ENDBRANCH  38  41
ENDBRANCH   8  33
TORSDOF 8
ENDMDL
MODEL 8
REMARK VINA RESULT:      -8.2      2.896      5.228
REMARK  8 active torsions:
REMARK  status: ('A' for Active; 'I' for Inactive)
REMARK    1  A    between atoms: C_2  and  N_3 
REMARK    2  A    between atoms: C_2  and  C_36 
REMARK       I    between atoms: N_3  and  C_4 
REMARK    3  A    between atoms: C_4  and  C_5 
REMARK    4  A    between atoms: C_5  and  N_6 
REMARK       I    between atoms: N_12  and  C_13 
REMARK    5  A    between atoms: C_13  and  C_14 
REMARK    6  A    between atoms: C_15  and  O_16 
REMARK    7  A    between atoms: C_21  and  O_22 
REMARK    8  A    between atoms: N_27  and  C_28 
ROOT
HETATM    1  N   UNL     1      41.099 -15.340   0.860  1.00  0.00    -0.325 N 
HETATM    2  C   UNL     1      40.076 -14.624   1.444  1.00  0.00     0.250 C 
HETATM    3  O   UNL     1      39.303 -15.054   2.286  1.00  0.00    -0.270 OA
HETATM    4  C   UNL     1      40.010 -13.261   0.728  1.00  0.00     0.118 C 
HETATM    5  C   UNL     1      39.845 -12.141   1.770  1.00  0.00     0.061 C 
HETATM    6  C   UNL     1      38.395 -11.933   2.193  1.00  0.00     0.129 C 
HETATM    7  N   UNL     1      37.496 -11.951   1.049  1.00  0.00    -0.348 N 
HETATM    8  C   UNL     1      37.040 -10.739   0.517  1.00  0.00     0.259 C 
HETATM    9  O   UNL     1      37.449  -9.643   0.889  1.00  0.00    -0.267 OA
HETATM   10  C   UNL     1      37.494 -13.210   0.321  1.00  0.00     0.129 C 
HETATM   11  C   UNL     1      38.871 -13.419  -0.307  1.00  0.00     0.061 C 
HETATM   12  N   UNL     1      41.343 -13.220   0.053  1.00  0.00    -0.346 N 
HETATM   13  C   UNL     1      41.948 -14.545   0.025  1.00  0.00     0.254 C 
ENDROOT
BRANCH  12  14
HETATM   14  C   UNL     1      41.861 -12.196  -0.719  1.00  0.00     0.032 A 
HETATM   15  C   UNL     1      42.530 -11.084  -0.179  1.00  0.00     0.029 A 
HETATM   16  C   UNL     1      43.070 -10.064  -0.975  1.00  0.00     0.002 A 
HETATM   17  C   UNL     1      42.963 -10.126  -2.357  1.00  0.00     0.000 A 
HETATM   18  C   UNL     1      42.314 -11.208  -2.933  1.00  0.00     0.002 A 
HETATM   19  C   UNL     1      41.776 -12.220  -2.125  1.00  0.00     0.029 A 
ENDBRANCH  12  14
BRANCH   1  20
HETATM   20  C   UNL     1      41.237 -16.784   0.928  1.00  0.00     0.230 C 
BRANCH  20  21
HETATM   21  C   UNL     1      42.597 -17.300   1.390  1.00  0.00     0.236 C 
HETATM   22  N   UNL     1      42.691 -17.532   2.744  1.00  0.00    -0.351 N 
HETATM   23  H   UNL     1      41.813 -17.484   3.249  1.00  0.00     0.163 HD
HETATM   24  O   UNL     1      43.467 -17.594   0.574  1.00  0.00    -0.272 OA
BRANCH  22  25
HETATM   25  C   UNL     1      43.725 -18.352   3.364  1.00  0.00     0.113 C 
HETATM   26  C   UNL     1      43.727 -19.825   2.943  1.00  0.00     0.037 C 
BRANCH  25  27
HETATM   27  C   UNL     1      43.738 -18.137   4.868  1.00  0.00    -0.036 A 
HETATM   28  C   UNL     1      42.586 -17.663   5.517  1.00  0.00     0.009 A 
HETATM   29  C   UNL     1      42.561 -17.496   6.903  1.00  0.00     0.001 A 
HETATM   30  C   UNL     1      43.684 -17.809   7.664  1.00  0.00     0.000 A 
HETATM   31  C   UNL     1      44.832 -18.290   7.039  1.00  0.00     0.001 A 
HETATM   32  C   UNL     1      44.859 -18.455   5.653  1.00  0.00     0.009 A 
ENDBRANCH  25  27
ENDBRANCH  22  25
ENDBRANCH  20  21
ENDBRANCH   1  20
BRANCH   8  33
HETATM   33  C   UNL     1      35.919 -10.781  -0.454  1.00  0.00     0.098 A 
HETATM   34  C   UNL     1      34.609 -10.799   0.051  1.00  0.00     0.086 A 
HETATM   35  C   UNL     1      33.519 -10.841  -0.819  1.00  0.00     0.038 A 
HETATM   36  C   UNL     1      33.733 -10.894  -2.193  1.00  0.00     0.005 A 
HETATM   37  C   UNL     1      35.035 -10.866  -2.703  1.00  0.00     0.038 A 
HETATM   38  C   UNL     1      36.140 -10.794  -1.842  1.00  0.00     0.086 A 
BRANCH  34  39
HETATM   39  O   UNL     1      34.351 -10.659   1.390  1.00  0.00    -0.355 OA
HETATM   40  C   UNL     1      33.294  -9.730   1.617  1.00  0.00     0.210 C 
ENDBRANCH  34  39
BRANCH  38  41
HETATM   41  O   UNL     1      37.439 -10.731  -2.270  1.00  0.00    -0.355 OA
HETATM   42  C   UNL     1      37.813 -11.541  -3.380  1.00  0.00     0.210 C 
ENDBRANCH  38  41
ENDBRANCH   8  33
TORSDOF 8
ENDMDL
MODEL 9
REMARK VINA RESULT:      -8.1      2.546      5.732
REMARK  8 active torsions:
REMARK  status: ('A' for Active; 'I' for Inactive)
REMARK    1  A    between atoms: C_2  and  N_3 
REMARK    2  A    between atoms: C_2  and  C_36 
REMARK       I    between atoms: N_3  and  C_4 
REMARK    3  A    between atoms: C_4  and  C_5 
REMARK    4  A    between atoms: C_5  and  N_6 
REMARK       I    between atoms: N_12  and  C_13 
REMARK    5  A    between atoms: C_13  and  C_14 
REMARK    6  A    between atoms: C_15  and  O_16 
REMARK    7  A    between atoms: C_21  and  O_22 
REMARK    8  A    between atoms: N_27  and  C_28 
ROOT
HETATM    1  N   UNL     1      40.852 -15.041   3.633  1.00  0.00    -0.325 N 
HETATM    2  C   UNL     1      41.071 -13.722   3.967  1.00  0.00     0.250 C 
HETATM    3  O   UNL     1      41.684 -13.333   4.949  1.00  0.00    -0.270 OA
HETATM    4  C   UNL     1      40.279 -12.863   2.962  1.00  0.00     0.118 C 
HETATM    5  C   UNL     1      41.154 -11.691   2.485  1.00  0.00     0.061 C 
HETATM    6  C   UNL     1      41.131 -10.505   3.442  1.00  0.00     0.129 C 
HETATM    7  N   UNL     1      39.781 -10.216   3.904  1.00  0.00    -0.348 N 
HETATM    8  C   UNL     1      39.063  -9.171   3.310  1.00  0.00     0.259 C 
HETATM    9  O   UNL     1      39.464  -8.549   2.331  1.00  0.00    -0.267 OA
HETATM   10  C   UNL     1      39.167 -11.306   4.646  1.00  0.00     0.129 C 
HETATM   11  C   UNL     1      38.973 -12.495   3.708  1.00  0.00     0.061 C 
HETATM   12  N   UNL     1      40.011 -13.854   1.876  1.00  0.00    -0.346 N 
HETATM   13  C   UNL     1      40.243 -15.212   2.348  1.00  0.00     0.254 C 
ENDROOT
BRANCH  12  14
HETATM   14  C   UNL     1      39.354 -13.631   0.679  1.00  0.00     0.032 A 
HETATM   15  C   UNL     1      39.852 -14.054  -0.565  1.00  0.00     0.029 A 
HETATM   16  C   UNL     1      39.164 -13.840  -1.769  1.00  0.00     0.002 A 
HETATM   17  C   UNL     1      37.937 -13.193  -1.766  1.00  0.00     0.000 A 
HETATM   18  C   UNL     1      37.406 -12.762  -0.560  1.00  0.00     0.002 A 
HETATM   19  C   UNL     1      38.106 -12.980   0.637  1.00  0.00     0.029 A 
ENDBRANCH  12  14
BRANCH   1  20
HETATM   20  C   UNL     1      41.050 -16.162   4.534  1.00  0.00     0.230 C 
BRANCH  20  21
HETATM   21  C   UNL     1      42.394 -16.878   4.419  1.00  0.00     0.236 C 
HETATM   22  N   UNL     1      42.587 -17.542   3.229  1.00  0.00    -0.351 N 
HETATM   23  H   UNL     1      41.892 -17.353   2.514  1.00  0.00     0.163 HD
HETATM   24  O   UNL     1      43.254 -16.741   5.285  1.00  0.00    -0.272 OA
BRANCH  22  25
HETATM   25  C   UNL     1      43.889 -17.976   2.736  1.00  0.00     0.113 C 
HETATM   26  C   UNL     1      44.263 -17.459   1.344  1.00  0.00     0.037 C 
BRANCH  25  27
HETATM   27  C   UNL     1      44.041 -19.480   2.900  1.00  0.00    -0.036 A 
HETATM   28  C   UNL     1      43.661 -20.340   1.856  1.00  0.00     0.009 A 
HETATM   29  C   UNL     1      43.830 -21.721   1.969  1.00  0.00     0.001 A 
HETATM   30  C   UNL     1      44.388 -22.264   3.123  1.00  0.00     0.000 A 
HETATM   31  C   UNL     1      44.779 -21.427   4.164  1.00  0.00     0.001 A 
HETATM   32  C   UNL     1      44.609 -20.045   4.054  1.00  0.00     0.009 A 
ENDBRANCH  25  27
ENDBRANCH  22  25
ENDBRANCH  20  21
ENDBRANCH   1  20
BRANCH   8  33
HETATM   33  C   UNL     1      37.817  -8.716   3.974  1.00  0.00     0.098 A 
HETATM   34  C   UNL     1      36.590  -9.113   3.418  1.00  0.00     0.086 A 
HETATM   35  C   UNL     1      35.389  -8.710   4.002  1.00  0.00     0.038 A 
HETATM   36  C   UNL     1      35.407  -7.888   5.124  1.00  0.00     0.005 A 
HETATM   37  C   UNL     1      36.625  -7.498   5.690  1.00  0.00     0.038 A 
HETATM   38  C   UNL     1      37.841  -7.918   5.131  1.00  0.00     0.086 A 
BRANCH  34  39
HETATM   39  O   UNL     1      36.526  -9.992   2.368  1.00  0.00    -0.355 OA
HETATM   40  C   UNL     1      35.358  -9.771   1.582  1.00  0.00     0.210 C 
ENDBRANCH  34  39
BRANCH  38  41
HETATM   41  O   UNL     1      39.070  -7.603   5.648  1.00  0.00    -0.355 OA
HETATM   42  C   UNL     1      39.411  -8.137   6.923  1.00  0.00     0.210 C 
ENDBRANCH  38  41
ENDBRANCH   8  33
TORSDOF 8
ENDMDL
MODEL 10
REMARK VINA RESULT:      -8.1      3.551      8.471
REMARK  8 active torsions:
REMARK  status: ('A' for Active; 'I' for Inactive)
REMARK    1  A    between atoms: C_2  and  N_3 
REMARK    2  A    between atoms: C_2  and  C_36 
REMARK       I    between atoms: N_3  and  C_4 
REMARK    3  A    between atoms: C_4  and  C_5 
REMARK    4  A    between atoms: C_5  and  N_6 
REMARK       I    between atoms: N_12  and  C_13 
REMARK    5  A    between atoms: C_13  and  C_14 
REMARK    6  A    between atoms: C_15  and  O_16 
REMARK    7  A    between atoms: C_21  and  O_22 
REMARK    8  A    between atoms: N_27  and  C_28 
ROOT
HETATM    1  N   UNL     1      41.230 -11.164   5.013  1.00  0.00    -0.325 N 
HETATM    2  C   UNL     1      41.373 -12.395   5.616  1.00  0.00     0.250 C 
HETATM    3  O   UNL     1      41.993 -12.609   6.646  1.00  0.00    -0.270 OA
HETATM    4  C   UNL     1      40.741 -13.438   4.674  1.00  0.00     0.118 C 
HETATM    5  C   UNL     1      39.885 -14.419   5.493  1.00  0.00     0.061 C 
HETATM    6  C   UNL     1      40.702 -15.546   6.113  1.00  0.00     0.129 C 
HETATM    7  N   UNL     1      41.664 -16.092   5.168  1.00  0.00    -0.348 N 
HETATM    8  C   UNL     1      41.366 -17.286   4.499  1.00  0.00     0.259 C 
HETATM    9  O   UNL     1      40.277 -17.848   4.577  1.00  0.00    -0.267 OA
HETATM   10  C   UNL     1      42.650 -15.127   4.707  1.00  0.00     0.129 C 
HETATM   11  C   UNL     1      41.940 -14.041   3.901  1.00  0.00     0.061 C 
HETATM   12  N   UNL     1      39.917 -12.567   3.783  1.00  0.00    -0.346 N 
HETATM   13  C   UNL     1      40.322 -11.173   3.905  1.00  0.00     0.254 C 
ENDROOT
BRANCH  12  14
HETATM   14  C   UNL     1      39.088 -12.968   2.750  1.00  0.00     0.032 A 
HETATM   15  C   UNL     1      38.223 -12.093   2.070  1.00  0.00     0.029 A 
HETATM   16  C   UNL     1      37.405 -12.509   1.010  1.00  0.00     0.002 A 
HETATM   17  C   UNL     1      37.429 -13.829   0.586  1.00  0.00     0.000 A 
HETATM   18  C   UNL     1      38.271 -14.726   1.225  1.00  0.00     0.002 A 
HETATM   19  C   UNL     1      39.083 -14.298   2.287  1.00  0.00     0.029 A 
ENDBRANCH  12  14
BRANCH   1  20
HETATM   20  C   UNL     1      42.026  -9.993   5.332  1.00  0.00     0.230 C 
BRANCH  20  21
HETATM   21  C   UNL     1      41.562  -9.182   6.540  1.00  0.00     0.236 C 
HETATM   22  N   UNL     1      40.978  -9.928   7.538  1.00  0.00    -0.351 N 
HETATM   23  H   UNL     1      41.062 -10.933   7.428  1.00  0.00     0.163 HD
HETATM   24  O   UNL     1      41.824  -7.986   6.630  1.00  0.00    -0.272 OA
BRANCH  22  25
HETATM   25  C   UNL     1      40.795  -9.462   8.908  1.00  0.00     0.113 C 
HETATM   26  C   UNL     1      40.317  -8.014   9.043  1.00  0.00     0.037 C 
BRANCH  25  27
HETATM   27  C   UNL     1      42.019  -9.792   9.746  1.00  0.00    -0.036 A 
HETATM   28  C   UNL     1      42.149  -9.253  11.037  1.00  0.00     0.009 A 
HETATM   29  C   UNL     1      43.244  -9.574  11.840  1.00  0.00     0.001 A 
HETATM   30  C   UNL     1      44.224 -10.445  11.370  1.00  0.00     0.000 A 
HETATM   31  C   UNL     1      44.107 -10.996  10.097  1.00  0.00     0.001 A 
HETATM   32  C   UNL     1      43.014 -10.674   9.291  1.00  0.00     0.009 A 
ENDBRANCH  25  27
ENDBRANCH  22  25
ENDBRANCH  20  21
ENDBRANCH   1  20
BRANCH   8  33
HETATM   33  C   UNL     1      42.460 -17.966   3.764  1.00  0.00     0.098 A 
HETATM   34  C   UNL     1      43.346 -18.773   4.497  1.00  0.00     0.086 A 
HETATM   35  C   UNL     1      44.394 -19.432   3.854  1.00  0.00     0.038 A 
HETATM   36  C   UNL     1      44.578 -19.267   2.485  1.00  0.00     0.005 A 
HETATM   37  C   UNL     1      43.694 -18.474   1.747  1.00  0.00     0.038 A 
HETATM   38  C   UNL     1      42.618 -17.828   2.374  1.00  0.00     0.086 A 
BRANCH  34  39
HETATM   39  O   UNL     1      43.150 -19.033   5.828  1.00  0.00    -0.355 OA
HETATM   40  C   UNL     1      44.235 -18.545   6.614  1.00  0.00     0.210 C 
ENDBRANCH  34  39
BRANCH  38  41
HETATM   41  O   UNL     1      41.695 -17.063   1.713  1.00  0.00    -0.355 OA
HETATM   42  C   UNL     1      42.174 -16.132   0.747  1.00  0.00     0.210 C 
ENDBRANCH  38  41
ENDBRANCH   8  33
TORSDOF 8
ENDMDL
