MODEL 1
REMARK VINA RESULT:      -8.9      0.000      0.000
REMARK  3 active torsions:
REMARK  status: ('A' for Active; 'I' for Inactive)
REMARK    1  A    between atoms: N_12  and  C_13 
REMARK    2  A    between atoms: C_13  and  C_14 
REMARK       I    between atoms: C_14  and  N_15 
REMARK    3  A    between atoms: N_15  and  C_16 
ROOT
HETATM    1  C   UNL     1      45.287 -22.639   5.101  1.00  0.00     0.048 C 
HETATM    2  C   UNL     1      44.652 -21.284   5.221  1.00  0.00    -0.061 A 
HETATM    3  C   UNL     1      44.568 -20.434   4.106  1.00  0.00     0.021 A 
HETATM    4  C   UNL     1      43.964 -19.167   4.235  1.00  0.00     0.005 A 
HETATM    5  C   UNL     1      43.466 -18.780   5.485  1.00  0.00     0.044 A 
HETATM    6  N   UNL     1      42.919 -17.521   5.342  1.00  0.00    -0.350 N 
HETATM    7  H   UNL     1      42.469 -16.987   6.075  1.00  0.00     0.166 HD
HETATM    8  C   UNL     1      43.051 -17.108   4.046  1.00  0.00     0.116 A 
HETATM    9  C   UNL     1      43.698 -18.096   3.346  1.00  0.00     0.028 A 
HETATM   10  C   UNL     1      42.598 -15.887   3.448  1.00  0.00     0.291 A 
HETATM   11  O   UNL     1      41.988 -15.025   4.071  1.00  0.00    -0.264 OA
HETATM   12  N   UNL     1      42.939 -15.787   2.085  1.00  0.00    -0.224 N 
HETATM   13  N   UNL     1      43.579 -16.808   1.349  1.00  0.00    -0.180 NA
HETATM   14  C   UNL     1      43.949 -17.903   1.948  1.00  0.00     0.153 A 
HETATM   15  C   UNL     1      43.552 -19.602   6.612  1.00  0.00     0.031 A 
HETATM   16  C   UNL     1      44.152 -20.858   6.457  1.00  0.00     0.009 A 
ENDROOT
BRANCH  12  17
HETATM   17  C   UNL     1      42.367 -14.704   1.299  1.00  0.00     0.258 C 
BRANCH  17  18
HETATM   18  C   UNL     1      41.184 -14.925   0.336  1.00  0.00     0.244 C 
HETATM   19  N   UNL     1      41.145 -14.298  -0.918  1.00  0.00    -0.321 N 
HETATM   20  C   UNL     1      42.045 -13.211  -1.287  1.00  0.00     0.159 C 
HETATM   21  O   UNL     1      40.357 -15.785   0.677  1.00  0.00    -0.271 OA
BRANCH  19  22
HETATM   22  C   UNL     1      40.166 -14.688  -1.901  1.00  0.00     0.036 A 
HETATM   23  C   UNL     1      40.458 -15.665  -2.864  1.00  0.00     0.029 A 
HETATM   24  C   UNL     1      39.530 -16.007  -3.854  1.00  0.00     0.002 A 
HETATM   25  C   UNL     1      38.287 -15.381  -3.892  1.00  0.00     0.000 A 
HETATM   26  C   UNL     1      37.975 -14.415  -2.940  1.00  0.00     0.002 A 
HETATM   27  C   UNL     1      38.909 -14.067  -1.957  1.00  0.00     0.029 A 
ENDBRANCH  19  22
ENDBRANCH  17  18
ENDBRANCH  12  17
TORSDOF 3
ENDMDL
MODEL 2
REMARK VINA RESULT:      -8.7      1.962      2.581
REMARK  3 active torsions:
REMARK  status: ('A' for Active; 'I' for Inactive)
REMARK    1  A    between atoms: N_12  and  C_13 
REMARK    2  A    between atoms: C_13  and  C_14 
REMARK       I    between atoms: C_14  and  N_15 
REMARK    3  A    between atoms: N_15  and  C_16 
ROOT
HETATM    1  C   UNL     1      44.669 -22.010   1.993  1.00  0.00     0.048 C 
HETATM    2  C   UNL     1      44.228 -20.752   2.683  1.00  0.00    -0.061 A 
HETATM    3  C   UNL     1      43.300 -19.891   2.073  1.00  0.00     0.021 A 
HETATM    4  C   UNL     1      42.893 -18.716   2.737  1.00  0.00     0.005 A 
HETATM    5  C   UNL     1      43.435 -18.429   3.995  1.00  0.00     0.044 A 
HETATM    6  N   UNL     1      42.869 -17.248   4.431  1.00  0.00    -0.350 N 
HETATM    7  H   UNL     1      43.058 -16.796   5.317  1.00  0.00     0.166 HD
HETATM    8  C   UNL     1      41.989 -16.788   3.493  1.00  0.00     0.116 A 
HETATM    9  C   UNL     1      41.991 -17.665   2.438  1.00  0.00     0.028 A 
HETATM   10  C   UNL     1      41.159 -15.620   3.544  1.00  0.00     0.291 A 
HETATM   11  O   UNL     1      41.135 -14.861   4.506  1.00  0.00    -0.264 OA
HETATM   12  N   UNL     1      40.394 -15.441   2.374  1.00  0.00    -0.224 N 
HETATM   13  N   UNL     1      40.368 -16.353   1.296  1.00  0.00    -0.180 NA
HETATM   14  C   UNL     1      41.132 -17.406   1.319  1.00  0.00     0.153 A 
HETATM   15  C   UNL     1      44.370 -19.262   4.616  1.00  0.00     0.031 A 
HETATM   16  C   UNL     1      44.755 -20.425   3.938  1.00  0.00     0.009 A 
ENDROOT
BRANCH  12  17
HETATM   17  C   UNL     1      39.357 -14.422   2.368  1.00  0.00     0.258 C 
BRANCH  17  18
HETATM   18  C   UNL     1      38.576 -14.053   1.091  1.00  0.00     0.244 C 
HETATM   19  N   UNL     1      39.194 -13.361   0.039  1.00  0.00    -0.321 N 
HETATM   20  C   UNL     1      40.492 -12.711   0.176  1.00  0.00     0.159 C 
HETATM   21  O   UNL     1      37.432 -14.525   0.996  1.00  0.00    -0.271 OA
BRANCH  19  22
HETATM   22  C   UNL     1      38.536 -13.228  -1.236  1.00  0.00     0.036 A 
HETATM   23  C   UNL     1      37.700 -12.135  -1.508  1.00  0.00     0.029 A 
HETATM   24  C   UNL     1      37.015 -12.031  -2.725  1.00  0.00     0.002 A 
HETATM   25  C   UNL     1      37.164 -13.017  -3.695  1.00  0.00     0.000 A 
HETATM   26  C   UNL     1      37.995 -14.106  -3.449  1.00  0.00     0.002 A 
HETATM   27  C   UNL     1      38.670 -14.213  -2.227  1.00  0.00     0.029 A 
ENDBRANCH  19  22
ENDBRANCH  17  18
ENDBRANCH  12  17
TORSDOF 3
ENDMDL
MODEL 3
REMARK VINA RESULT:      -8.4      7.797     10.240
REMARK  3 active torsions:
REMARK  status: ('A' for Active; 'I' for Inactive)
REMARK    1  A    between atoms: N_12  and  C_13 
REMARK    2  A    between atoms: C_13  and  C_14 
REMARK       I    between atoms: C_14  and  N_15 
REMARK    3  A    between atoms: N_15  and  C_16 
ROOT
HETATM    1  C   UNL     1      42.081  -9.552  15.881  1.00  0.00     0.048 C 
HETATM    2  C   UNL     1      42.029  -9.594  14.381  1.00  0.00    -0.061 A 
HETATM    3  C   UNL     1      42.872 -10.458  13.662  1.00  0.00     0.021 A 
HETATM    4  C   UNL     1      42.808 -10.488  12.254  1.00  0.00     0.005 A 
HETATM    5  C   UNL     1      41.903  -9.643  11.601  1.00  0.00     0.044 A 
HETATM    6  N   UNL     1      42.024  -9.874  10.245  1.00  0.00    -0.350 N 
HETATM    7  H   UNL     1      41.486  -9.418   9.520  1.00  0.00     0.166 HD
HETATM    8  C   UNL     1      42.968 -10.837  10.027  1.00  0.00     0.116 A 
HETATM    9  C   UNL     1      43.473 -11.226  11.243  1.00  0.00     0.028 A 
HETATM   10  C   UNL     1      43.390 -11.407   8.781  1.00  0.00     0.291 A 
HETATM   11  O   UNL     1      42.908 -11.082   7.702  1.00  0.00    -0.264 OA
HETATM   12  N   UNL     1      44.415 -12.362   8.936  1.00  0.00    -0.224 N 
HETATM   13  N   UNL     1      44.921 -12.788  10.184  1.00  0.00    -0.180 NA
HETATM   14  C   UNL     1      44.481 -12.244  11.282  1.00  0.00     0.153 A 
HETATM   15  C   UNL     1      41.065  -8.765  12.294  1.00  0.00     0.031 A 
HETATM   16  C   UNL     1      41.145  -8.757  13.692  1.00  0.00     0.009 A 
ENDROOT
BRANCH  12  17
HETATM   17  C   UNL     1      44.795 -13.170   7.788  1.00  0.00     0.258 C 
BRANCH  17  18
HETATM   18  C   UNL     1      44.020 -14.441   7.386  1.00  0.00     0.244 C 
HETATM   19  N   UNL     1      43.377 -14.532   6.142  1.00  0.00    -0.321 N 
HETATM   20  C   UNL     1      43.158 -13.378   5.279  1.00  0.00     0.159 C 
HETATM   21  O   UNL     1      44.121 -15.408   8.156  1.00  0.00    -0.271 OA
BRANCH  19  22
HETATM   22  C   UNL     1      42.861 -15.794   5.678  1.00  0.00     0.036 A 
HETATM   23  C   UNL     1      43.634 -16.637   4.864  1.00  0.00     0.029 A 
HETATM   24  C   UNL     1      43.116 -17.837   4.365  1.00  0.00     0.002 A 
HETATM   25  C   UNL     1      41.815 -18.220   4.680  1.00  0.00     0.000 A 
HETATM   26  C   UNL     1      41.034 -17.403   5.492  1.00  0.00     0.002 A 
HETATM   27  C   UNL     1      41.551 -16.198   5.981  1.00  0.00     0.029 A 
ENDBRANCH  19  22
ENDBRANCH  17  18
ENDBRANCH  12  17
TORSDOF 3
ENDMDL
MODEL 4
REMARK VINA RESULT:      -8.3      2.839      3.401
REMARK  3 active torsions:
REMARK  status: ('A' for Active; 'I' for Inactive)
REMARK    1  A    between atoms: N_12  and  C_13 
REMARK    2  A    between atoms: C_13  and  C_14 
REMARK       I    between atoms: C_14  and  N_15 
REMARK    3  A    between atoms: N_15  and  C_16 
ROOT
HETATM    1  C   UNL     1      44.428 -21.964   1.727  1.00  0.00     0.048 C 
HETATM    2  C   UNL     1      44.354 -20.858   2.738  1.00  0.00    -0.061 A 
HETATM    3  C   UNL     1      43.864 -19.591   2.376  1.00  0.00     0.021 A 
HETATM    4  C   UNL     1      43.797 -18.564   3.339  1.00  0.00     0.005 A 
HETATM    5  C   UNL     1      44.230 -18.832   4.642  1.00  0.00     0.044 A 
HETATM    6  N   UNL     1      44.047 -17.682   5.384  1.00  0.00    -0.350 N 
HETATM    7  H   UNL     1      44.259 -17.576   6.368  1.00  0.00     0.166 HD
HETATM    8  C   UNL     1      43.510 -16.707   4.593  1.00  0.00     0.116 A 
HETATM    9  C   UNL     1      43.354 -17.219   3.329  1.00  0.00     0.028 A 
HETATM   10  C   UNL     1      43.128 -15.373   4.955  1.00  0.00     0.291 A 
HETATM   11  O   UNL     1      43.235 -14.935   6.095  1.00  0.00    -0.264 OA
HETATM   12  N   UNL     1      42.632 -14.632   3.864  1.00  0.00    -0.224 N 
HETATM   13  N   UNL     1      42.442 -15.157   2.567  1.00  0.00    -0.180 NA
HETATM   14  C   UNL     1      42.792 -16.384   2.308  1.00  0.00     0.153 A 
HETATM   15  C   UNL     1      44.735 -20.079   5.023  1.00  0.00     0.031 A 
HETATM   16  C   UNL     1      44.788 -21.083   4.049  1.00  0.00     0.009 A 
ENDROOT
BRANCH  12  17
HETATM   17  C   UNL     1      42.015 -13.340   4.121  1.00  0.00     0.258 C 
BRANCH  17  18
HETATM   18  C   UNL     1      40.597 -12.994   3.625  1.00  0.00     0.244 C 
HETATM   19  N   UNL     1      40.397 -12.358   2.391  1.00  0.00    -0.321 N 
HETATM   20  C   UNL     1      41.482 -11.741   1.635  1.00  0.00     0.159 C 
HETATM   21  O   UNL     1      39.658 -13.436   4.306  1.00  0.00    -0.271 OA
BRANCH  19  22
HETATM   22  C   UNL     1      39.075 -12.251   1.828  1.00  0.00     0.036 A 
HETATM   23  C   UNL     1      38.511 -13.310   1.101  1.00  0.00     0.029 A 
HETATM   24  C   UNL     1      37.251 -13.190   0.505  1.00  0.00     0.002 A 
HETATM   25  C   UNL     1      36.527 -12.008   0.636  1.00  0.00     0.000 A 
HETATM   26  C   UNL     1      37.064 -10.949   1.361  1.00  0.00     0.002 A 
HETATM   27  C   UNL     1      38.330 -11.068   1.946  1.00  0.00     0.029 A 
ENDBRANCH  19  22
ENDBRANCH  17  18
ENDBRANCH  12  17
TORSDOF 3
ENDMDL
MODEL 5
REMARK VINA RESULT:      -8.3      2.114      2.990
REMARK  3 active torsions:
REMARK  status: ('A' for Active; 'I' for Inactive)
REMARK    1  A    between atoms: N_12  and  C_13 
REMARK    2  A    between atoms: C_13  and  C_14 
REMARK       I    between atoms: C_14  and  N_15 
REMARK    3  A    between atoms: N_15  and  C_16 
ROOT
HETATM    1  C   UNL     1      44.704 -22.316   2.936  1.00  0.00     0.048 C 
HETATM    2  C   UNL     1      44.459 -20.892   3.342  1.00  0.00    -0.061 A 
HETATM    3  C   UNL     1      43.899 -19.977   2.435  1.00  0.00     0.021 A 
HETATM    4  C   UNL     1      43.671 -18.645   2.834  1.00  0.00     0.005 A 
HETATM    5  C   UNL     1      44.018 -18.261   4.134  1.00  0.00     0.044 A 
HETATM    6  N   UNL     1      43.683 -16.929   4.277  1.00  0.00    -0.350 N 
HETATM    7  H   UNL     1      43.805 -16.378   5.117  1.00  0.00     0.166 HD
HETATM    8  C   UNL     1      43.134 -16.468   3.114  1.00  0.00     0.116 A 
HETATM    9  C   UNL     1      43.122 -17.499   2.208  1.00  0.00     0.028 A 
HETATM   10  C   UNL     1      42.617 -15.162   2.828  1.00  0.00     0.291 A 
HETATM   11  O   UNL     1      42.596 -14.257   3.655  1.00  0.00    -0.264 OA
HETATM   12  N   UNL     1      42.153 -15.036   1.504  1.00  0.00    -0.224 N 
HETATM   13  N   UNL     1      42.111 -16.097   0.573  1.00  0.00    -0.180 NA
HETATM   14  C   UNL     1      42.579 -17.266   0.902  1.00  0.00     0.153 A 
HETATM   15  C   UNL     1      44.590 -19.149   5.050  1.00  0.00     0.031 A 
HETATM   16  C   UNL     1      44.802 -20.468   4.631  1.00  0.00     0.009 A 
ENDROOT
BRANCH  12  17
HETATM   17  C   UNL     1      41.414 -13.839   1.134  1.00  0.00     0.258 C 
BRANCH  17  18
HETATM   18  C   UNL     1      41.830 -12.952  -0.057  1.00  0.00     0.244 C 
HETATM   19  N   UNL     1      41.142 -13.011  -1.278  1.00  0.00    -0.321 N 
HETATM   20  C   UNL     1      40.196 -14.073  -1.601  1.00  0.00     0.159 C 
HETATM   21  O   UNL     1      42.700 -12.099   0.177  1.00  0.00    -0.271 OA
BRANCH  19  22
HETATM   22  C   UNL     1      41.379 -12.024  -2.299  1.00  0.00     0.036 A 
HETATM   23  C   UNL     1      40.731 -10.780  -2.267  1.00  0.00     0.029 A 
HETATM   24  C   UNL     1      40.916  -9.839  -3.287  1.00  0.00     0.002 A 
HETATM   25  C   UNL     1      41.761 -10.125  -4.354  1.00  0.00     0.000 A 
HETATM   26  C   UNL     1      42.421 -11.349  -4.401  1.00  0.00     0.002 A 
HETATM   27  C   UNL     1      42.226 -12.292  -3.386  1.00  0.00     0.029 A 
ENDBRANCH  19  22
ENDBRANCH  17  18
ENDBRANCH  12  17
TORSDOF 3
ENDMDL
MODEL 6
REMARK VINA RESULT:      -8.3      2.573      3.463
REMARK  3 active torsions:
REMARK  status: ('A' for Active; 'I' for Inactive)
REMARK    1  A    between atoms: N_12  and  C_13 
REMARK    2  A    between atoms: C_13  and  C_14 
REMARK       I    between atoms: C_14  and  N_15 
REMARK    3  A    between atoms: N_15  and  C_16 
ROOT
HETATM    1  C   UNL     1      45.247 -22.590   5.120  1.00  0.00     0.048 C 
HETATM    2  C   UNL     1      44.712 -21.607   4.118  1.00  0.00    -0.061 A 
HETATM    3  C   UNL     1      44.445 -20.280   4.493  1.00  0.00     0.021 A 
HETATM    4  C   UNL     1      43.948 -19.369   3.540  1.00  0.00     0.005 A 
HETATM    5  C   UNL     1      43.723 -19.816   2.232  1.00  0.00     0.044 A 
HETATM    6  N   UNL     1      43.258 -18.741   1.501  1.00  0.00    -0.350 N 
HETATM    7  H   UNL     1      43.020 -18.757   0.517  1.00  0.00     0.166 HD
HETATM    8  C   UNL     1      43.188 -17.637   2.302  1.00  0.00     0.116 A 
HETATM    9  C   UNL     1      43.597 -17.996   3.563  1.00  0.00     0.028 A 
HETATM   10  C   UNL     1      42.793 -16.304   1.953  1.00  0.00     0.291 A 
HETATM   11  O   UNL     1      42.464 -15.982   0.817  1.00  0.00    -0.264 OA
HETATM   12  N   UNL     1      42.814 -15.422   3.052  1.00  0.00    -0.224 N 
HETATM   13  N   UNL     1      43.260 -15.775   4.345  1.00  0.00    -0.180 NA
HETATM   14  C   UNL     1      43.625 -17.000   4.593  1.00  0.00     0.153 A 
HETATM   15  C   UNL     1      43.967 -21.135   1.839  1.00  0.00     0.031 A 
HETATM   16  C   UNL     1      44.465 -22.019   2.804  1.00  0.00     0.009 A 
ENDROOT
BRANCH  12  17
HETATM   17  C   UNL     1      42.639 -13.999   2.808  1.00  0.00     0.258 C 
BRANCH  17  18
HETATM   18  C   UNL     1      41.245 -13.350   2.697  1.00  0.00     0.244 C 
HETATM   19  N   UNL     1      40.797 -12.802   1.486  1.00  0.00    -0.321 N 
HETATM   20  C   UNL     1      41.683 -12.558   0.353  1.00  0.00     0.159 C 
HETATM   21  O   UNL     1      40.508 -13.469   3.687  1.00  0.00    -0.271 OA
BRANCH  19  22
HETATM   22  C   UNL     1      39.420 -12.413   1.324  1.00  0.00     0.036 A 
HETATM   23  C   UNL     1      38.472 -13.307   0.804  1.00  0.00     0.029 A 
HETATM   24  C   UNL     1      37.145 -12.916   0.594  1.00  0.00     0.002 A 
HETATM   25  C   UNL     1      36.740 -11.622   0.910  1.00  0.00     0.000 A 
HETATM   26  C   UNL     1      37.662 -10.722   1.436  1.00  0.00     0.002 A 
HETATM   27  C   UNL     1      38.992 -11.113   1.635  1.00  0.00     0.029 A 
ENDBRANCH  19  22
ENDBRANCH  17  18
ENDBRANCH  12  17
TORSDOF 3
ENDMDL
MODEL 7
REMARK VINA RESULT:      -8.2      1.890      8.451
REMARK  3 active torsions:
REMARK  status: ('A' for Active; 'I' for Inactive)
REMARK    1  A    between atoms: N_12  and  C_13 
REMARK    2  A    between atoms: C_13  and  C_14 
REMARK       I    between atoms: C_14  and  N_15 
REMARK    3  A    between atoms: N_15  and  C_16 
ROOT
HETATM    1  C   UNL     1      37.644 -13.221  -3.594  1.00  0.00     0.048 C 
HETATM    2  C   UNL     1      38.769 -13.054  -2.614  1.00  0.00    -0.061 A 
HETATM    3  C   UNL     1      38.900 -13.928  -1.522  1.00  0.00     0.021 A 
HETATM    4  C   UNL     1      39.965 -13.760  -0.614  1.00  0.00     0.005 A 
HETATM    5  C   UNL     1      40.870 -12.713  -0.821  1.00  0.00     0.044 A 
HETATM    6  N   UNL     1      41.814 -12.776   0.184  1.00  0.00    -0.350 N 
HETATM    7  H   UNL     1      42.605 -12.152   0.289  1.00  0.00     0.166 HD
HETATM    8  C   UNL     1      41.536 -13.828   1.009  1.00  0.00     0.116 A 
HETATM    9  C   UNL     1      40.400 -14.445   0.547  1.00  0.00     0.028 A 
HETATM   10  C   UNL     1      42.268 -14.282   2.155  1.00  0.00     0.291 A 
HETATM   11  O   UNL     1      43.303 -13.749   2.539  1.00  0.00    -0.264 OA
HETATM   12  N   UNL     1      41.665 -15.388   2.786  1.00  0.00    -0.224 N 
HETATM   13  N   UNL     1      40.513 -16.047   2.303  1.00  0.00    -0.180 NA
HETATM   14  C   UNL     1      39.905 -15.596   1.244  1.00  0.00     0.153 A 
HETATM   15  C   UNL     1      40.752 -11.821  -1.892  1.00  0.00     0.031 A 
HETATM   16  C   UNL     1      39.688 -12.012  -2.782  1.00  0.00     0.009 A 
ENDROOT
BRANCH  12  17
HETATM   17  C   UNL     1      42.401 -16.083   3.830  1.00  0.00     0.258 C 
BRANCH  17  18
HETATM   18  C   UNL     1      42.603 -17.612   3.815  1.00  0.00     0.244 C 
HETATM   19  N   UNL     1      43.523 -18.212   2.943  1.00  0.00    -0.321 N 
HETATM   20  C   UNL     1      44.135 -17.499   1.828  1.00  0.00     0.159 C 
HETATM   21  O   UNL     1      42.016 -18.247   4.705  1.00  0.00    -0.271 OA
BRANCH  19  22
HETATM   22  C   UNL     1      43.876 -19.600   3.095  1.00  0.00     0.036 A 
HETATM   23  C   UNL     1      44.501 -20.064   4.263  1.00  0.00     0.029 A 
HETATM   24  C   UNL     1      44.896 -21.400   4.392  1.00  0.00     0.002 A 
HETATM   25  C   UNL     1      44.664 -22.299   3.355  1.00  0.00     0.000 A 
HETATM   26  C   UNL     1      44.038 -21.862   2.192  1.00  0.00     0.002 A 
HETATM   27  C   UNL     1      43.653 -20.523   2.061  1.00  0.00     0.029 A 
ENDBRANCH  19  22
ENDBRANCH  17  18
ENDBRANCH  12  17
TORSDOF 3
ENDMDL
MODEL 8
REMARK VINA RESULT:      -8.2      2.439      3.919
REMARK  3 active torsions:
REMARK  status: ('A' for Active; 'I' for Inactive)
REMARK    1  A    between atoms: N_12  and  C_13 
REMARK    2  A    between atoms: C_13  and  C_14 
REMARK       I    between atoms: C_14  and  N_15 
REMARK    3  A    between atoms: N_15  and  C_16 
ROOT
HETATM    1  C   UNL     1      45.449 -21.998   5.081  1.00  0.00     0.048 C 
HETATM    2  C   UNL     1      44.663 -21.201   4.081  1.00  0.00    -0.061 A 
HETATM    3  C   UNL     1      44.144 -19.941   4.423  1.00  0.00     0.021 A 
HETATM    4  C   UNL     1      43.412 -19.203   3.471  1.00  0.00     0.005 A 
HETATM    5  C   UNL     1      43.213 -19.752   2.199  1.00  0.00     0.044 A 
HETATM    6  N   UNL     1      42.490 -18.837   1.461  1.00  0.00    -0.350 N 
HETATM    7  H   UNL     1      42.206 -18.952   0.496  1.00  0.00     0.166 HD
HETATM    8  C   UNL     1      42.235 -17.732   2.223  1.00  0.00     0.116 A 
HETATM    9  C   UNL     1      42.782 -17.934   3.466  1.00  0.00     0.028 A 
HETATM   10  C   UNL     1      41.548 -16.530   1.851  1.00  0.00     0.291 A 
HETATM   11  O   UNL     1      41.094 -16.342   0.728  1.00  0.00    -0.264 OA
HETATM   12  N   UNL     1      41.445 -15.609   2.912  1.00  0.00    -0.224 N 
HETATM   13  N   UNL     1      42.029 -15.795   4.185  1.00  0.00    -0.180 NA
HETATM   14  C   UNL     1      42.657 -16.903   4.454  1.00  0.00     0.153 A 
HETATM   15  C   UNL     1      43.707 -21.010   1.841  1.00  0.00     0.031 A 
HETATM   16  C   UNL     1      44.434 -21.721   2.803  1.00  0.00     0.009 A 
ENDROOT
BRANCH  12  17
HETATM   17  C   UNL     1      40.961 -14.267   2.627  1.00  0.00     0.258 C 
BRANCH  17  18
HETATM   18  C   UNL     1      41.772 -13.264   1.783  1.00  0.00     0.244 C 
HETATM   19  N   UNL     1      41.192 -12.603   0.690  1.00  0.00    -0.321 N 
HETATM   20  C   UNL     1      39.914 -13.004   0.111  1.00  0.00     0.159 C 
HETATM   21  O   UNL     1      42.900 -12.978   2.212  1.00  0.00    -0.271 OA
BRANCH  19  22
HETATM   22  C   UNL     1      41.872 -11.502   0.056  1.00  0.00     0.036 A 
HETATM   23  C   UNL     1      42.724 -11.712  -1.039  1.00  0.00     0.029 A 
HETATM   24  C   UNL     1      43.428 -10.653  -1.622  1.00  0.00     0.002 A 
HETATM   25  C   UNL     1      43.286  -9.361  -1.124  1.00  0.00     0.000 A 
HETATM   26  C   UNL     1      42.439  -9.130  -0.044  1.00  0.00     0.002 A 
HETATM   27  C   UNL     1      41.743 -10.193   0.544  1.00  0.00     0.029 A 
ENDBRANCH  19  22
ENDBRANCH  17  18
ENDBRANCH  12  17
TORSDOF 3
ENDMDL
MODEL 9
REMARK VINA RESULT:      -8.2      2.489      8.861
REMARK  3 active torsions:
REMARK  status: ('A' for Active; 'I' for Inactive)
REMARK    1  A    between atoms: N_12  and  C_13 
REMARK    2  A    between atoms: C_13  and  C_14 
REMARK       I    between atoms: C_14  and  N_15 
REMARK    3  A    between atoms: N_15  and  C_16 
ROOT
HETATM    1  C   UNL     1      42.375 -10.062  -5.120  1.00  0.00     0.048 C 
HETATM    2  C   UNL     1      42.461 -10.266  -3.636  1.00  0.00    -0.061 A 
HETATM    3  C   UNL     1      42.068 -11.485  -3.059  1.00  0.00     0.021 A 
HETATM    4  C   UNL     1      42.159 -11.662  -1.664  1.00  0.00     0.005 A 
HETATM    5  C   UNL     1      42.637 -10.606  -0.879  1.00  0.00     0.044 A 
HETATM    6  N   UNL     1      42.644 -11.035   0.433  1.00  0.00    -0.350 N 
HETATM    7  H   UNL     1      42.953 -10.490   1.229  1.00  0.00     0.166 HD
HETATM    8  C   UNL     1      42.193 -12.322   0.497  1.00  0.00     0.116 A 
HETATM    9  C   UNL     1      41.879 -12.730  -0.775  1.00  0.00     0.028 A 
HETATM   10  C   UNL     1      42.066 -13.167   1.648  1.00  0.00     0.291 A 
HETATM   11  O   UNL     1      42.384 -12.809   2.777  1.00  0.00    -0.264 OA
HETATM   12  N   UNL     1      41.533 -14.435   1.340  1.00  0.00    -0.224 N 
HETATM   13  N   UNL     1      41.234 -14.873   0.031  1.00  0.00    -0.180 NA
HETATM   14  C   UNL     1      41.389 -14.062  -0.975  1.00  0.00     0.153 A 
HETATM   15  C   UNL     1      43.021  -9.379  -1.428  1.00  0.00     0.031 A 
HETATM   16  C   UNL     1      42.924  -9.230  -2.817  1.00  0.00     0.009 A 
ENDROOT
BRANCH  12  17
HETATM   17  C   UNL     1      41.543 -15.465   2.367  1.00  0.00     0.258 C 
BRANCH  17  18
HETATM   18  C   UNL     1      42.546 -16.635   2.346  1.00  0.00     0.244 C 
HETATM   19  N   UNL     1      42.427 -17.706   3.244  1.00  0.00    -0.321 N 
HETATM   20  C   UNL     1      41.548 -17.669   4.407  1.00  0.00     0.159 C 
HETATM   21  O   UNL     1      43.362 -16.637   1.412  1.00  0.00    -0.271 OA
BRANCH  19  22
HETATM   22  C   UNL     1      43.216 -18.899   3.068  1.00  0.00     0.036 A 
HETATM   23  C   UNL     1      43.009 -19.748   1.970  1.00  0.00     0.029 A 
HETATM   24  C   UNL     1      43.735 -20.936   1.826  1.00  0.00     0.002 A 
HETATM   25  C   UNL     1      44.689 -21.290   2.775  1.00  0.00     0.000 A 
HETATM   26  C   UNL     1      44.916 -20.458   3.867  1.00  0.00     0.002 A 
HETATM   27  C   UNL     1      44.181 -19.276   4.015  1.00  0.00     0.029 A 
ENDBRANCH  19  22
ENDBRANCH  17  18
ENDBRANCH  12  17
TORSDOF 3
ENDMDL
MODEL 10
REMARK VINA RESULT:      -8.0      6.337      9.599
REMARK  3 active torsions:
REMARK  status: ('A' for Active; 'I' for Inactive)
REMARK    1  A    between atoms: N_12  and  C_13 
REMARK    2  A    between atoms: C_13  and  C_14 
REMARK       I    between atoms: C_14  and  N_15 
REMARK    3  A    between atoms: N_15  and  C_16 
ROOT
HETATM    1  C   UNL     1      43.989 -17.824   1.742  1.00  0.00     0.048 C 
HETATM    2  C   UNL     1      42.818 -17.055   2.282  1.00  0.00    -0.061 A 
HETATM    3  C   UNL     1      43.012 -16.024   3.217  1.00  0.00     0.021 A 
HETATM    4  C   UNL     1      41.902 -15.309   3.710  1.00  0.00     0.005 A 
HETATM    5  C   UNL     1      40.622 -15.652   3.258  1.00  0.00     0.044 A 
HETATM    6  N   UNL     1      39.724 -14.803   3.873  1.00  0.00    -0.350 N 
HETATM    7  H   UNL     1      38.722 -14.803   3.731  1.00  0.00     0.166 HD
HETATM    8  C   UNL     1      40.396 -13.937   4.689  1.00  0.00     0.116 A 
HETATM    9  C   UNL     1      41.735 -14.232   4.615  1.00  0.00     0.028 A 
HETATM   10  C   UNL     1      39.867 -12.872   5.488  1.00  0.00     0.291 A 
HETATM   11  O   UNL     1      38.674 -12.590   5.520  1.00  0.00    -0.264 OA
HETATM   12  N   UNL     1      40.859 -12.202   6.232  1.00  0.00    -0.224 N 
HETATM   13  N   UNL     1      42.241 -12.478   6.141  1.00  0.00    -0.180 NA
HETATM   14  C   UNL     1      42.660 -13.448   5.381  1.00  0.00     0.153 A 
HETATM   15  C   UNL     1      40.404 -16.683   2.340  1.00  0.00     0.031 A 
HETATM   16  C   UNL     1      41.523 -17.376   1.862  1.00  0.00     0.009 A 
ENDROOT
BRANCH  12  17
HETATM   17  C   UNL     1      40.503 -10.973   6.923  1.00  0.00     0.258 C 
BRANCH  17  18
HETATM   18  C   UNL     1      41.348 -10.408   8.082  1.00  0.00     0.244 C 
HETATM   19  N   UNL     1      41.002 -10.658   9.418  1.00  0.00    -0.321 N 
HETATM   20  C   UNL     1      39.711 -11.213   9.810  1.00  0.00     0.159 C 
HETATM   21  O   UNL     1      42.409  -9.851   7.762  1.00  0.00    -0.271 OA
BRANCH  19  22
HETATM   22  C   UNL     1      41.915 -10.333  10.483  1.00  0.00     0.036 A 
HETATM   23  C   UNL     1      42.859 -11.266  10.938  1.00  0.00     0.029 A 
HETATM   24  C   UNL     1      43.710 -10.974  12.010  1.00  0.00     0.002 A 
HETATM   25  C   UNL     1      43.638  -9.735  12.640  1.00  0.00     0.000 A 
HETATM   26  C   UNL     1      42.716  -8.791  12.199  1.00  0.00     0.002 A 
HETATM   27  C   UNL     1      41.858  -9.090  11.134  1.00  0.00     0.029 A 
ENDBRANCH  19  22
ENDBRANCH  17  18
ENDBRANCH  12  17
TORSDOF 3
ENDMDL
