MODEL 1
REMARK VINA RESULT:      -9.9      0.000      0.000
REMARK  6 active torsions:
REMARK  status: ('A' for Active; 'I' for Inactive)
REMARK    1  A    between atoms: C_4  and  C_5 
REMARK    2  A    between atoms: C_8  and  C_9 
REMARK    3  A    between atoms: C_9  and  N_10 
REMARK       I    between atoms: N_10  and  C_11 
REMARK       I    between atoms: C_11  and  N_12 
REMARK    4  A    between atoms: N_12  and  C_13 
REMARK    5  A    between atoms: C_16  and  C_17 
REMARK    6  A    between atoms: C_29  and  C_30 
ROOT
HETATM    1  C   UNL     1      40.026 -10.314   5.367  1.00  0.00     0.068 C 
HETATM    2  C   UNL     1      38.861 -11.239   4.897  1.00  0.00     0.001 C 
HETATM    3  C   UNL     1      39.169 -12.736   5.133  1.00  0.00     0.040 C 
HETATM    4  C   UNL     1      40.519 -13.125   4.508  1.00  0.00     0.206 C 
HETATM    5  N   UNL     1      41.011 -11.903   3.730  1.00  0.00    -0.065 N 
HETATM    6  H   UNL     1      41.918 -12.178   3.294  1.00  0.00     0.280 HD
HETATM    7  C   UNL     1      41.309 -10.709   4.614  1.00  0.00     0.246 C 
HETATM    8  C   UNL     1      38.732 -11.062   3.362  1.00  0.00     0.033 C 
HETATM    9  C   UNL     1      40.018 -11.524   2.660  1.00  0.00     0.236 C 
ENDROOT
BRANCH   4  10
HETATM   10  C   UNL     1      41.550 -13.660   5.539  1.00  0.00     0.157 C 
BRANCH  10  11
HETATM   11  N   UNL     1      42.602 -14.523   5.000  1.00  0.00    -0.341 N 
HETATM   12  C   UNL     1      42.438 -15.868   4.749  1.00  0.00     0.320 C 
HETATM   13  N   UNL     1      43.536 -16.399   4.124  1.00  0.00    -0.309 N 
HETATM   14  O   UNL     1      41.434 -16.469   5.113  1.00  0.00    -0.247 OA
HETATM   15  H   UNL     1      44.360 -15.814   4.085  1.00  0.00     0.170 HD
HETATM   16  H   UNL     1      43.240 -14.062   4.362  1.00  0.00     0.164 HD
BRANCH  13  17
HETATM   17  C   UNL     1      43.706 -17.719   3.655  1.00  0.00     0.036 A 
HETATM   18  C   UNL     1      43.401 -18.132   2.356  1.00  0.00     0.030 A 
HETATM   19  C   UNL     1      43.599 -19.465   1.965  1.00  0.00     0.017 A 
HETATM   20  C   UNL     1      44.109 -20.399   2.871  1.00  0.00     0.009 A 
HETATM   21  C   UNL     1      44.422 -19.983   4.169  1.00  0.00     0.017 A 
HETATM   22  C   UNL     1      44.227 -18.653   4.556  1.00  0.00     0.030 A 
BRANCH  20  23
HETATM   23  C   UNL     1      44.330 -21.830   2.509  1.00  0.00     0.155 C 
HETATM   24  C   UNL     1      44.675 -22.816   3.595  1.00  0.00     0.096 C 
HETATM   25  O   UNL     1      44.234 -22.182   1.335  1.00  0.00    -0.293 OA
ENDBRANCH  20  23
ENDBRANCH  13  17
ENDBRANCH  10  11
ENDBRANCH   4  10
BRANCH   1  26
HETATM   26  C   UNL     1      40.303 -10.258   6.857  1.00  0.00     0.045 A 
HETATM   27  N   UNL     1      39.258 -10.138   7.694  1.00  0.00    -0.238 NA
HETATM   28  C   UNL     1      39.512 -10.176   9.017  1.00  0.00     0.123 A 
HETATM   29  C   UNL     1      38.370  -9.964   9.961  1.00  0.00     0.093 C 
HETATM   30  N   UNL     1      40.717 -10.416   9.547  1.00  0.00    -0.233 NA
HETATM   31  C   UNL     1      41.749 -10.582   8.695  1.00  0.00     0.072 A 
HETATM   32  C   UNL     1      41.589 -10.457   7.327  1.00  0.00     0.060 A 
BRANCH  31  33
HETATM   33  C   UNL     1      43.038 -10.911   9.320  1.00  0.00     0.010 A 
HETATM   34  C   UNL     1      43.482 -10.364  10.543  1.00  0.00     0.023 A 
HETATM   35 BR   UNL     1      42.480  -9.063  11.514  1.00  0.00    -0.050 Br
HETATM   36  C   UNL     1      44.724 -10.721  11.085  1.00  0.00     0.020 A 
HETATM   37  C   UNL     1      45.552 -11.617  10.411  1.00  0.00     0.001 A 
HETATM   38  C   UNL     1      45.146 -12.153   9.194  1.00  0.00     0.001 A 
HETATM   39  C   UNL     1      43.906 -11.801   8.656  1.00  0.00     0.015 A 
ENDBRANCH  31  33
ENDBRANCH   1  26
TORSDOF 6
ENDMDL
MODEL 2
REMARK VINA RESULT:      -9.9      2.186      3.246
REMARK  6 active torsions:
REMARK  status: ('A' for Active; 'I' for Inactive)
REMARK    1  A    between atoms: C_4  and  C_5 
REMARK    2  A    between atoms: C_8  and  C_9 
REMARK    3  A    between atoms: C_9  and  N_10 
REMARK       I    between atoms: N_10  and  C_11 
REMARK       I    between atoms: C_11  and  N_12 
REMARK    4  A    between atoms: N_12  and  C_13 
REMARK    5  A    between atoms: C_16  and  C_17 
REMARK    6  A    between atoms: C_29  and  C_30 
ROOT
HETATM    1  C   UNL     1      40.968  -9.343   7.641  1.00  0.00     0.068 C 
HETATM    2  C   UNL     1      39.486  -9.810   7.502  1.00  0.00     0.001 C 
HETATM    3  C   UNL     1      39.373 -11.252   6.957  1.00  0.00     0.040 C 
HETATM    4  C   UNL     1      40.165 -11.408   5.648  1.00  0.00     0.206 C 
HETATM    5  N   UNL     1      40.664 -10.014   5.267  1.00  0.00    -0.065 N 
HETATM    6  H   UNL     1      41.185 -10.122   4.370  1.00  0.00     0.280 HD
HETATM    7  C   UNL     1      41.648  -9.436   6.263  1.00  0.00     0.246 C 
HETATM    8  C   UNL     1      38.819  -8.895   6.443  1.00  0.00     0.033 C 
HETATM    9  C   UNL     1      39.501  -9.071   5.077  1.00  0.00     0.236 C 
ENDROOT
BRANCH   4  10
HETATM   10  C   UNL     1      41.295 -12.471   5.728  1.00  0.00     0.157 C 
BRANCH  10  11
HETATM   11  N   UNL     1      40.993 -13.770   5.125  1.00  0.00    -0.341 N 
HETATM   12  C   UNL     1      41.953 -14.642   4.660  1.00  0.00     0.320 C 
HETATM   13  N   UNL     1      41.402 -15.835   4.272  1.00  0.00    -0.309 N 
HETATM   14  O   UNL     1      43.131 -14.312   4.578  1.00  0.00    -0.247 OA
HETATM   15  H   UNL     1      40.393 -15.866   4.208  1.00  0.00     0.170 HD
HETATM   16  H   UNL     1      40.171 -14.228   5.499  1.00  0.00     0.164 HD
BRANCH  13  17
HETATM   17  C   UNL     1      42.075 -16.985   3.807  1.00  0.00     0.036 A 
HETATM   18  C   UNL     1      42.046 -17.426   2.482  1.00  0.00     0.030 A 
HETATM   19  C   UNL     1      42.744 -18.580   2.097  1.00  0.00     0.017 A 
HETATM   20  C   UNL     1      43.482 -19.306   3.036  1.00  0.00     0.009 A 
HETATM   21  C   UNL     1      43.518 -18.860   4.362  1.00  0.00     0.017 A 
HETATM   22  C   UNL     1      42.824 -17.707   4.743  1.00  0.00     0.030 A 
BRANCH  20  23
HETATM   23  C   UNL     1      44.235 -20.545   2.682  1.00  0.00     0.155 C 
HETATM   24  C   UNL     1      43.623 -21.523   1.714  1.00  0.00     0.096 C 
HETATM   25  O   UNL     1      45.336 -20.752   3.188  1.00  0.00    -0.293 OA
ENDBRANCH  20  23
ENDBRANCH  13  17
ENDBRANCH  10  11
ENDBRANCH   4  10
BRANCH   1  26
HETATM   26  C   UNL     1      41.817 -10.047   8.681  1.00  0.00     0.045 A 
HETATM   27  N   UNL     1      42.858 -10.784   8.258  1.00  0.00    -0.238 NA
HETATM   28  C   UNL     1      43.654 -11.334   9.197  1.00  0.00     0.123 A 
HETATM   29  C   UNL     1      44.770 -12.222   8.744  1.00  0.00     0.093 C 
HETATM   30  N   UNL     1      43.531 -11.117  10.512  1.00  0.00    -0.233 NA
HETATM   31  C   UNL     1      42.509 -10.337  10.920  1.00  0.00     0.072 A 
HETATM   32  C   UNL     1      41.589  -9.819  10.026  1.00  0.00     0.060 A 
BRANCH  31  33
HETATM   33  C   UNL     1      42.454 -10.072  12.365  1.00  0.00     0.010 A 
HETATM   34  C   UNL     1      41.512 -10.658  13.236  1.00  0.00     0.023 A 
HETATM   35 BR   UNL     1      40.134 -11.829  12.628  1.00  0.00    -0.050 Br
HETATM   36  C   UNL     1      41.515 -10.362  14.606  1.00  0.00     0.020 A 
HETATM   37  C   UNL     1      42.445  -9.467  15.129  1.00  0.00     0.001 A 
HETATM   38  C   UNL     1      43.370  -8.860  14.287  1.00  0.00     0.001 A 
HETATM   39  C   UNL     1      43.371  -9.158  12.922  1.00  0.00     0.015 A 
ENDBRANCH  31  33
ENDBRANCH   1  26
TORSDOF 6
ENDMDL
MODEL 3
REMARK VINA RESULT:      -9.8      3.700      6.996
REMARK  6 active torsions:
REMARK  status: ('A' for Active; 'I' for Inactive)
REMARK    1  A    between atoms: C_4  and  C_5 
REMARK    2  A    between atoms: C_8  and  C_9 
REMARK    3  A    between atoms: C_9  and  N_10 
REMARK       I    between atoms: N_10  and  C_11 
REMARK       I    between atoms: C_11  and  N_12 
REMARK    4  A    between atoms: N_12  and  C_13 
REMARK    5  A    between atoms: C_16  and  C_17 
REMARK    6  A    between atoms: C_29  and  C_30 
ROOT
HETATM    1  C   UNL     1      39.922 -11.589   3.493  1.00  0.00     0.068 C 
HETATM    2  C   UNL     1      41.164 -11.050   4.268  1.00  0.00     0.001 C 
HETATM    3  C   UNL     1      41.817 -12.134   5.156  1.00  0.00     0.040 C 
HETATM    4  C   UNL     1      40.778 -12.781   6.087  1.00  0.00     0.206 C 
HETATM    5  N   UNL     1      39.476 -11.999   5.903  1.00  0.00    -0.065 N 
HETATM    6  H   UNL     1      38.779 -12.432   6.549  1.00  0.00     0.280 HD
HETATM    7  C   UNL     1      38.895 -12.120   4.509  1.00  0.00     0.246 C 
HETATM    8  C   UNL     1      40.655  -9.950   5.234  1.00  0.00     0.033 C 
HETATM    9  C   UNL     1      39.678 -10.547   6.259  1.00  0.00     0.236 C 
ENDROOT
BRANCH   4  10
HETATM   10  C   UNL     1      40.618 -14.311   5.871  1.00  0.00     0.157 C 
BRANCH  10  11
HETATM   11  N   UNL     1      41.675 -14.960   5.094  1.00  0.00    -0.341 N 
HETATM   12  C   UNL     1      41.775 -16.323   4.923  1.00  0.00     0.320 C 
HETATM   13  N   UNL     1      42.775 -16.647   4.044  1.00  0.00    -0.309 N 
HETATM   14  O   UNL     1      41.062 -17.101   5.549  1.00  0.00    -0.247 OA
HETATM   15  H   UNL     1      43.402 -15.899   3.779  1.00  0.00     0.170 HD
HETATM   16  H   UNL     1      42.007 -14.422   4.303  1.00  0.00     0.164 HD
BRANCH  13  17
HETATM   17  C   UNL     1      43.128 -17.930   3.574  1.00  0.00     0.036 A 
HETATM   18  C   UNL     1      42.742 -18.442   2.333  1.00  0.00     0.030 A 
HETATM   19  C   UNL     1      43.134 -19.729   1.937  1.00  0.00     0.017 A 
HETATM   20  C   UNL     1      43.922 -20.518   2.780  1.00  0.00     0.009 A 
HETATM   21  C   UNL     1      44.316 -20.003   4.020  1.00  0.00     0.017 A 
HETATM   22  C   UNL     1      43.925 -18.718   4.411  1.00  0.00     0.030 A 
BRANCH  20  23
HETATM   23  C   UNL     1      44.360 -21.897   2.412  1.00  0.00     0.155 C 
HETATM   24  C   UNL     1      44.802 -22.841   3.499  1.00  0.00     0.096 C 
HETATM   25  O   UNL     1      44.358 -22.239   1.231  1.00  0.00    -0.293 OA
ENDBRANCH  20  23
ENDBRANCH  13  17
ENDBRANCH  10  11
ENDBRANCH   4  10
BRANCH   1  26
HETATM   26  C   UNL     1      40.177 -12.636   2.426  1.00  0.00     0.045 A 
HETATM   27  N   UNL     1      39.847 -13.911   2.695  1.00  0.00    -0.238 NA
HETATM   28  C   UNL     1      39.999 -14.815   1.707  1.00  0.00     0.123 A 
HETATM   29  C   UNL     1      39.713 -16.251   2.015  1.00  0.00     0.093 C 
HETATM   30  N   UNL     1      40.366 -14.511   0.457  1.00  0.00    -0.233 NA
HETATM   31  C   UNL     1      40.648 -13.221   0.187  1.00  0.00     0.072 A 
HETATM   32  C   UNL     1      40.614 -12.249   1.172  1.00  0.00     0.060 A 
BRANCH  31  33
HETATM   33  C   UNL     1      40.979 -12.925  -1.214  1.00  0.00     0.010 A 
HETATM   34  C   UNL     1      40.017 -12.762  -2.232  1.00  0.00     0.023 A 
HETATM   35 BR   UNL     1      38.145 -12.973  -1.925  1.00  0.00    -0.050 Br
HETATM   36  C   UNL     1      40.401 -12.480  -3.550  1.00  0.00     0.020 A 
HETATM   37  C   UNL     1      41.750 -12.372  -3.880  1.00  0.00     0.001 A 
HETATM   38  C   UNL     1      42.718 -12.550  -2.898  1.00  0.00     0.001 A 
HETATM   39  C   UNL     1      42.336 -12.825  -1.583  1.00  0.00     0.015 A 
ENDBRANCH  31  33
ENDBRANCH   1  26
TORSDOF 6
ENDMDL
MODEL 4
REMARK VINA RESULT:      -9.8      4.127      6.182
REMARK  6 active torsions:
REMARK  status: ('A' for Active; 'I' for Inactive)
REMARK    1  A    between atoms: C_4  and  C_5 
REMARK    2  A    between atoms: C_8  and  C_9 
REMARK    3  A    between atoms: C_9  and  N_10 
REMARK       I    between atoms: N_10  and  C_11 
REMARK       I    between atoms: C_11  and  N_12 
REMARK    4  A    between atoms: N_12  and  C_13 
REMARK    5  A    between atoms: C_16  and  C_17 
REMARK    6  A    between atoms: C_29  and  C_30 
ROOT
HETATM    1  C   UNL     1      40.901 -11.668  -1.124  1.00  0.00     0.068 C 
HETATM    2  C   UNL     1      40.306 -11.933  -2.541  1.00  0.00     0.001 C 
HETATM    3  C   UNL     1      39.926 -13.417  -2.750  1.00  0.00     0.040 C 
HETATM    4  C   UNL     1      41.114 -14.339  -2.428  1.00  0.00     0.206 C 
HETATM    5  N   UNL     1      42.314 -13.432  -2.158  1.00  0.00    -0.065 N 
HETATM    6  H   UNL     1      43.121 -14.062  -1.957  1.00  0.00     0.280 HD
HETATM    7  C   UNL     1      42.143 -12.558  -0.932  1.00  0.00     0.246 C 
HETATM    8  C   UNL     1      41.426 -11.627  -3.568  1.00  0.00     0.033 C 
HETATM    9  C   UNL     1      42.614 -12.580  -3.366  1.00  0.00     0.236 C 
ENDROOT
BRANCH   4  10
HETATM   10  C   UNL     1      40.826 -15.345  -1.279  1.00  0.00     0.157 C 
BRANCH  10  11
HETATM   11  N   UNL     1      41.995 -15.817  -0.536  1.00  0.00    -0.341 N 
HETATM   12  C   UNL     1      41.927 -16.686   0.530  1.00  0.00     0.320 C 
HETATM   13  N   UNL     1      43.175 -17.064   0.950  1.00  0.00    -0.309 N 
HETATM   14  O   UNL     1      40.853 -17.002   1.031  1.00  0.00    -0.247 OA
HETATM   15  H   UNL     1      43.956 -16.550   0.565  1.00  0.00     0.170 HD
HETATM   16  H   UNL     1      42.836 -15.916  -1.092  1.00  0.00     0.164 HD
BRANCH  13  17
HETATM   17  C   UNL     1      43.500 -17.987   1.967  1.00  0.00     0.036 A 
HETATM   18  C   UNL     1      43.784 -19.336   1.737  1.00  0.00     0.030 A 
HETATM   19  C   UNL     1      44.099 -20.192   2.803  1.00  0.00     0.017 A 
HETATM   20  C   UNL     1      44.137 -19.705   4.112  1.00  0.00     0.009 A 
HETATM   21  C   UNL     1      43.860 -18.353   4.342  1.00  0.00     0.017 A 
HETATM   22  C   UNL     1      43.549 -17.501   3.278  1.00  0.00     0.030 A 
BRANCH  20  23
HETATM   23  C   UNL     1      44.458 -20.574   5.283  1.00  0.00     0.155 C 
HETATM   24  C   UNL     1      44.987 -21.963   5.041  1.00  0.00     0.096 C 
HETATM   25  O   UNL     1      44.281 -20.148   6.422  1.00  0.00    -0.293 OA
ENDBRANCH  20  23
ENDBRANCH  13  17
ENDBRANCH  10  11
ENDBRANCH   4  10
BRANCH   1  26
HETATM   26  C   UNL     1      39.965 -11.832   0.058  1.00  0.00     0.045 A 
HETATM   27  N   UNL     1      38.658 -11.583  -0.127  1.00  0.00    -0.238 NA
HETATM   28  C   UNL     1      37.827 -11.815   0.908  1.00  0.00     0.123 A 
HETATM   29  C   UNL     1      36.380 -11.467   0.744  1.00  0.00     0.093 C 
HETATM   30  N   UNL     1      38.203 -12.363   2.070  1.00  0.00    -0.233 NA
HETATM   31  C   UNL     1      39.511 -12.652   2.225  1.00  0.00     0.072 A 
HETATM   32  C   UNL     1      40.443 -12.350   1.249  1.00  0.00     0.060 A 
BRANCH  31  33
HETATM   33  C   UNL     1      39.866 -13.314   3.489  1.00  0.00     0.010 A 
HETATM   34  C   UNL     1      39.828 -12.679   4.747  1.00  0.00     0.023 A 
HETATM   35 BR   UNL     1      39.369 -10.838   4.960  1.00  0.00    -0.050 Br
HETATM   36  C   UNL     1      40.180 -13.368   5.916  1.00  0.00     0.020 A 
HETATM   37  C   UNL     1      40.590 -14.698   5.849  1.00  0.00     0.001 A 
HETATM   38  C   UNL     1      40.656 -15.340   4.618  1.00  0.00     0.001 A 
HETATM   39  C   UNL     1      40.301 -14.655   3.454  1.00  0.00     0.015 A 
ENDBRANCH  31  33
ENDBRANCH   1  26
TORSDOF 6
ENDMDL
MODEL 5
REMARK VINA RESULT:      -9.7      3.385      9.343
REMARK  6 active torsions:
REMARK  status: ('A' for Active; 'I' for Inactive)
REMARK    1  A    between atoms: C_4  and  C_5 
REMARK    2  A    between atoms: C_8  and  C_9 
REMARK    3  A    between atoms: C_9  and  N_10 
REMARK       I    between atoms: N_10  and  C_11 
REMARK       I    between atoms: C_11  and  N_12 
REMARK    4  A    between atoms: N_12  and  C_13 
REMARK    5  A    between atoms: C_16  and  C_17 
REMARK    6  A    between atoms: C_29  and  C_30 
ROOT
HETATM    1  C   UNL     1      40.239 -15.560   2.051  1.00  0.00     0.068 C 
HETATM    2  C   UNL     1      40.950 -15.151   0.724  1.00  0.00     0.001 C 
HETATM    3  C   UNL     1      42.111 -14.157   0.963  1.00  0.00     0.040 C 
HETATM    4  C   UNL     1      41.635 -12.942   1.776  1.00  0.00     0.206 C 
HETATM    5  N   UNL     1      40.120 -13.081   1.929  1.00  0.00    -0.065 N 
HETATM    6  H   UNL     1      39.800 -12.246   2.466  1.00  0.00     0.280 HD
HETATM    7  C   UNL     1      39.707 -14.292   2.741  1.00  0.00     0.246 C 
HETATM    8  C   UNL     1      39.906 -14.395  -0.137  1.00  0.00     0.033 C 
HETATM    9  C   UNL     1      39.453 -13.111   0.576  1.00  0.00     0.236 C 
ENDROOT
BRANCH   4  10
HETATM   10  C   UNL     1      42.381 -12.767   3.127  1.00  0.00     0.157 C 
BRANCH  10  11
HETATM   11  N   UNL     1      41.768 -11.840   4.080  1.00  0.00    -0.341 N 
HETATM   12  C   UNL     1      41.629 -12.102   5.425  1.00  0.00     0.320 C 
HETATM   13  N   UNL     1      41.147 -11.013   6.102  1.00  0.00    -0.309 N 
HETATM   14  O   UNL     1      41.873 -13.211   5.889  1.00  0.00    -0.247 OA
HETATM   15  H   UNL     1      40.801 -10.248   5.537  1.00  0.00     0.170 HD
HETATM   16  H   UNL     1      41.911 -10.860   3.866  1.00  0.00     0.164 HD
BRANCH  13  17
HETATM   17  C   UNL     1      40.938 -10.884   7.491  1.00  0.00     0.036 A 
HETATM   18  C   UNL     1      41.954 -10.621   8.414  1.00  0.00     0.030 A 
HETATM   19  C   UNL     1      41.665 -10.507   9.781  1.00  0.00     0.017 A 
HETATM   20  C   UNL     1      40.353 -10.652  10.242  1.00  0.00     0.009 A 
HETATM   21  C   UNL     1      39.335 -10.908   9.317  1.00  0.00     0.017 A 
HETATM   22  C   UNL     1      39.624 -11.019   7.953  1.00  0.00     0.030 A 
BRANCH  20  23
HETATM   23  C   UNL     1      39.993 -10.549  11.687  1.00  0.00     0.155 C 
HETATM   24  C   UNL     1      40.400 -11.656  12.624  1.00  0.00     0.096 C 
HETATM   25  O   UNL     1      39.369  -9.569  12.088  1.00  0.00    -0.293 OA
ENDBRANCH  20  23
ENDBRANCH  13  17
ENDBRANCH  10  11
ENDBRANCH   4  10
BRANCH   1  26
HETATM   26  C   UNL     1      41.044 -16.383   3.038  1.00  0.00     0.045 A 
HETATM   27  N   UNL     1      40.826 -16.191   4.351  1.00  0.00    -0.238 NA
HETATM   28  C   UNL     1      41.486 -16.989   5.214  1.00  0.00     0.123 A 
HETATM   29  C   UNL     1      41.316 -16.736   6.680  1.00  0.00     0.093 C 
HETATM   30  N   UNL     1      42.266 -18.013   4.850  1.00  0.00    -0.233 NA
HETATM   31  C   UNL     1      42.439 -18.224   3.529  1.00  0.00     0.072 A 
HETATM   32  C   UNL     1      41.878 -17.387   2.581  1.00  0.00     0.060 A 
BRANCH  31  33
HETATM   33  C   UNL     1      43.248 -19.400   3.177  1.00  0.00     0.010 A 
HETATM   34  C   UNL     1      44.334 -19.865   3.946  1.00  0.00     0.023 A 
HETATM   35 BR   UNL     1      44.937 -18.976   5.523  1.00  0.00    -0.050 Br
HETATM   36  C   UNL     1      45.065 -20.995   3.553  1.00  0.00     0.020 A 
HETATM   37  C   UNL     1      44.736 -21.670   2.379  1.00  0.00     0.001 A 
HETATM   38  C   UNL     1      43.683 -21.217   1.593  1.00  0.00     0.001 A 
HETATM   39  C   UNL     1      42.951 -20.095   1.987  1.00  0.00     0.015 A 
ENDBRANCH  31  33
ENDBRANCH   1  26
TORSDOF 6
ENDMDL
MODEL 6
REMARK VINA RESULT:      -9.4      4.692      7.999
REMARK  6 active torsions:
REMARK  status: ('A' for Active; 'I' for Inactive)
REMARK    1  A    between atoms: C_4  and  C_5 
REMARK    2  A    between atoms: C_8  and  C_9 
REMARK    3  A    between atoms: C_9  and  N_10 
REMARK       I    between atoms: N_10  and  C_11 
REMARK       I    between atoms: C_11  and  N_12 
REMARK    4  A    between atoms: N_12  and  C_13 
REMARK    5  A    between atoms: C_16  and  C_17 
REMARK    6  A    between atoms: C_29  and  C_30 
ROOT
HETATM    1  C   UNL     1      39.762 -10.748   1.611  1.00  0.00     0.068 C 
HETATM    2  C   UNL     1      40.766 -10.709   2.804  1.00  0.00     0.001 C 
HETATM    3  C   UNL     1      41.300 -12.114   3.168  1.00  0.00     0.040 C 
HETATM    4  C   UNL     1      40.143 -13.098   3.403  1.00  0.00     0.206 C 
HETATM    5  N   UNL     1      38.851 -12.281   3.341  1.00  0.00    -0.065 N 
HETATM    6  H   UNL     1      38.070 -12.951   3.518  1.00  0.00     0.280 HD
HETATM    7  C   UNL     1      38.589 -11.675   1.977  1.00  0.00     0.246 C 
HETATM    8  C   UNL     1      39.977 -10.214   4.044  1.00  0.00     0.033 C 
HETATM    9  C   UNL     1      38.857 -11.204   4.397  1.00  0.00     0.236 C 
ENDROOT
BRANCH   4  10
HETATM   10  C   UNL     1      40.155 -14.314   2.436  1.00  0.00     0.157 C 
BRANCH  10  11
HETATM   11  N   UNL     1      41.405 -15.072   2.379  1.00  0.00    -0.341 N 
HETATM   12  C   UNL     1      41.531 -16.377   2.800  1.00  0.00     0.320 C 
HETATM   13  N   UNL     1      42.772 -16.881   2.509  1.00  0.00    -0.309 N 
HETATM   14  O   UNL     1      40.627 -16.945   3.403  1.00  0.00    -0.247 OA
HETATM   15  H   UNL     1      43.467 -16.216   2.198  1.00  0.00     0.170 HD
HETATM   16  H   UNL     1      42.008 -14.832   1.601  1.00  0.00     0.164 HD
BRANCH  13  17
HETATM   17  C   UNL     1      43.243 -18.193   2.728  1.00  0.00     0.036 A 
HETATM   18  C   UNL     1      43.278 -19.186   1.745  1.00  0.00     0.030 A 
HETATM   19  C   UNL     1      43.761 -20.468   2.042  1.00  0.00     0.017 A 
HETATM   20  C   UNL     1      44.219 -20.772   3.327  1.00  0.00     0.009 A 
HETATM   21  C   UNL     1      44.191 -19.776   4.310  1.00  0.00     0.017 A 
HETATM   22  C   UNL     1      43.711 -18.496   4.011  1.00  0.00     0.030 A 
BRANCH  20  23
HETATM   23  C   UNL     1      44.735 -22.122   3.698  1.00  0.00     0.155 C 
HETATM   24  C   UNL     1      45.147 -22.384   5.123  1.00  0.00     0.096 C 
HETATM   25  O   UNL     1      44.821 -22.997   2.838  1.00  0.00    -0.293 OA
ENDBRANCH  20  23
ENDBRANCH  13  17
ENDBRANCH  10  11
ENDBRANCH   4  10
BRANCH   1  26
HETATM   26  C   UNL     1      40.319 -11.138   0.255  1.00  0.00     0.045 A 
HETATM   27  N   UNL     1      41.446 -10.538  -0.166  1.00  0.00    -0.238 NA
HETATM   28  C   UNL     1      41.976 -10.956  -1.332  1.00  0.00     0.123 A 
HETATM   29  C   UNL     1      43.185 -10.244  -1.853  1.00  0.00     0.093 C 
HETATM   30  N   UNL     1      41.508 -11.986  -2.048  1.00  0.00    -0.233 NA
HETATM   31  C   UNL     1      40.403 -12.609  -1.590  1.00  0.00     0.072 A 
HETATM   32  C   UNL     1      39.742 -12.176  -0.455  1.00  0.00     0.060 A 
BRANCH  31  33
HETATM   33  C   UNL     1      39.966 -13.776  -2.371  1.00  0.00     0.010 A 
HETATM   34  C   UNL     1      38.727 -13.854  -3.040  1.00  0.00     0.023 A 
HETATM   35 BR   UNL     1      37.421 -12.465  -2.958  1.00  0.00    -0.050 Br
HETATM   36  C   UNL     1      38.371 -14.998  -3.769  1.00  0.00     0.020 A 
HETATM   37  C   UNL     1      39.237 -16.088  -3.830  1.00  0.00     0.001 A 
HETATM   38  C   UNL     1      40.454 -16.042  -3.161  1.00  0.00     0.001 A 
HETATM   39  C   UNL     1      40.812 -14.901  -2.439  1.00  0.00     0.015 A 
ENDBRANCH  31  33
ENDBRANCH   1  26
TORSDOF 6
ENDMDL
MODEL 7
REMARK VINA RESULT:      -9.4      4.532      8.028
REMARK  6 active torsions:
REMARK  status: ('A' for Active; 'I' for Inactive)
REMARK    1  A    between atoms: C_4  and  C_5 
REMARK    2  A    between atoms: C_8  and  C_9 
REMARK    3  A    between atoms: C_9  and  N_10 
REMARK       I    between atoms: N_10  and  C_11 
REMARK       I    between atoms: C_11  and  N_12 
REMARK    4  A    between atoms: N_12  and  C_13 
REMARK    5  A    between atoms: C_16  and  C_17 
REMARK    6  A    between atoms: C_29  and  C_30 
ROOT
HETATM    1  C   UNL     1      38.174 -11.576   2.072  1.00  0.00     0.068 C 
HETATM    2  C   UNL     1      38.833 -10.386   2.835  1.00  0.00     0.001 C 
HETATM    3  C   UNL     1      40.374 -10.387   2.704  1.00  0.00     0.040 C 
HETATM    4  C   UNL     1      40.960 -11.748   3.116  1.00  0.00     0.206 C 
HETATM    5  N   UNL     1      39.798 -12.579   3.663  1.00  0.00    -0.065 N 
HETATM    6  H   UNL     1      40.204 -13.495   3.957  1.00  0.00     0.280 HD
HETATM    7  C   UNL     1      38.744 -12.896   2.622  1.00  0.00     0.246 C 
HETATM    8  C   UNL     1      38.529 -10.588   4.342  1.00  0.00     0.033 C 
HETATM    9  C   UNL     1      39.168 -11.890   4.849  1.00  0.00     0.236 C 
ENDROOT
BRANCH   4  10
HETATM   10  C   UNL     1      41.747 -12.456   1.980  1.00  0.00     0.157 C 
BRANCH  10  11
HETATM   11  N   UNL     1      42.734 -13.448   2.408  1.00  0.00    -0.341 N 
HETATM   12  C   UNL     1      42.486 -14.801   2.467  1.00  0.00     0.320 C 
HETATM   13  N   UNL     1      43.622 -15.507   2.771  1.00  0.00    -0.309 N 
HETATM   14  O   UNL     1      41.357 -15.253   2.311  1.00  0.00    -0.247 OA
HETATM   15  H   UNL     1      44.421 -14.966   3.075  1.00  0.00     0.170 HD
HETATM   16  H   UNL     1      43.693 -13.216   2.176  1.00  0.00     0.164 HD
BRANCH  13  17
HETATM   17  C   UNL     1      43.770 -16.908   2.853  1.00  0.00     0.036 A 
HETATM   18  C   UNL     1      43.888 -17.612   4.053  1.00  0.00     0.030 A 
HETATM   19  C   UNL     1      44.032 -19.008   4.052  1.00  0.00     0.017 A 
HETATM   20  C   UNL     1      44.055 -19.715   2.846  1.00  0.00     0.009 A 
HETATM   21  C   UNL     1      43.929 -19.010   1.644  1.00  0.00     0.017 A 
HETATM   22  C   UNL     1      43.782 -17.619   1.648  1.00  0.00     0.030 A 
BRANCH  20  23
HETATM   23  C   UNL     1      44.215 -21.198   2.788  1.00  0.00     0.155 C 
HETATM   24  C   UNL     1      44.032 -21.903   1.470  1.00  0.00     0.096 C 
HETATM   25  O   UNL     1      44.488 -21.820   3.813  1.00  0.00    -0.293 OA
ENDBRANCH  20  23
ENDBRANCH  13  17
ENDBRANCH  10  11
ENDBRANCH   4  10
BRANCH   1  26
HETATM   26  C   UNL     1      38.274 -11.565   0.560  1.00  0.00     0.045 A 
HETATM   27  N   UNL     1      38.401 -10.380  -0.061  1.00  0.00    -0.238 NA
HETATM   28  C   UNL     1      38.575 -10.391  -1.397  1.00  0.00     0.123 A 
HETATM   29  C   UNL     1      38.637  -9.077  -2.112  1.00  0.00     0.093 C 
HETATM   30  N   UNL     1      38.723 -11.502  -2.129  1.00  0.00    -0.233 NA
HETATM   31  C   UNL     1      38.641 -12.685  -1.487  1.00  0.00     0.072 A 
HETATM   32  C   UNL     1      38.362 -12.759  -0.134  1.00  0.00     0.060 A 
BRANCH  31  33
HETATM   33  C   UNL     1      38.877 -13.873  -2.320  1.00  0.00     0.010 A 
HETATM   34  C   UNL     1      40.119 -14.534  -2.413  1.00  0.00     0.023 A 
HETATM   35 BR   UNL     1      41.684 -13.918  -1.510  1.00  0.00    -0.050 Br
HETATM   36  C   UNL     1      40.277 -15.664  -3.227  1.00  0.00     0.020 A 
HETATM   37  C   UNL     1      39.204 -16.146  -3.973  1.00  0.00     0.001 A 
HETATM   38  C   UNL     1      37.975 -15.500  -3.914  1.00  0.00     0.001 A 
HETATM   39  C   UNL     1      37.816 -14.376  -3.099  1.00  0.00     0.015 A 
ENDBRANCH  31  33
ENDBRANCH   1  26
TORSDOF 6
ENDMDL
MODEL 8
REMARK VINA RESULT:      -8.8      4.994      8.774
REMARK  6 active torsions:
REMARK  status: ('A' for Active; 'I' for Inactive)
REMARK    1  A    between atoms: C_4  and  C_5 
REMARK    2  A    between atoms: C_8  and  C_9 
REMARK    3  A    between atoms: C_9  and  N_10 
REMARK       I    between atoms: N_10  and  C_11 
REMARK       I    between atoms: C_11  and  N_12 
REMARK    4  A    between atoms: N_12  and  C_13 
REMARK    5  A    between atoms: C_16  and  C_17 
REMARK    6  A    between atoms: C_29  and  C_30 
ROOT
HETATM    1  C   UNL     1      42.543 -13.328   5.068  1.00  0.00     0.068 C 
HETATM    2  C   UNL     1      41.201 -12.834   5.691  1.00  0.00     0.001 C 
HETATM    3  C   UNL     1      39.972 -13.539   5.072  1.00  0.00     0.040 C 
HETATM    4  C   UNL     1      39.987 -13.424   3.539  1.00  0.00     0.206 C 
HETATM    5  N   UNL     1      41.155 -12.505   3.179  1.00  0.00    -0.065 N 
HETATM    6  H   UNL     1      41.150 -12.416   2.139  1.00  0.00     0.280 HD
HETATM    7  C   UNL     1      42.507 -13.078   3.550  1.00  0.00     0.246 C 
HETATM    8  C   UNL     1      41.061 -11.332   5.335  1.00  0.00     0.033 C 
HETATM    9  C   UNL     1      40.973 -11.148   3.813  1.00  0.00     0.236 C 
ENDROOT
BRANCH   4  10
HETATM   10  C   UNL     1      40.032 -14.797   2.813  1.00  0.00     0.157 C 
BRANCH  10  11
HETATM   11  N   UNL     1      40.058 -14.745   1.351  1.00  0.00    -0.341 N 
HETATM   12  C   UNL     1      38.953 -14.482   0.572  1.00  0.00     0.320 C 
HETATM   13  N   UNL     1      39.289 -14.361  -0.752  1.00  0.00    -0.309 N 
HETATM   14  O   UNL     1      37.828 -14.427   1.056  1.00  0.00    -0.247 OA
HETATM   15  H   UNL     1      40.226 -14.642  -1.006  1.00  0.00     0.170 HD
HETATM   16  H   UNL     1      40.928 -14.406   0.957  1.00  0.00     0.164 HD
BRANCH  13  17
HETATM   17  C   UNL     1      38.440 -14.031  -1.829  1.00  0.00     0.036 A 
HETATM   18  C   UNL     1      37.895 -12.761  -2.035  1.00  0.00     0.030 A 
HETATM   19  C   UNL     1      37.059 -12.511  -3.133  1.00  0.00     0.017 A 
HETATM   20  C   UNL     1      36.760 -13.531  -4.040  1.00  0.00     0.009 A 
HETATM   21  C   UNL     1      37.311 -14.801  -3.839  1.00  0.00     0.017 A 
HETATM   22  C   UNL     1      38.148 -15.047  -2.745  1.00  0.00     0.030 A 
BRANCH  20  23
HETATM   23  C   UNL     1      35.869 -13.322  -5.219  1.00  0.00     0.155 C 
HETATM   24  C   UNL     1      35.445 -11.922  -5.578  1.00  0.00     0.096 C 
HETATM   25  O   UNL     1      35.492 -14.291  -5.875  1.00  0.00    -0.293 OA
ENDBRANCH  20  23
ENDBRANCH  13  17
ENDBRANCH  10  11
ENDBRANCH   4  10
BRANCH   1  26
HETATM   26  C   UNL     1      42.942 -14.765   5.342  1.00  0.00     0.045 A 
HETATM   27  N   UNL     1      42.966 -15.186   6.618  1.00  0.00    -0.238 NA
HETATM   28  C   UNL     1      43.239 -16.486   6.840  1.00  0.00     0.123 A 
HETATM   29  C   UNL     1      43.348 -16.953   8.258  1.00  0.00     0.093 C 
HETATM   30  N   UNL     1      43.395 -17.400   5.875  1.00  0.00    -0.233 NA
HETATM   31  C   UNL     1      43.322 -16.973   4.598  1.00  0.00     0.072 A 
HETATM   32  C   UNL     1      43.146 -15.637   4.287  1.00  0.00     0.060 A 
BRANCH  31  33
HETATM   33  C   UNL     1      43.432 -18.022   3.573  1.00  0.00     0.010 A 
HETATM   34  C   UNL     1      44.005 -19.290   3.804  1.00  0.00     0.023 A 
HETATM   35 BR   UNL     1      44.778 -19.783   5.478  1.00  0.00    -0.050 Br
HETATM   36  C   UNL     1      44.078 -20.246   2.782  1.00  0.00     0.020 A 
HETATM   37  C   UNL     1      43.596 -19.950   1.509  1.00  0.00     0.001 A 
HETATM   38  C   UNL     1      43.047 -18.699   1.251  1.00  0.00     0.001 A 
HETATM   39  C   UNL     1      42.969 -17.748   2.270  1.00  0.00     0.015 A 
ENDBRANCH  31  33
ENDBRANCH   1  26
TORSDOF 6
ENDMDL
MODEL 9
REMARK VINA RESULT:      -8.6      3.477      8.896
REMARK  6 active torsions:
REMARK  status: ('A' for Active; 'I' for Inactive)
REMARK    1  A    between atoms: C_4  and  C_5 
REMARK    2  A    between atoms: C_8  and  C_9 
REMARK    3  A    between atoms: C_9  and  N_10 
REMARK       I    between atoms: N_10  and  C_11 
REMARK       I    between atoms: C_11  and  N_12 
REMARK    4  A    between atoms: N_12  and  C_13 
REMARK    5  A    between atoms: C_16  and  C_17 
REMARK    6  A    between atoms: C_29  and  C_30 
ROOT
HETATM    1  C   UNL     1      41.125 -14.679   0.926  1.00  0.00     0.068 C 
HETATM    2  C   UNL     1      41.900 -13.392   0.506  1.00  0.00     0.001 C 
HETATM    3  C   UNL     1      41.481 -12.158   1.338  1.00  0.00     0.040 C 
HETATM    4  C   UNL     1      39.956 -11.964   1.306  1.00  0.00     0.206 C 
HETATM    5  N   UNL     1      39.404 -12.992   0.318  1.00  0.00    -0.065 N 
HETATM    6  H   UNL     1      38.371 -12.845   0.287  1.00  0.00     0.280 HD
HETATM    7  C   UNL     1      39.615 -14.425   0.762  1.00  0.00     0.246 C 
HETATM    8  C   UNL     1      41.501 -13.079  -0.959  1.00  0.00     0.033 C 
HETATM    9  C   UNL     1      39.997 -12.779  -1.053  1.00  0.00     0.236 C 
ENDROOT
BRANCH   4  10
HETATM   10  C   UNL     1      39.291 -12.031   2.708  1.00  0.00     0.157 C 
BRANCH  10  11
HETATM   11  N   UNL     1      40.181 -11.809   3.848  1.00  0.00    -0.341 N 
HETATM   12  C   UNL     1      39.765 -11.305   5.060  1.00  0.00     0.320 C 
HETATM   13  N   UNL     1      40.774 -11.329   5.987  1.00  0.00    -0.309 N 
HETATM   14  O   UNL     1      38.634 -10.857   5.213  1.00  0.00    -0.247 OA
HETATM   15  H   UNL     1      41.701 -11.534   5.639  1.00  0.00     0.170 HD
HETATM   16  H   UNL     1      40.946 -12.469   3.920  1.00  0.00     0.164 HD
BRANCH  13  17
HETATM   17  C   UNL     1      40.705 -10.956   7.346  1.00  0.00     0.036 A 
HETATM   18  C   UNL     1      39.682 -11.349   8.213  1.00  0.00     0.030 A 
HETATM   19  C   UNL     1      39.684 -10.937   9.554  1.00  0.00     0.017 A 
HETATM   20  C   UNL     1      40.714 -10.129  10.044  1.00  0.00     0.009 A 
HETATM   21  C   UNL     1      41.743  -9.742   9.178  1.00  0.00     0.017 A 
HETATM   22  C   UNL     1      41.740 -10.156   7.842  1.00  0.00     0.030 A 
BRANCH  20  23
HETATM   23  C   UNL     1      40.760  -9.656  11.459  1.00  0.00     0.155 C 
HETATM   24  C   UNL     1      42.011  -8.991  11.970  1.00  0.00     0.096 C 
HETATM   25  O   UNL     1      39.781  -9.818  12.185  1.00  0.00    -0.293 OA
ENDBRANCH  20  23
ENDBRANCH  13  17
ENDBRANCH  10  11
ENDBRANCH   4  10
BRANCH   1  26
HETATM   26  C   UNL     1      41.405 -15.232   2.310  1.00  0.00     0.045 A 
HETATM   27  N   UNL     1      40.621 -14.830   3.325  1.00  0.00    -0.238 NA
HETATM   28  C   UNL     1      40.828 -15.394   4.532  1.00  0.00     0.123 A 
HETATM   29  C   UNL     1      40.018 -14.899   5.689  1.00  0.00     0.093 C 
HETATM   30  N   UNL     1      41.693 -16.388   4.762  1.00  0.00    -0.233 NA
HETATM   31  C   UNL     1      42.440 -16.815   3.723  1.00  0.00     0.072 A 
HETATM   32  C   UNL     1      42.360 -16.218   2.478  1.00  0.00     0.060 A 
BRANCH  31  33
HETATM   33  C   UNL     1      43.326 -17.953   4.007  1.00  0.00     0.010 A 
HETATM   34  C   UNL     1      44.123 -18.059   5.166  1.00  0.00     0.023 A 
HETATM   35 BR   UNL     1      44.201 -16.690   6.493  1.00  0.00    -0.050 Br
HETATM   36  C   UNL     1      44.947 -19.173   5.375  1.00  0.00     0.020 A 
HETATM   37  C   UNL     1      45.003 -20.193   4.427  1.00  0.00     0.001 A 
HETATM   38  C   UNL     1      44.243 -20.101   3.267  1.00  0.00     0.001 A 
HETATM   39  C   UNL     1      43.418 -18.993   3.060  1.00  0.00     0.015 A 
ENDBRANCH  31  33
ENDBRANCH   1  26
TORSDOF 6
ENDMDL
MODEL 10
REMARK VINA RESULT:      -8.6      3.565      6.816
REMARK  6 active torsions:
REMARK  status: ('A' for Active; 'I' for Inactive)
REMARK    1  A    between atoms: C_4  and  C_5 
REMARK    2  A    between atoms: C_8  and  C_9 
REMARK    3  A    between atoms: C_9  and  N_10 
REMARK       I    between atoms: N_10  and  C_11 
REMARK       I    between atoms: C_11  and  N_12 
REMARK    4  A    between atoms: N_12  and  C_13 
REMARK    5  A    between atoms: C_16  and  C_17 
REMARK    6  A    between atoms: C_29  and  C_30 
ROOT
HETATM    1  C   UNL     1      44.374 -16.929   6.581  1.00  0.00     0.068 C 
HETATM    2  C   UNL     1      44.714 -17.719   5.280  1.00  0.00     0.001 C 
HETATM    3  C   UNL     1      43.537 -17.733   4.277  1.00  0.00     0.040 C 
HETATM    4  C   UNL     1      42.248 -18.233   4.950  1.00  0.00     0.206 C 
HETATM    5  N   UNL     1      42.635 -18.690   6.357  1.00  0.00    -0.065 N 
HETATM    6  H   UNL     1      41.761 -19.044   6.803  1.00  0.00     0.280 HD
HETATM    7  C   UNL     1      43.135 -17.564   7.238  1.00  0.00     0.246 C 
HETATM    8  C   UNL     1      44.946 -19.196   5.692  1.00  0.00     0.033 C 
HETATM    9  C   UNL     1      43.663 -19.793   6.289  1.00  0.00     0.236 C 
ENDROOT
BRANCH   4  10
HETATM   10  C   UNL     1      41.093 -17.193   4.932  1.00  0.00     0.157 C 
BRANCH  10  11
HETATM   11  N   UNL     1      41.196 -16.144   3.918  1.00  0.00    -0.341 N 
HETATM   12  C   UNL     1      40.651 -16.240   2.656  1.00  0.00     0.320 C 
HETATM   13  N   UNL     1      40.780 -15.065   1.962  1.00  0.00    -0.309 N 
HETATM   14  O   UNL     1      40.173 -17.292   2.244  1.00  0.00    -0.247 OA
HETATM   15  H   UNL     1      41.384 -14.365   2.371  1.00  0.00     0.170 HD
HETATM   16  H   UNL     1      41.210 -15.201   4.287  1.00  0.00     0.164 HD
BRANCH  13  17
HETATM   17  C   UNL     1      40.289 -14.767   0.674  1.00  0.00     0.036 A 
HETATM   18  C   UNL     1      40.961 -15.078  -0.511  1.00  0.00     0.030 A 
HETATM   19  C   UNL     1      40.406 -14.748  -1.756  1.00  0.00     0.017 A 
HETATM   20  C   UNL     1      39.167 -14.106  -1.829  1.00  0.00     0.009 A 
HETATM   21  C   UNL     1      38.489 -13.802  -0.644  1.00  0.00     0.017 A 
HETATM   22  C   UNL     1      39.043 -14.134   0.597  1.00  0.00     0.030 A 
BRANCH  20  23
HETATM   23  C   UNL     1      38.536 -13.725  -3.127  1.00  0.00     0.155 C 
HETATM   24  C   UNL     1      37.627 -14.709  -3.817  1.00  0.00     0.096 C 
HETATM   25  O   UNL     1      38.769 -12.621  -3.615  1.00  0.00    -0.293 OA
ENDBRANCH  20  23
ENDBRANCH  13  17
ENDBRANCH  10  11
ENDBRANCH   4  10
BRANCH   1  26
HETATM   26  C   UNL     1      44.173 -15.433   6.446  1.00  0.00     0.045 A 
HETATM   27  N   UNL     1      43.599 -14.967   5.323  1.00  0.00    -0.238 NA
HETATM   28  C   UNL     1      43.349 -13.645   5.253  1.00  0.00     0.123 A 
HETATM   29  C   UNL     1      42.784 -13.100   3.978  1.00  0.00     0.093 C 
HETATM   30  N   UNL     1      43.547 -12.786   6.259  1.00  0.00    -0.233 NA
HETATM   31  C   UNL     1      44.079 -13.274   7.398  1.00  0.00     0.072 A 
HETATM   32  C   UNL     1      44.458 -14.599   7.513  1.00  0.00     0.060 A 
BRANCH  31  33
HETATM   33  C   UNL     1      44.214 -12.307   8.498  1.00  0.00     0.010 A 
HETATM   34  C   UNL     1      43.271 -11.297   8.777  1.00  0.00     0.023 A 
HETATM   35 BR   UNL     1      41.715 -11.015   7.709  1.00  0.00    -0.050 Br
HETATM   36  C   UNL     1      43.461 -10.407   9.843  1.00  0.00     0.020 A 
HETATM   37  C   UNL     1      44.601 -10.498  10.638  1.00  0.00     0.001 A 
HETATM   38  C   UNL     1      45.556 -11.471  10.369  1.00  0.00     0.001 A 
HETATM   39  C   UNL     1      45.365 -12.362   9.310  1.00  0.00     0.015 A 
ENDBRANCH  31  33
ENDBRANCH   1  26
TORSDOF 6
ENDMDL
