MODEL 1
REMARK VINA RESULT:      -8.5      0.000      0.000
REMARK  9 active torsions:
REMARK  status: ('A' for Active; 'I' for Inactive)
REMARK       I    between atoms: C_2  and  N_3 
REMARK    1  A    between atoms: N_3  and  C_4 
REMARK    2  A    between atoms: C_6  and  O_7 
REMARK    3  A    between atoms: O_7  and  C_8 
REMARK    4  A    between atoms: C_8  and  C_9 
REMARK    5  A    between atoms: C_9  and  C_10 
REMARK    6  A    between atoms: C_10  and  C_11 
REMARK    7  A    between atoms: C_11  and  N_12 
REMARK       I    between atoms: N_12  and  C_13 
REMARK    8  A    between atoms: C_13  and  C_14 
REMARK    9  A    between atoms: C_18  and  C_19 
ROOT
HETATM    1  C   UNL     1      45.162 -13.004   7.958  1.00  0.00     0.217 C 
ENDROOT
BRANCH   1   2
HETATM    2  C   UNL     1      44.556 -14.298   7.441  1.00  0.00    -0.085 C 
BRANCH   2   3
HETATM    3  C   UNL     1      44.037 -15.410   6.998  1.00  0.00    -0.078 C 
BRANCH   3   4
HETATM    4  C   UNL     1      43.432 -16.705   6.482  1.00  0.00     0.269 C 
BRANCH   4   5
HETATM    5  O   UNL     1      42.510 -16.431   5.432  1.00  0.00    -0.339 OA
BRANCH   5   6
HETATM    6  C   UNL     1      42.892 -16.845   4.180  1.00  0.00     0.072 A 
HETATM    7  C   UNL     1      42.965 -18.174   3.744  1.00  0.00     0.066 A 
HETATM    8  C   UNL     1      43.355 -18.479   2.435  1.00  0.00     0.037 A 
HETATM    9  C   UNL     1      43.685 -17.433   1.566  1.00  0.00     0.029 A 
HETATM   10  C   UNL     1      43.621 -16.107   1.995  1.00  0.00     0.005 A 
HETATM   11  C   UNL     1      43.222 -15.816   3.299  1.00  0.00     0.037 A 
BRANCH   8  12
HETATM   12  N   UNL     1      43.436 -19.794   1.927  1.00  0.00    -0.327 N 
HETATM   13  C   UNL     1      44.292 -20.805   2.331  1.00  0.00     0.218 C 
HETATM   14  C   UNL     1      44.079 -22.087   1.565  1.00  0.00     0.117 C 
HETATM   15  O   UNL     1      45.130 -20.747   3.224  1.00  0.00    -0.274 OA
HETATM   16  H   UNL     1      42.777 -20.023   1.193  1.00  0.00     0.169 HD
ENDBRANCH   8  12
ENDBRANCH   5   6
ENDBRANCH   4   5
ENDBRANCH   3   4
ENDBRANCH   2   3
ENDBRANCH   1   2
BRANCH   1  17
HETATM   17  N   UNL     1      44.434 -12.577   9.123  1.00  0.00    -0.345 N 
HETATM   18  C   UNL     1      44.694 -11.366   9.709  1.00  0.00     0.270 C 
HETATM   19  O   UNL     1      45.582 -10.618   9.314  1.00  0.00    -0.266 OA
HETATM   20  H   UNL     1      43.629 -13.115   9.407  1.00  0.00     0.163 HD
BRANCH  18  21
HETATM   21  C   UNL     1      43.841 -11.023  10.815  1.00  0.00     0.120 A 
HETATM   22  N   UNL     1      42.711 -11.744  11.096  1.00  0.00    -0.272 N 
HETATM   23  H   UNL     1      42.364 -12.551  10.586  1.00  0.00     0.189 HD
HETATM   24  N   UNL     1      42.031 -11.307  12.167  1.00  0.00    -0.173 NA
HETATM   25  C   UNL     1      42.738 -10.251  12.591  1.00  0.00     0.096 A 
HETATM   26  C   UNL     1      43.874 -10.031  11.776  1.00  0.00     0.071 A 
BRANCH  25  27
HETATM   27  C   UNL     1      42.326  -9.445  13.787  1.00  0.00     0.035 A 
HETATM   28  S   UNL     1      41.948  -7.777  13.747  1.00  0.00    -0.100 SA
HETATM   29  C   UNL     1      41.627  -7.742  15.427  1.00  0.00     0.050 A 
HETATM   30  C   UNL     1      41.805  -8.977  16.011  1.00  0.00     0.008 A 
HETATM   31  C   UNL     1      42.208  -9.962  15.061  1.00  0.00     0.022 A 
ENDBRANCH  25  27
ENDBRANCH  18  21
ENDBRANCH   1  17
TORSDOF 9
ENDMDL
MODEL 2
REMARK VINA RESULT:      -8.5      1.485      2.447
REMARK  9 active torsions:
REMARK  status: ('A' for Active; 'I' for Inactive)
REMARK       I    between atoms: C_2  and  N_3 
REMARK    1  A    between atoms: N_3  and  C_4 
REMARK    2  A    between atoms: C_6  and  O_7 
REMARK    3  A    between atoms: O_7  and  C_8 
REMARK    4  A    between atoms: C_8  and  C_9 
REMARK    5  A    between atoms: C_9  and  C_10 
REMARK    6  A    between atoms: C_10  and  C_11 
REMARK    7  A    between atoms: C_11  and  N_12 
REMARK       I    between atoms: N_12  and  C_13 
REMARK    8  A    between atoms: C_13  and  C_14 
REMARK    9  A    between atoms: C_18  and  C_19 
ROOT
HETATM    1  C   UNL     1      45.120 -13.276   7.696  1.00  0.00     0.217 C 
ENDROOT
BRANCH   1   2
HETATM    2  C   UNL     1      44.516 -14.595   7.243  1.00  0.00    -0.085 C 
BRANCH   2   3
HETATM    3  C   UNL     1      43.997 -15.727   6.856  1.00  0.00    -0.078 C 
BRANCH   3   4
HETATM    4  C   UNL     1      43.394 -17.047   6.404  1.00  0.00     0.269 C 
BRANCH   4   5
HETATM    5  O   UNL     1      44.392 -17.856   5.787  1.00  0.00    -0.339 OA
BRANCH   5   6
HETATM    6  C   UNL     1      44.120 -18.262   4.505  1.00  0.00     0.072 A 
HETATM    7  C   UNL     1      43.587 -17.461   3.487  1.00  0.00     0.066 A 
HETATM    8  C   UNL     1      43.364 -17.980   2.207  1.00  0.00     0.037 A 
HETATM    9  C   UNL     1      43.671 -19.322   1.958  1.00  0.00     0.029 A 
HETATM   10  C   UNL     1      44.197 -20.129   2.968  1.00  0.00     0.005 A 
HETATM   11  C   UNL     1      44.422 -19.597   4.236  1.00  0.00     0.037 A 
BRANCH   8  12
HETATM   12  N   UNL     1      42.843 -17.224   1.133  1.00  0.00    -0.327 N 
HETATM   13  C   UNL     1      41.518 -16.916   0.882  1.00  0.00     0.218 C 
HETATM   14  C   UNL     1      41.342 -16.073  -0.357  1.00  0.00     0.117 C 
HETATM   15  O   UNL     1      40.547 -17.231   1.562  1.00  0.00    -0.274 OA
HETATM   16  H   UNL     1      43.527 -16.853   0.485  1.00  0.00     0.169 HD
ENDBRANCH   8  12
ENDBRANCH   5   6
ENDBRANCH   4   5
ENDBRANCH   3   4
ENDBRANCH   2   3
ENDBRANCH   1   2
BRANCH   1  17
HETATM   17  N   UNL     1      44.361 -12.769   8.808  1.00  0.00    -0.345 N 
HETATM   18  C   UNL     1      44.674 -11.564   9.381  1.00  0.00     0.270 C 
HETATM   19  O   UNL     1      45.633 -10.890   9.021  1.00  0.00    -0.266 OA
HETATM   20  H   UNL     1      43.506 -13.242   9.058  1.00  0.00     0.163 HD
BRANCH  18  21
HETATM   21  C   UNL     1      43.788 -11.134  10.429  1.00  0.00     0.120 A 
HETATM   22  N   UNL     1      42.475 -11.520  10.458  1.00  0.00    -0.272 N 
HETATM   23  H   UNL     1      42.003 -12.115   9.783  1.00  0.00     0.189 HD
HETATM   24  N   UNL     1      41.785 -11.048  11.508  1.00  0.00    -0.173 NA
HETATM   25  C   UNL     1      42.680 -10.313  12.181  1.00  0.00     0.096 A 
HETATM   26  C   UNL     1      43.944 -10.333  11.544  1.00  0.00     0.071 A 
BRANCH  25  27
HETATM   27  C   UNL     1      42.326  -9.587  13.445  1.00  0.00     0.035 A 
HETATM   28  S   UNL     1      41.722  -7.988  13.505  1.00  0.00    -0.100 SA
HETATM   29  C   UNL     1      41.628  -8.018  15.213  1.00  0.00     0.050 A 
HETATM   30  C   UNL     1      42.051  -9.223  15.731  1.00  0.00     0.008 A 
HETATM   31  C   UNL     1      42.454 -10.130  14.706  1.00  0.00     0.022 A 
ENDBRANCH  25  27
ENDBRANCH  18  21
ENDBRANCH   1  17
TORSDOF 9
ENDMDL
MODEL 3
REMARK VINA RESULT:      -8.3      1.793      2.504
REMARK  9 active torsions:
REMARK  status: ('A' for Active; 'I' for Inactive)
REMARK       I    between atoms: C_2  and  N_3 
REMARK    1  A    between atoms: N_3  and  C_4 
REMARK    2  A    between atoms: C_6  and  O_7 
REMARK    3  A    between atoms: O_7  and  C_8 
REMARK    4  A    between atoms: C_8  and  C_9 
REMARK    5  A    between atoms: C_9  and  C_10 
REMARK    6  A    between atoms: C_10  and  C_11 
REMARK    7  A    between atoms: C_11  and  N_12 
REMARK       I    between atoms: N_12  and  C_13 
REMARK    8  A    between atoms: C_13  and  C_14 
REMARK    9  A    between atoms: C_18  and  C_19 
ROOT
HETATM    1  C   UNL     1      45.158 -12.619   7.913  1.00  0.00     0.217 C 
ENDROOT
BRANCH   1   2
HETATM    2  C   UNL     1      44.726 -13.990   7.417  1.00  0.00    -0.085 C 
BRANCH   2   3
HETATM    3  C   UNL     1      44.356 -15.166   6.992  1.00  0.00    -0.078 C 
BRANCH   3   4
HETATM    4  C   UNL     1      43.924 -16.536   6.494  1.00  0.00     0.269 C 
BRANCH   4   5
HETATM    5  O   UNL     1      44.893 -17.515   6.857  1.00  0.00    -0.339 OA
BRANCH   5   6
HETATM    6  C   UNL     1      44.590 -18.809   6.510  1.00  0.00     0.072 A 
HETATM    7  C   UNL     1      44.809 -19.393   5.257  1.00  0.00     0.066 A 
HETATM    8  C   UNL     1      44.473 -20.731   5.020  1.00  0.00     0.037 A 
HETATM    9  C   UNL     1      43.902 -21.479   6.056  1.00  0.00     0.029 A 
HETATM   10  C   UNL     1      43.676 -20.902   7.306  1.00  0.00     0.005 A 
HETATM   11  C   UNL     1      44.022 -19.571   7.531  1.00  0.00     0.037 A 
BRANCH   8  12
HETATM   12  N   UNL     1      44.680 -21.385   3.785  1.00  0.00    -0.327 N 
HETATM   13  C   UNL     1      44.109 -21.080   2.562  1.00  0.00     0.218 C 
HETATM   14  C   UNL     1      44.579 -21.994   1.457  1.00  0.00     0.117 C 
HETATM   15  O   UNL     1      43.328 -20.166   2.321  1.00  0.00    -0.274 OA
HETATM   16  H   UNL     1      45.336 -22.157   3.801  1.00  0.00     0.169 HD
ENDBRANCH   8  12
ENDBRANCH   5   6
ENDBRANCH   4   5
ENDBRANCH   3   4
ENDBRANCH   2   3
ENDBRANCH   1   2
BRANCH   1  17
HETATM   17  N   UNL     1      44.410 -12.292   9.098  1.00  0.00    -0.345 N 
HETATM   18  C   UNL     1      44.725 -11.186   9.844  1.00  0.00     0.270 C 
HETATM   19  O   UNL     1      45.677 -10.460   9.580  1.00  0.00    -0.266 OA
HETATM   20  H   UNL     1      43.559 -12.802   9.282  1.00  0.00     0.163 HD
BRANCH  18  21
HETATM   21  C   UNL     1      43.849 -10.925  10.954  1.00  0.00     0.120 A 
HETATM   22  N   UNL     1      42.826 -11.777  11.273  1.00  0.00    -0.272 N 
HETATM   23  H   UNL     1      42.580 -12.637  10.791  1.00  0.00     0.189 HD
HETATM   24  N   UNL     1      42.110 -11.401  12.345  1.00  0.00    -0.173 NA
HETATM   25  C   UNL     1      42.679 -10.252  12.728  1.00  0.00     0.096 A 
HETATM   26  C   UNL     1      43.766  -9.910  11.888  1.00  0.00     0.071 A 
BRANCH  25  27
HETATM   27  C   UNL     1      42.182  -9.472  13.910  1.00  0.00     0.035 A 
HETATM   28  S   UNL     1      41.555  -7.882  13.825  1.00  0.00    -0.100 SA
HETATM   29  C   UNL     1      41.278  -7.833  15.513  1.00  0.00     0.050 A 
HETATM   30  C   UNL     1      41.656  -9.004  16.132  1.00  0.00     0.008 A 
HETATM   31  C   UNL     1      42.178  -9.952  15.203  1.00  0.00     0.022 A 
ENDBRANCH  25  27
ENDBRANCH  18  21
ENDBRANCH   1  17
TORSDOF 9
ENDMDL
MODEL 4
REMARK VINA RESULT:      -8.1      1.839      2.828
REMARK  9 active torsions:
REMARK  status: ('A' for Active; 'I' for Inactive)
REMARK       I    between atoms: C_2  and  N_3 
REMARK    1  A    between atoms: N_3  and  C_4 
REMARK    2  A    between atoms: C_6  and  O_7 
REMARK    3  A    between atoms: O_7  and  C_8 
REMARK    4  A    between atoms: C_8  and  C_9 
REMARK    5  A    between atoms: C_9  and  C_10 
REMARK    6  A    between atoms: C_10  and  C_11 
REMARK    7  A    between atoms: C_11  and  N_12 
REMARK       I    between atoms: N_12  and  C_13 
REMARK    8  A    between atoms: C_13  and  C_14 
REMARK    9  A    between atoms: C_18  and  C_19 
ROOT
HETATM    1  C   UNL     1      45.337 -13.245   7.748  1.00  0.00     0.217 C 
ENDROOT
BRANCH   1   2
HETATM    2  C   UNL     1      44.718 -14.480   7.114  1.00  0.00    -0.085 C 
BRANCH   2   3
HETATM    3  C   UNL     1      44.186 -15.540   6.571  1.00  0.00    -0.078 C 
BRANCH   3   4
HETATM    4  C   UNL     1      43.567 -16.775   5.938  1.00  0.00     0.269 C 
BRANCH   4   5
HETATM    5  O   UNL     1      42.620 -16.393   4.944  1.00  0.00    -0.339 OA
BRANCH   5   6
HETATM    6  C   UNL     1      42.888 -16.823   3.669  1.00  0.00     0.072 A 
HETATM    7  C   UNL     1      42.428 -16.225   2.489  1.00  0.00     0.066 A 
HETATM    8  C   UNL     1      42.778 -16.744   1.237  1.00  0.00     0.037 A 
HETATM    9  C   UNL     1      43.591 -17.882   1.180  1.00  0.00     0.029 A 
HETATM   10  C   UNL     1      44.049 -18.486   2.351  1.00  0.00     0.005 A 
HETATM   11  C   UNL     1      43.699 -17.955   3.591  1.00  0.00     0.037 A 
BRANCH   8  12
HETATM   12  N   UNL     1      42.360 -16.182   0.010  1.00  0.00    -0.327 N 
HETATM   13  C   UNL     1      41.184 -15.501  -0.250  1.00  0.00     0.218 C 
HETATM   14  C   UNL     1      41.088 -15.033  -1.681  1.00  0.00     0.117 C 
HETATM   15  O   UNL     1      40.290 -15.243   0.549  1.00  0.00    -0.274 OA
HETATM   16  H   UNL     1      43.010 -16.279  -0.761  1.00  0.00     0.169 HD
ENDBRANCH   8  12
ENDBRANCH   5   6
ENDBRANCH   4   5
ENDBRANCH   3   4
ENDBRANCH   2   3
ENDBRANCH   1   2
BRANCH   1  17
HETATM   17  N   UNL     1      44.480 -12.780   8.806  1.00  0.00    -0.345 N 
HETATM   18  C   UNL     1      44.681 -11.555   9.386  1.00  0.00     0.270 C 
HETATM   19  O   UNL     1      45.618 -10.825   9.080  1.00  0.00    -0.266 OA
HETATM   20  H   UNL     1      43.641 -13.304   9.006  1.00  0.00     0.163 HD
BRANCH  18  21
HETATM   21  C   UNL     1      43.706 -11.175  10.372  1.00  0.00     0.120 A 
HETATM   22  N   UNL     1      42.377 -11.463  10.211  1.00  0.00    -0.272 N 
HETATM   23  H   UNL     1      41.952 -11.945   9.424  1.00  0.00     0.189 HD
HETATM   24  N   UNL     1      41.598 -11.055  11.226  1.00  0.00    -0.173 NA
HETATM   25  C   UNL     1      42.451 -10.466  12.073  1.00  0.00     0.096 A 
HETATM   26  C   UNL     1      43.778 -10.511  11.582  1.00  0.00     0.071 A 
BRANCH  25  27
HETATM   27  C   UNL     1      41.996  -9.855  13.366  1.00  0.00     0.035 A 
HETATM   28  S   UNL     1      40.680  -8.772  13.514  1.00  0.00    -0.100 SA
HETATM   29  C   UNL     1      40.907  -8.626  15.203  1.00  0.00     0.050 A 
HETATM   30  C   UNL     1      41.966  -9.386  15.649  1.00  0.00     0.008 A 
HETATM   31  C   UNL     1      42.595 -10.097  14.584  1.00  0.00     0.022 A 
ENDBRANCH  25  27
ENDBRANCH  18  21
ENDBRANCH   1  17
TORSDOF 9
ENDMDL
MODEL 5
REMARK VINA RESULT:      -7.9      1.724      2.182
REMARK  9 active torsions:
REMARK  status: ('A' for Active; 'I' for Inactive)
REMARK       I    between atoms: C_2  and  N_3 
REMARK    1  A    between atoms: N_3  and  C_4 
REMARK    2  A    between atoms: C_6  and  O_7 
REMARK    3  A    between atoms: O_7  and  C_8 
REMARK    4  A    between atoms: C_8  and  C_9 
REMARK    5  A    between atoms: C_9  and  C_10 
REMARK    6  A    between atoms: C_10  and  C_11 
REMARK    7  A    between atoms: C_11  and  N_12 
REMARK       I    between atoms: N_12  and  C_13 
REMARK    8  A    between atoms: C_13  and  C_14 
REMARK    9  A    between atoms: C_18  and  C_19 
ROOT
HETATM    1  C   UNL     1      44.874 -14.277   7.155  1.00  0.00     0.217 C 
ENDROOT
BRANCH   1   2
HETATM    2  C   UNL     1      44.215 -14.160   5.790  1.00  0.00    -0.085 C 
BRANCH   2   3
HETATM    3  C   UNL     1      43.649 -14.058   4.619  1.00  0.00    -0.078 C 
BRANCH   3   4
HETATM    4  C   UNL     1      42.990 -13.941   3.255  1.00  0.00     0.269 C 
BRANCH   4   5
HETATM    5  O   UNL     1      42.100 -15.034   3.045  1.00  0.00    -0.339 OA
BRANCH   5   6
HETATM    6  C   UNL     1      42.692 -16.232   2.732  1.00  0.00     0.072 A 
HETATM    7  C   UNL     1      42.895 -17.301   3.614  1.00  0.00     0.066 A 
HETATM    8  C   UNL     1      43.497 -18.486   3.180  1.00  0.00     0.037 A 
HETATM    9  C   UNL     1      43.908 -18.587   1.846  1.00  0.00     0.029 A 
HETATM   10  C   UNL     1      43.715 -17.525   0.962  1.00  0.00     0.005 A 
HETATM   11  C   UNL     1      43.106 -16.353   1.406  1.00  0.00     0.037 A 
BRANCH   8  12
HETATM   12  N   UNL     1      43.719 -19.606   4.013  1.00  0.00    -0.327 N 
HETATM   13  C   UNL     1      44.505 -19.670   5.150  1.00  0.00     0.218 C 
HETATM   14  C   UNL     1      44.490 -21.036   5.790  1.00  0.00     0.117 C 
HETATM   15  O   UNL     1      45.143 -18.753   5.657  1.00  0.00    -0.274 OA
HETATM   16  H   UNL     1      43.229 -20.452   3.750  1.00  0.00     0.169 HD
ENDBRANCH   8  12
ENDBRANCH   5   6
ENDBRANCH   4   5
ENDBRANCH   3   4
ENDBRANCH   2   3
ENDBRANCH   1   2
BRANCH   1  17
HETATM   17  N   UNL     1      44.217 -13.384   8.072  1.00  0.00    -0.345 N 
HETATM   18  C   UNL     1      44.898 -12.343   8.648  1.00  0.00     0.270 C 
HETATM   19  O   UNL     1      46.095 -12.153   8.462  1.00  0.00    -0.266 OA
HETATM   20  H   UNL     1      43.214 -13.446   8.163  1.00  0.00     0.163 HD
BRANCH  18  21
HETATM   21  C   UNL     1      44.106 -11.477   9.479  1.00  0.00     0.120 A 
HETATM   22  N   UNL     1      42.886 -11.010   9.067  1.00  0.00    -0.272 N 
HETATM   23  H   UNL     1      42.429 -11.207   8.181  1.00  0.00     0.189 HD
HETATM   24  N   UNL     1      42.266 -10.226   9.962  1.00  0.00    -0.173 NA
HETATM   25  C   UNL     1      43.121 -10.167  10.990  1.00  0.00     0.096 A 
HETATM   26  C   UNL     1      44.287 -10.928  10.734  1.00  0.00     0.071 A 
BRANCH  25  27
HETATM   27  C   UNL     1      42.824  -9.378  12.231  1.00  0.00     0.035 A 
HETATM   28  S   UNL     1      41.879  -7.952  12.268  1.00  0.00    -0.100 SA
HETATM   29  C   UNL     1      42.083  -7.783  13.958  1.00  0.00     0.050 A 
HETATM   30  C   UNL     1      42.857  -8.792  14.487  1.00  0.00     0.008 A 
HETATM   31  C   UNL     1      43.284  -9.715  13.487  1.00  0.00     0.022 A 
ENDBRANCH  25  27
ENDBRANCH  18  21
ENDBRANCH   1  17
TORSDOF 9
ENDMDL
MODEL 6
REMARK VINA RESULT:      -7.9      1.579      2.042
REMARK  9 active torsions:
REMARK  status: ('A' for Active; 'I' for Inactive)
REMARK       I    between atoms: C_2  and  N_3 
REMARK    1  A    between atoms: N_3  and  C_4 
REMARK    2  A    between atoms: C_6  and  O_7 
REMARK    3  A    between atoms: O_7  and  C_8 
REMARK    4  A    between atoms: C_8  and  C_9 
REMARK    5  A    between atoms: C_9  and  C_10 
REMARK    6  A    between atoms: C_10  and  C_11 
REMARK    7  A    between atoms: C_11  and  N_12 
REMARK       I    between atoms: N_12  and  C_13 
REMARK    8  A    between atoms: C_13  and  C_14 
REMARK    9  A    between atoms: C_18  and  C_19 
ROOT
HETATM    1  C   UNL     1      44.452 -14.919   7.039  1.00  0.00     0.217 C 
ENDROOT
BRANCH   1   2
HETATM    2  C   UNL     1      43.281 -15.575   6.327  1.00  0.00    -0.085 C 
BRANCH   2   3
HETATM    3  C   UNL     1      42.276 -16.138   5.715  1.00  0.00    -0.078 C 
BRANCH   3   4
HETATM    4  C   UNL     1      41.105 -16.794   5.002  1.00  0.00     0.269 C 
BRANCH   4   5
HETATM    5  O   UNL     1      41.248 -16.650   3.591  1.00  0.00    -0.339 OA
BRANCH   5   6
HETATM    6  C   UNL     1      42.263 -17.376   3.018  1.00  0.00     0.072 A 
HETATM    7  C   UNL     1      42.755 -18.603   3.481  1.00  0.00     0.066 A 
HETATM    8  C   UNL     1      43.787 -19.263   2.806  1.00  0.00     0.037 A 
HETATM    9  C   UNL     1      44.334 -18.672   1.660  1.00  0.00     0.029 A 
HETATM   10  C   UNL     1      43.853 -17.447   1.197  1.00  0.00     0.005 A 
HETATM   11  C   UNL     1      42.818 -16.804   1.874  1.00  0.00     0.037 A 
BRANCH   8  12
HETATM   12  N   UNL     1      44.320 -20.507   3.210  1.00  0.00    -0.327 N 
HETATM   13  C   UNL     1      44.215 -21.723   2.556  1.00  0.00     0.218 C 
HETATM   14  C   UNL     1      44.926 -22.837   3.283  1.00  0.00     0.117 C 
HETATM   15  O   UNL     1      43.652 -21.938   1.487  1.00  0.00    -0.274 OA
HETATM   16  H   UNL     1      44.853 -20.499   4.071  1.00  0.00     0.169 HD
ENDBRANCH   8  12
ENDBRANCH   5   6
ENDBRANCH   4   5
ENDBRANCH   3   4
ENDBRANCH   2   3
ENDBRANCH   1   2
BRANCH   1  17
HETATM   17  N   UNL     1      43.953 -13.903   7.927  1.00  0.00    -0.345 N 
HETATM   18  C   UNL     1      44.734 -12.835   8.282  1.00  0.00     0.270 C 
HETATM   19  O   UNL     1      45.898 -12.716   7.915  1.00  0.00    -0.266 OA
HETATM   20  H   UNL     1      42.971 -13.913   8.160  1.00  0.00     0.163 HD
BRANCH  18  21
HETATM   21  C   UNL     1      44.089 -11.849   9.107  1.00  0.00     0.120 A 
HETATM   22  N   UNL     1      42.988 -11.162   8.670  1.00  0.00    -0.272 N 
HETATM   23  H   UNL     1      42.531 -11.259   7.768  1.00  0.00     0.189 HD
HETATM   24  N   UNL     1      42.494 -10.289   9.562  1.00  0.00    -0.173 NA
HETATM   25  C   UNL     1      43.314 -10.402  10.615  1.00  0.00     0.096 A 
HETATM   26  C   UNL     1      44.328 -11.360  10.377  1.00  0.00     0.071 A 
BRANCH  25  27
HETATM   27  C   UNL     1      43.127  -9.588  11.861  1.00  0.00     0.035 A 
HETATM   28  S   UNL     1      42.386  -8.048  11.910  1.00  0.00    -0.100 SA
HETATM   29  C   UNL     1      42.611  -7.920  13.601  1.00  0.00     0.050 A 
HETATM   30  C   UNL     1      43.241  -9.029  14.122  1.00  0.00     0.008 A 
HETATM   31  C   UNL     1      43.538  -9.994  13.114  1.00  0.00     0.022 A 
ENDBRANCH  25  27
ENDBRANCH  18  21
ENDBRANCH   1  17
TORSDOF 9
ENDMDL
MODEL 7
REMARK VINA RESULT:      -7.8      2.929      3.411
REMARK  9 active torsions:
REMARK  status: ('A' for Active; 'I' for Inactive)
REMARK       I    between atoms: C_2  and  N_3 
REMARK    1  A    between atoms: N_3  and  C_4 
REMARK    2  A    between atoms: C_6  and  O_7 
REMARK    3  A    between atoms: O_7  and  C_8 
REMARK    4  A    between atoms: C_8  and  C_9 
REMARK    5  A    between atoms: C_9  and  C_10 
REMARK    6  A    between atoms: C_10  and  C_11 
REMARK    7  A    between atoms: C_11  and  N_12 
REMARK       I    between atoms: N_12  and  C_13 
REMARK    8  A    between atoms: C_13  and  C_14 
REMARK    9  A    between atoms: C_18  and  C_19 
ROOT
HETATM    1  C   UNL     1      39.458 -12.038   6.661  1.00  0.00     0.217 C 
ENDROOT
BRANCH   1   2
HETATM    2  C   UNL     1      39.973 -13.384   6.179  1.00  0.00    -0.085 C 
BRANCH   2   3
HETATM    3  C   UNL     1      40.414 -14.539   5.764  1.00  0.00    -0.078 C 
BRANCH   3   4
HETATM    4  C   UNL     1      40.928 -15.885   5.280  1.00  0.00     0.269 C 
BRANCH   4   5
HETATM    5  O   UNL     1      41.458 -16.629   6.374  1.00  0.00    -0.339 OA
BRANCH   5   6
HETATM    6  C   UNL     1      42.602 -17.340   6.113  1.00  0.00     0.072 A 
HETATM    7  C   UNL     1      42.713 -18.416   5.223  1.00  0.00     0.066 A 
HETATM    8  C   UNL     1      43.939 -19.060   5.023  1.00  0.00     0.037 A 
HETATM    9  C   UNL     1      45.059 -18.619   5.738  1.00  0.00     0.029 A 
HETATM   10  C   UNL     1      44.955 -17.552   6.631  1.00  0.00     0.005 A 
HETATM   11  C   UNL     1      43.730 -16.914   6.814  1.00  0.00     0.037 A 
BRANCH   8  12
HETATM   12  N   UNL     1      44.123 -20.139   4.131  1.00  0.00    -0.327 N 
HETATM   13  C   UNL     1      44.157 -20.096   2.748  1.00  0.00     0.218 C 
HETATM   14  C   UNL     1      44.387 -21.452   2.130  1.00  0.00     0.117 C 
HETATM   15  O   UNL     1      44.052 -19.100   2.040  1.00  0.00    -0.274 OA
HETATM   16  H   UNL     1      44.261 -21.046   4.561  1.00  0.00     0.169 HD
ENDBRANCH   8  12
ENDBRANCH   5   6
ENDBRANCH   4   5
ENDBRANCH   3   4
ENDBRANCH   2   3
ENDBRANCH   1   2
BRANCH   1  17
HETATM   17  N   UNL     1      39.877 -11.835   8.022  1.00  0.00    -0.345 N 
HETATM   18  C   UNL     1      39.384 -10.791   8.761  1.00  0.00     0.270 C 
HETATM   19  O   UNL     1      38.617  -9.956   8.295  1.00  0.00    -0.266 OA
HETATM   20  H   UNL     1      40.419 -12.560   8.468  1.00  0.00     0.163 HD
BRANCH  18  21
HETATM   21  C   UNL     1      39.818 -10.750  10.131  1.00  0.00     0.120 A 
HETATM   22  N   UNL     1      39.850 -11.879  10.905  1.00  0.00    -0.272 N 
HETATM   23  H   UNL     1      39.583 -12.817  10.621  1.00  0.00     0.189 HD
HETATM   24  N   UNL     1      40.293 -11.677  12.156  1.00  0.00    -0.173 NA
HETATM   25  C   UNL     1      40.545 -10.363  12.203  1.00  0.00     0.096 A 
HETATM   26  C   UNL     1      40.260  -9.740  10.964  1.00  0.00     0.071 A 
BRANCH  25  27
HETATM   27  C   UNL     1      41.066  -9.695  13.441  1.00  0.00     0.035 A 
HETATM   28  S   UNL     1      40.423  -8.257  14.107  1.00  0.00    -0.100 SA
HETATM   29  C   UNL     1      41.561  -8.263  15.385  1.00  0.00     0.050 A 
HETATM   30  C   UNL     1      42.417  -9.339  15.307  1.00  0.00     0.008 A 
HETATM   31  C   UNL     1      42.129 -10.168  14.182  1.00  0.00     0.022 A 
ENDBRANCH  25  27
ENDBRANCH  18  21
ENDBRANCH   1  17
TORSDOF 9
ENDMDL
MODEL 8
REMARK VINA RESULT:      -7.6      2.979      3.212
REMARK  9 active torsions:
REMARK  status: ('A' for Active; 'I' for Inactive)
REMARK       I    between atoms: C_2  and  N_3 
REMARK    1  A    between atoms: N_3  and  C_4 
REMARK    2  A    between atoms: C_6  and  O_7 
REMARK    3  A    between atoms: O_7  and  C_8 
REMARK    4  A    between atoms: C_8  and  C_9 
REMARK    5  A    between atoms: C_9  and  C_10 
REMARK    6  A    between atoms: C_10  and  C_11 
REMARK    7  A    between atoms: C_11  and  N_12 
REMARK       I    between atoms: N_12  and  C_13 
REMARK    8  A    between atoms: C_13  and  C_14 
REMARK    9  A    between atoms: C_18  and  C_19 
ROOT
HETATM    1  C   UNL     1      39.428 -12.515   6.260  1.00  0.00     0.217 C 
ENDROOT
BRANCH   1   2
HETATM    2  C   UNL     1      40.022 -13.847   5.830  1.00  0.00    -0.085 C 
BRANCH   2   3
HETATM    3  C   UNL     1      40.530 -14.990   5.460  1.00  0.00    -0.078 C 
BRANCH   3   4
HETATM    4  C   UNL     1      41.123 -16.321   5.030  1.00  0.00     0.269 C 
BRANCH   4   5
HETATM    5  O   UNL     1      41.245 -16.368   3.611  1.00  0.00    -0.339 OA
BRANCH   5   6
HETATM    6  C   UNL     1      42.255 -17.160   3.125  1.00  0.00     0.072 A 
HETATM    7  C   UNL     1      42.698 -18.361   3.692  1.00  0.00     0.066 A 
HETATM    8  C   UNL     1      43.731 -19.096   3.100  1.00  0.00     0.037 A 
HETATM    9  C   UNL     1      44.328 -18.606   1.933  1.00  0.00     0.029 A 
HETATM   10  C   UNL     1      43.896 -17.407   1.365  1.00  0.00     0.005 A 
HETATM   11  C   UNL     1      42.860 -16.689   1.961  1.00  0.00     0.037 A 
BRANCH   8  12
HETATM   12  N   UNL     1      44.216 -20.321   3.611  1.00  0.00    -0.327 N 
HETATM   13  C   UNL     1      44.630 -20.592   4.904  1.00  0.00     0.218 C 
HETATM   14  C   UNL     1      45.073 -22.022   5.084  1.00  0.00     0.117 C 
HETATM   15  O   UNL     1      44.632 -19.817   5.854  1.00  0.00    -0.274 OA
HETATM   16  H   UNL     1      44.247 -21.090   2.953  1.00  0.00     0.169 HD
ENDBRANCH   8  12
ENDBRANCH   5   6
ENDBRANCH   4   5
ENDBRANCH   3   4
ENDBRANCH   2   3
ENDBRANCH   1   2
BRANCH   1  17
HETATM   17  N   UNL     1      39.880 -12.208   7.591  1.00  0.00    -0.345 N 
HETATM   18  C   UNL     1      39.477 -11.060   8.222  1.00  0.00     0.270 C 
HETATM   19  O   UNL     1      38.767 -10.221   7.677  1.00  0.00    -0.266 OA
HETATM   20  H   UNL     1      40.373 -12.922   8.104  1.00  0.00     0.163 HD
BRANCH  18  21
HETATM   21  C   UNL     1      39.932 -10.913   9.578  1.00  0.00     0.120 A 
HETATM   22  N   UNL     1      39.746 -11.903  10.506  1.00  0.00    -0.272 N 
HETATM   23  H   UNL     1      39.290 -12.798  10.354  1.00  0.00     0.189 HD
HETATM   24  N   UNL     1      40.240 -11.619  11.721  1.00  0.00    -0.173 NA
HETATM   25  C   UNL     1      40.755 -10.391  11.583  1.00  0.00     0.096 A 
HETATM   26  C   UNL     1      40.583  -9.906  10.264  1.00  0.00     0.071 A 
BRANCH  25  27
HETATM   27  C   UNL     1      41.420  -9.673  12.720  1.00  0.00     0.035 A 
HETATM   28  S   UNL     1      40.969  -8.120  13.280  1.00  0.00    -0.100 SA
HETATM   29  C   UNL     1      42.182  -8.132  14.486  1.00  0.00     0.050 A 
HETATM   30  C   UNL     1      42.919  -9.296  14.464  1.00  0.00     0.008 A 
HETATM   31  C   UNL     1      42.476 -10.187  13.443  1.00  0.00     0.022 A 
ENDBRANCH  25  27
ENDBRANCH  18  21
ENDBRANCH   1  17
TORSDOF 9
ENDMDL
MODEL 9
REMARK VINA RESULT:      -7.6      4.008     10.203
REMARK  9 active torsions:
REMARK  status: ('A' for Active; 'I' for Inactive)
REMARK       I    between atoms: C_2  and  N_3 
REMARK    1  A    between atoms: N_3  and  C_4 
REMARK    2  A    between atoms: C_6  and  O_7 
REMARK    3  A    between atoms: O_7  and  C_8 
REMARK    4  A    between atoms: C_8  and  C_9 
REMARK    5  A    between atoms: C_9  and  C_10 
REMARK    6  A    between atoms: C_10  and  C_11 
REMARK    7  A    between atoms: C_11  and  N_12 
REMARK       I    between atoms: N_12  and  C_13 
REMARK    8  A    between atoms: C_13  and  C_14 
REMARK    9  A    between atoms: C_18  and  C_19 
ROOT
HETATM    1  C   UNL     1      39.902 -12.056   6.068  1.00  0.00     0.217 C 
ENDROOT
BRANCH   1   2
HETATM    2  C   UNL     1      39.771 -11.438   7.450  1.00  0.00    -0.085 C 
BRANCH   2   3
HETATM    3  C   UNL     1      39.658 -10.909   8.637  1.00  0.00    -0.078 C 
BRANCH   3   4
HETATM    4  C   UNL     1      39.528 -10.293  10.021  1.00  0.00     0.269 C 
BRANCH   4   5
HETATM    5  O   UNL     1      40.141 -11.136  10.992  1.00  0.00    -0.339 OA
BRANCH   5   6
HETATM    6  C   UNL     1      41.474 -10.905  11.224  1.00  0.00     0.072 A 
HETATM    7  C   UNL     1      42.510 -11.082  10.299  1.00  0.00     0.066 A 
HETATM    8  C   UNL     1      43.836 -10.800  10.642  1.00  0.00     0.037 A 
HETATM    9  C   UNL     1      44.118 -10.346  11.936  1.00  0.00     0.029 A 
HETATM   10  C   UNL     1      43.093 -10.172  12.866  1.00  0.00     0.005 A 
HETATM   11  C   UNL     1      41.775 -10.449  12.508  1.00  0.00     0.037 A 
BRANCH   8  12
HETATM   12  N   UNL     1      44.925 -10.942   9.754  1.00  0.00    -0.327 N 
HETATM   13  C   UNL     1      45.354 -12.097   9.123  1.00  0.00     0.218 C 
HETATM   14  C   UNL     1      46.548 -11.863   8.231  1.00  0.00     0.117 C 
HETATM   15  O   UNL     1      44.852 -13.213   9.207  1.00  0.00    -0.274 OA
HETATM   16  H   UNL     1      45.437 -10.093   9.546  1.00  0.00     0.169 HD
ENDBRANCH   8  12
ENDBRANCH   5   6
ENDBRANCH   4   5
ENDBRANCH   3   4
ENDBRANCH   2   3
ENDBRANCH   1   2
BRANCH   1  17
HETATM   17  N   UNL     1      40.666 -13.271   6.167  1.00  0.00    -0.345 N 
HETATM   18  C   UNL     1      41.850 -13.414   5.491  1.00  0.00     0.270 C 
HETATM   19  O   UNL     1      42.287 -12.552   4.736  1.00  0.00    -0.266 OA
HETATM   20  H   UNL     1      40.391 -13.953   6.858  1.00  0.00     0.163 HD
BRANCH  18  21
HETATM   21  C   UNL     1      42.555 -14.642   5.741  1.00  0.00     0.120 A 
HETATM   22  N   UNL     1      43.436 -14.761   6.782  1.00  0.00    -0.272 N 
HETATM   23  H   UNL     1      43.681 -14.040   7.454  1.00  0.00     0.189 HD
HETATM   24  N   UNL     1      44.000 -15.974   6.889  1.00  0.00    -0.173 NA
HETATM   25  C   UNL     1      43.478 -16.667   5.869  1.00  0.00     0.096 A 
HETATM   26  C   UNL     1      42.573 -15.876   5.120  1.00  0.00     0.071 A 
BRANCH  25  27
HETATM   27  C   UNL     1      43.844 -18.098   5.607  1.00  0.00     0.035 A 
HETATM   28  S   UNL     1      43.906 -19.316   6.806  1.00  0.00    -0.100 SA
HETATM   29  C   UNL     1      44.375 -20.504   5.667  1.00  0.00     0.050 A 
HETATM   30  C   UNL     1      44.485 -19.984   4.396  1.00  0.00     0.008 A 
HETATM   31  C   UNL     1      44.176 -18.592   4.362  1.00  0.00     0.022 A 
ENDBRANCH  25  27
ENDBRANCH  18  21
ENDBRANCH   1  17
TORSDOF 9
ENDMDL
MODEL 10
REMARK VINA RESULT:      -7.5      6.093      9.079
REMARK  9 active torsions:
REMARK  status: ('A' for Active; 'I' for Inactive)
REMARK       I    between atoms: C_2  and  N_3 
REMARK    1  A    between atoms: N_3  and  C_4 
REMARK    2  A    between atoms: C_6  and  O_7 
REMARK    3  A    between atoms: O_7  and  C_8 
REMARK    4  A    between atoms: C_8  and  C_9 
REMARK    5  A    between atoms: C_9  and  C_10 
REMARK    6  A    between atoms: C_10  and  C_11 
REMARK    7  A    between atoms: C_11  and  N_12 
REMARK       I    between atoms: N_12  and  C_13 
REMARK    8  A    between atoms: C_13  and  C_14 
REMARK    9  A    between atoms: C_18  and  C_19 
ROOT
HETATM    1  C   UNL     1      44.498 -14.094   6.910  1.00  0.00     0.217 C 
ENDROOT
BRANCH   1   2
HETATM    2  C   UNL     1      43.260 -13.449   6.309  1.00  0.00    -0.085 C 
BRANCH   2   3
HETATM    3  C   UNL     1      42.198 -12.894   5.794  1.00  0.00    -0.078 C 
BRANCH   3   4
HETATM    4  C   UNL     1      40.960 -12.248   5.194  1.00  0.00     0.269 C 
BRANCH   4   5
HETATM    5  O   UNL     1      39.921 -13.214   5.058  1.00  0.00    -0.339 OA
BRANCH   5   6
HETATM    6  C   UNL     1      40.334 -14.515   4.907  1.00  0.00     0.072 A 
HETATM    7  C   UNL     1      40.868 -15.075   3.740  1.00  0.00     0.066 A 
HETATM    8  C   UNL     1      41.270 -16.415   3.706  1.00  0.00     0.037 A 
HETATM    9  C   UNL     1      41.120 -17.196   4.857  1.00  0.00     0.029 A 
HETATM   10  C   UNL     1      40.583 -16.647   6.022  1.00  0.00     0.005 A 
HETATM   11  C   UNL     1      40.194 -15.309   6.045  1.00  0.00     0.037 A 
BRANCH   8  12
HETATM   12  N   UNL     1      41.829 -17.037   2.568  1.00  0.00    -0.327 N 
HETATM   13  C   UNL     1      43.113 -16.892   2.071  1.00  0.00     0.218 C 
HETATM   14  C   UNL     1      43.357 -17.729   0.840  1.00  0.00     0.117 C 
HETATM   15  O   UNL     1      44.012 -16.205   2.543  1.00  0.00    -0.274 OA
HETATM   16  H   UNL     1      41.219 -17.676   2.072  1.00  0.00     0.169 HD
ENDBRANCH   8  12
ENDBRANCH   5   6
ENDBRANCH   4   5
ENDBRANCH   3   4
ENDBRANCH   2   3
ENDBRANCH   1   2
BRANCH   1  17
HETATM   17  N   UNL     1      44.555 -15.472   6.501  1.00  0.00    -0.345 N 
HETATM   18  C   UNL     1      44.095 -16.469   7.322  1.00  0.00     0.270 C 
HETATM   19  O   UNL     1      43.670 -16.250   8.452  1.00  0.00    -0.266 OA
HETATM   20  H   UNL     1      44.796 -15.677   5.543  1.00  0.00     0.163 HD
BRANCH  18  21
HETATM   21  C   UNL     1      44.131 -17.792   6.761  1.00  0.00     0.120 A 
HETATM   22  N   UNL     1      43.869 -18.899   7.524  1.00  0.00    -0.272 N 
HETATM   23  H   UNL     1      43.637 -18.913   8.513  1.00  0.00     0.189 HD
HETATM   24  N   UNL     1      43.928 -20.058   6.850  1.00  0.00    -0.173 NA
HETATM   25  C   UNL     1      44.257 -19.694   5.604  1.00  0.00     0.096 A 
HETATM   26  C   UNL     1      44.399 -18.289   5.500  1.00  0.00     0.071 A 
BRANCH  25  27
HETATM   27  C   UNL     1      44.435 -20.695   4.501  1.00  0.00     0.035 A 
HETATM   28  S   UNL     1      44.787 -22.350   4.745  1.00  0.00    -0.100 SA
HETATM   29  C   UNL     1      44.809 -22.660   3.062  1.00  0.00     0.050 A 
HETATM   30  C   UNL     1      44.554 -21.524   2.326  1.00  0.00     0.008 A 
HETATM   31  C   UNL     1      44.336 -20.387   3.160  1.00  0.00     0.022 A 
ENDBRANCH  25  27
ENDBRANCH  18  21
ENDBRANCH   1  17
TORSDOF 9
ENDMDL
