MODEL 1
REMARK VINA RESULT:      -9.6      0.000      0.000
REMARK  7 active torsions:
REMARK  status: ('A' for Active; 'I' for Inactive)
REMARK    1  A    between atoms: O_2  and  C_3 
REMARK    2  A    between atoms: C_6  and  C_7 
REMARK    3  A    between atoms: C_11  and  C_12 
REMARK       I    between atoms: C_12  and  N_13 
REMARK    4  A    between atoms: N_13  and  N_14 
REMARK       I    between atoms: N_14  and  C_15 
REMARK    5  A    between atoms: C_15  and  C_16 
REMARK    6  A    between atoms: C_16  and  C_17 
REMARK    7  A    between atoms: C_17  and  C_18 
ROOT
HETATM    1  C   UNL     1      44.807 -13.318   8.109  1.00  0.00     0.288 C 
HETATM    2  N   UNL     1      44.090 -14.451   7.793  1.00  0.00    -0.262 N 
HETATM    3  O   UNL     1      45.917 -13.100   7.626  1.00  0.00    -0.264 OA
HETATM    4  H   UNL     1      43.158 -14.655   8.145  1.00  0.00     0.190 HD
ENDROOT
BRANCH   1   5
HETATM    5  C   UNL     1      44.168 -12.411   9.022  1.00  0.00     0.121 A 
HETATM    6  N   UNL     1      43.316 -11.437   8.586  1.00  0.00    -0.272 N 
HETATM    7  N   UNL     1      42.767 -10.707   9.566  1.00  0.00    -0.174 NA
HETATM    8  H   UNL     1      43.061 -11.236   7.623  1.00  0.00     0.189 HD
HETATM    9  C   UNL     1      43.292 -11.205  10.696  1.00  0.00     0.089 A 
HETATM   10  C   UNL     1      44.187 -12.271  10.396  1.00  0.00     0.071 A 
BRANCH   9  11
HETATM   11  C   UNL     1      42.914 -10.688  12.015  1.00  0.00    -0.005 A 
HETATM   12  C   UNL     1      41.761 -11.162  12.657  1.00  0.00     0.016 A 
HETATM   13  C   UNL     1      41.408 -10.712  13.936  1.00  0.00     0.037 A 
HETATM   14  C   UNL     1      42.205  -9.776  14.591  1.00  0.00     0.068 A 
HETATM   15  C   UNL     1      43.340  -9.279  13.948  1.00  0.00     0.037 A 
HETATM   16  C   UNL     1      43.697  -9.732  12.673  1.00  0.00     0.016 A 
BRANCH  14  17
HETATM   17  O   UNL     1      41.983  -9.265  15.840  1.00  0.00    -0.356 OA
HETATM   18  C   UNL     1      41.637  -7.888  15.912  1.00  0.00     0.210 C 
ENDBRANCH  14  17
ENDBRANCH   9  11
ENDBRANCH   1   5
BRANCH   2  19
HETATM   19  N   UNL     1      44.618 -15.346   6.858  1.00  0.00    -0.267 N 
HETATM   20  C   UNL     1      44.167 -16.647   6.877  1.00  0.00     0.236 C 
HETATM   21  O   UNL     1      43.393 -17.072   7.733  1.00  0.00    -0.272 OA
HETATM   22  H   UNL     1      45.145 -14.941   6.086  1.00  0.00     0.190 HD
BRANCH  20  23
HETATM   23  C   UNL     1      44.708 -17.508   5.762  1.00  0.00     0.109 C 
BRANCH  23  24
HETATM   24  C   UNL     1      44.537 -18.989   6.085  1.00  0.00     0.048 C 
BRANCH  24  25
HETATM   25  C   UNL     1      44.471 -19.833   4.836  1.00  0.00    -0.058 A 
HETATM   26  C   UNL     1      44.082 -19.265   3.612  1.00  0.00     0.010 A 
HETATM   27  C   UNL     1      44.012 -20.052   2.461  1.00  0.00     0.043 A 
HETATM   28  C   UNL     1      44.327 -21.403   2.533  1.00  0.00     0.116 A 
HETATM   29  F   UNL     1      44.259 -22.156   1.428  1.00  0.00    -0.206 F 
HETATM   30  C   UNL     1      44.712 -21.985   3.736  1.00  0.00     0.043 A 
HETATM   31  C   UNL     1      44.786 -21.200   4.888  1.00  0.00     0.010 A 
ENDBRANCH  24  25
ENDBRANCH  23  24
ENDBRANCH  20  23
ENDBRANCH   2  19
TORSDOF 7
ENDMDL
MODEL 2
REMARK VINA RESULT:      -9.3      4.197     11.747
REMARK  7 active torsions:
REMARK  status: ('A' for Active; 'I' for Inactive)
REMARK    1  A    between atoms: O_2  and  C_3 
REMARK    2  A    between atoms: C_6  and  C_7 
REMARK    3  A    between atoms: C_11  and  C_12 
REMARK       I    between atoms: C_12  and  N_13 
REMARK    4  A    between atoms: N_13  and  N_14 
REMARK       I    between atoms: N_14  and  C_15 
REMARK    5  A    between atoms: C_15  and  C_16 
REMARK    6  A    between atoms: C_16  and  C_17 
REMARK    7  A    between atoms: C_17  and  C_18 
ROOT
HETATM    1  C   UNL     1      42.778 -13.329   6.289  1.00  0.00     0.288 C 
HETATM    2  N   UNL     1      43.644 -13.312   7.360  1.00  0.00    -0.262 N 
HETATM    3  O   UNL     1      41.953 -12.434   6.110  1.00  0.00    -0.264 OA
HETATM    4  H   UNL     1      44.361 -14.015   7.528  1.00  0.00     0.190 HD
ENDROOT
BRANCH   1   5
HETATM    5  C   UNL     1      42.913 -14.447   5.397  1.00  0.00     0.121 A 
HETATM    6  N   UNL     1      42.612 -14.346   4.069  1.00  0.00    -0.272 N 
HETATM    7  N   UNL     1      42.837 -15.464   3.367  1.00  0.00    -0.174 NA
HETATM    8  H   UNL     1      42.261 -13.525   3.584  1.00  0.00     0.189 HD
HETATM    9  C   UNL     1      43.286 -16.349   4.270  1.00  0.00     0.089 A 
HETATM   10  C   UNL     1      43.337 -15.751   5.561  1.00  0.00     0.071 A 
BRANCH   9  11
HETATM   11  C   UNL     1      43.681 -17.708   3.888  1.00  0.00    -0.005 A 
HETATM   12  C   UNL     1      44.300 -18.554   4.818  1.00  0.00     0.016 A 
HETATM   13  C   UNL     1      44.643 -19.870   4.484  1.00  0.00     0.037 A 
HETATM   14  C   UNL     1      44.375 -20.359   3.208  1.00  0.00     0.068 A 
HETATM   15  C   UNL     1      43.782 -19.515   2.266  1.00  0.00     0.037 A 
HETATM   16  C   UNL     1      43.434 -18.202   2.600  1.00  0.00     0.016 A 
BRANCH  14  17
HETATM   17  O   UNL     1      44.645 -21.622   2.757  1.00  0.00    -0.356 OA
HETATM   18  C   UNL     1      44.093 -21.979   1.496  1.00  0.00     0.210 C 
ENDBRANCH  14  17
ENDBRANCH   9  11
ENDBRANCH   1   5
BRANCH   2  19
HETATM   19  N   UNL     1      43.619 -12.220   8.232  1.00  0.00    -0.267 N 
HETATM   20  C   UNL     1      44.649 -12.086   9.135  1.00  0.00     0.236 C 
HETATM   21  O   UNL     1      45.534 -12.930   9.267  1.00  0.00    -0.272 OA
HETATM   22  H   UNL     1      42.959 -11.476   8.013  1.00  0.00     0.190 HD
BRANCH  20  23
HETATM   23  C   UNL     1      44.595 -10.821   9.956  1.00  0.00     0.109 C 
BRANCH  23  24
HETATM   24  C   UNL     1      43.154 -10.370  10.170  1.00  0.00     0.048 C 
BRANCH  24  25
HETATM   25  C   UNL     1      42.804 -10.282  11.635  1.00  0.00    -0.058 A 
HETATM   26  C   UNL     1      43.596  -9.525  12.513  1.00  0.00     0.010 A 
HETATM   27  C   UNL     1      43.274  -9.455  13.869  1.00  0.00     0.043 A 
HETATM   28  C   UNL     1      42.165 -10.143  14.348  1.00  0.00     0.116 A 
HETATM   29  F   UNL     1      41.859 -10.075  15.650  1.00  0.00    -0.206 F 
HETATM   30  C   UNL     1      41.371 -10.900  13.496  1.00  0.00     0.043 A 
HETATM   31  C   UNL     1      41.689 -10.970  12.139  1.00  0.00     0.010 A 
ENDBRANCH  24  25
ENDBRANCH  23  24
ENDBRANCH  20  23
ENDBRANCH   2  19
TORSDOF 7
ENDMDL
MODEL 3
REMARK VINA RESULT:      -8.6      1.886      2.662
REMARK  7 active torsions:
REMARK  status: ('A' for Active; 'I' for Inactive)
REMARK    1  A    between atoms: O_2  and  C_3 
REMARK    2  A    between atoms: C_6  and  C_7 
REMARK    3  A    between atoms: C_11  and  C_12 
REMARK       I    between atoms: C_12  and  N_13 
REMARK    4  A    between atoms: N_13  and  N_14 
REMARK       I    between atoms: N_14  and  C_15 
REMARK    5  A    between atoms: C_15  and  C_16 
REMARK    6  A    between atoms: C_16  and  C_17 
REMARK    7  A    between atoms: C_17  and  C_18 
ROOT
HETATM    1  C   UNL     1      44.121 -14.178   5.868  1.00  0.00     0.288 C 
HETATM    2  N   UNL     1      43.661 -15.466   6.029  1.00  0.00    -0.262 N 
HETATM    3  O   UNL     1      44.376 -13.716   4.756  1.00  0.00    -0.264 OA
HETATM    4  H   UNL     1      43.410 -15.876   6.926  1.00  0.00     0.190 HD
ENDROOT
BRANCH   1   5
HETATM    5  C   UNL     1      44.269 -13.414   7.075  1.00  0.00     0.121 A 
HETATM    6  N   UNL     1      45.446 -13.386   7.767  1.00  0.00    -0.272 N 
HETATM    7  N   UNL     1      45.434 -12.589   8.844  1.00  0.00    -0.174 NA
HETATM    8  H   UNL     1      46.301 -13.885   7.537  1.00  0.00     0.189 HD
HETATM    9  C   UNL     1      44.191 -12.083   8.878  1.00  0.00     0.089 A 
HETATM   10  C   UNL     1      43.424 -12.587   7.790  1.00  0.00     0.071 A 
BRANCH   9  11
HETATM   11  C   UNL     1      43.777 -11.125   9.908  1.00  0.00    -0.005 A 
HETATM   12  C   UNL     1      42.642 -10.325   9.714  1.00  0.00     0.016 A 
HETATM   13  C   UNL     1      42.206  -9.436  10.706  1.00  0.00     0.037 A 
HETATM   14  C   UNL     1      42.904  -9.332  11.906  1.00  0.00     0.068 A 
HETATM   15  C   UNL     1      44.051 -10.106  12.097  1.00  0.00     0.037 A 
HETATM   16  C   UNL     1      44.484 -10.999  11.110  1.00  0.00     0.016 A 
BRANCH  14  17
HETATM   17  O   UNL     1      42.581  -8.518  12.957  1.00  0.00    -0.356 OA
HETATM   18  C   UNL     1      42.357  -9.154  14.209  1.00  0.00     0.210 C 
ENDBRANCH  14  17
ENDBRANCH   9  11
ENDBRANCH   1   5
BRANCH   2  19
HETATM   19  N   UNL     1      43.426 -16.247   4.894  1.00  0.00    -0.267 N 
HETATM   20  C   UNL     1      42.211 -16.884   4.784  1.00  0.00     0.236 C 
HETATM   21  O   UNL     1      41.367 -16.869   5.679  1.00  0.00    -0.272 OA
HETATM   22  H   UNL     1      44.077 -16.133   4.120  1.00  0.00     0.190 HD
BRANCH  20  23
HETATM   23  C   UNL     1      42.006 -17.610   3.477  1.00  0.00     0.109 C 
BRANCH  23  24
HETATM   24  C   UNL     1      43.340 -17.880   2.788  1.00  0.00     0.048 C 
BRANCH  24  25
HETATM   25  C   UNL     1      43.754 -19.325   2.910  1.00  0.00    -0.058 A 
HETATM   26  C   UNL     1      44.444 -19.776   4.047  1.00  0.00     0.010 A 
HETATM   27  C   UNL     1      44.833 -21.112   4.151  1.00  0.00     0.043 A 
HETATM   28  C   UNL     1      44.537 -21.996   3.120  1.00  0.00     0.116 A 
HETATM   29  F   UNL     1      44.913 -23.277   3.222  1.00  0.00    -0.206 F 
HETATM   30  C   UNL     1      43.858 -21.569   1.986  1.00  0.00     0.043 A 
HETATM   31  C   UNL     1      43.464 -20.234   1.880  1.00  0.00     0.010 A 
ENDBRANCH  24  25
ENDBRANCH  23  24
ENDBRANCH  20  23
ENDBRANCH   2  19
TORSDOF 7
ENDMDL
MODEL 4
REMARK VINA RESULT:      -8.4      9.018     12.756
REMARK  7 active torsions:
REMARK  status: ('A' for Active; 'I' for Inactive)
REMARK    1  A    between atoms: O_2  and  C_3 
REMARK    2  A    between atoms: C_6  and  C_7 
REMARK    3  A    between atoms: C_11  and  C_12 
REMARK       I    between atoms: C_12  and  N_13 
REMARK    4  A    between atoms: N_13  and  N_14 
REMARK       I    between atoms: N_14  and  C_15 
REMARK    5  A    between atoms: C_15  and  C_16 
REMARK    6  A    between atoms: C_16  and  C_17 
REMARK    7  A    between atoms: C_17  and  C_18 
ROOT
HETATM    1  C   UNL     1      41.003 -15.026  -0.651  1.00  0.00     0.288 C 
HETATM    2  N   UNL     1      41.057 -16.328  -0.202  1.00  0.00    -0.262 N 
HETATM    3  O   UNL     1      41.714 -14.146  -0.167  1.00  0.00    -0.264 OA
HETATM    4  H   UNL     1      40.510 -17.091  -0.595  1.00  0.00     0.190 HD
ENDROOT
BRANCH   1   5
HETATM    5  C   UNL     1      40.080 -14.774  -1.722  1.00  0.00     0.121 A 
HETATM    6  N   UNL     1      40.254 -15.318  -2.962  1.00  0.00    -0.272 N 
HETATM    7  N   UNL     1      39.280 -15.024  -3.834  1.00  0.00    -0.174 NA
HETATM    8  H   UNL     1      41.019 -15.915  -3.264  1.00  0.00     0.189 HD
HETATM    9  C   UNL     1      38.436 -14.236  -3.149  1.00  0.00     0.089 A 
HETATM   10  C   UNL     1      38.910 -14.046  -1.820  1.00  0.00     0.071 A 
BRANCH   9  11
HETATM   11  C   UNL     1      37.204 -13.719  -3.751  1.00  0.00    -0.005 A 
HETATM   12  C   UNL     1      36.406 -14.546  -4.553  1.00  0.00     0.016 A 
HETATM   13  C   UNL     1      35.203 -14.082  -5.100  1.00  0.00     0.037 A 
HETATM   14  C   UNL     1      34.783 -12.777  -4.856  1.00  0.00     0.068 A 
HETATM   15  C   UNL     1      35.585 -11.937  -4.080  1.00  0.00     0.037 A 
HETATM   16  C   UNL     1      36.784 -12.401  -3.528  1.00  0.00     0.016 A 
BRANCH  14  17
HETATM   17  O   UNL     1      33.630 -12.203  -5.316  1.00  0.00    -0.356 OA
HETATM   18  C   UNL     1      32.601 -11.985  -4.359  1.00  0.00     0.210 C 
ENDBRANCH  14  17
ENDBRANCH   9  11
ENDBRANCH   1   5
BRANCH   2  19
HETATM   19  N   UNL     1      41.982 -16.664   0.790  1.00  0.00    -0.267 N 
HETATM   20  C   UNL     1      41.503 -17.017   2.031  1.00  0.00     0.236 C 
HETATM   21  O   UNL     1      40.310 -16.961   2.327  1.00  0.00    -0.272 OA
HETATM   22  H   UNL     1      42.939 -16.832   0.484  1.00  0.00     0.190 HD
BRANCH  20  23
HETATM   23  C   UNL     1      42.567 -17.471   3.001  1.00  0.00     0.109 C 
BRANCH  23  24
HETATM   24  C   UNL     1      43.773 -18.041   2.261  1.00  0.00     0.048 C 
BRANCH  24  25
HETATM   25  C   UNL     1      44.036 -19.478   2.639  1.00  0.00    -0.058 A 
HETATM   26  C   UNL     1      43.704 -20.519   1.758  1.00  0.00     0.010 A 
HETATM   27  C   UNL     1      43.940 -21.847   2.116  1.00  0.00     0.043 A 
HETATM   28  C   UNL     1      44.504 -22.135   3.353  1.00  0.00     0.116 A 
HETATM   29  F   UNL     1      44.730 -23.410   3.694  1.00  0.00    -0.206 F 
HETATM   30  C   UNL     1      44.838 -21.118   4.240  1.00  0.00     0.043 A 
HETATM   31  C   UNL     1      44.606 -19.789   3.883  1.00  0.00     0.010 A 
ENDBRANCH  24  25
ENDBRANCH  23  24
ENDBRANCH  20  23
ENDBRANCH   2  19
TORSDOF 7
ENDMDL
MODEL 5
REMARK VINA RESULT:      -8.3      4.368     11.679
REMARK  7 active torsions:
REMARK  status: ('A' for Active; 'I' for Inactive)
REMARK    1  A    between atoms: O_2  and  C_3 
REMARK    2  A    between atoms: C_6  and  C_7 
REMARK    3  A    between atoms: C_11  and  C_12 
REMARK       I    between atoms: C_12  and  N_13 
REMARK    4  A    between atoms: N_13  and  N_14 
REMARK       I    between atoms: N_14  and  C_15 
REMARK    5  A    between atoms: C_15  and  C_16 
REMARK    6  A    between atoms: C_16  and  C_17 
REMARK    7  A    between atoms: C_17  and  C_18 
ROOT
HETATM    1  C   UNL     1      42.976 -13.370   6.432  1.00  0.00     0.288 C 
HETATM    2  N   UNL     1      41.836 -12.597   6.472  1.00  0.00    -0.262 N 
HETATM    3  O   UNL     1      43.927 -13.158   7.182  1.00  0.00    -0.264 OA
HETATM    4  H   UNL     1      41.016 -12.756   5.892  1.00  0.00     0.190 HD
ENDROOT
BRANCH   1   5
HETATM    5  C   UNL     1      42.969 -14.440   5.473  1.00  0.00     0.121 A 
HETATM    6  N   UNL     1      42.437 -14.281   4.226  1.00  0.00    -0.272 N 
HETATM    7  N   UNL     1      42.552 -15.358   3.437  1.00  0.00    -0.174 NA
HETATM    8  H   UNL     1      41.993 -13.446   3.854  1.00  0.00     0.189 HD
HETATM    9  C   UNL     1      43.168 -16.274   4.200  1.00  0.00     0.089 A 
HETATM   10  C   UNL     1      43.436 -15.739   5.491  1.00  0.00     0.071 A 
BRANCH   9  11
HETATM   11  C   UNL     1      43.511 -17.602   3.683  1.00  0.00    -0.005 A 
HETATM   12  C   UNL     1      43.271 -17.923   2.340  1.00  0.00     0.016 A 
HETATM   13  C   UNL     1      43.633 -19.172   1.818  1.00  0.00     0.037 A 
HETATM   14  C   UNL     1      44.238 -20.122   2.637  1.00  0.00     0.068 A 
HETATM   15  C   UNL     1      44.456 -19.821   3.984  1.00  0.00     0.037 A 
HETATM   16  C   UNL     1      44.101 -18.572   4.505  1.00  0.00     0.016 A 
BRANCH  14  17
HETATM   17  O   UNL     1      44.650 -21.369   2.255  1.00  0.00    -0.356 OA
HETATM   18  C   UNL     1      44.486 -22.413   3.206  1.00  0.00     0.210 C 
ENDBRANCH  14  17
ENDBRANCH   9  11
ENDBRANCH   1   5
BRANCH   2  19
HETATM   19  N   UNL     1      41.742 -11.581   7.427  1.00  0.00    -0.267 N 
HETATM   20  C   UNL     1      40.487 -11.164   7.810  1.00  0.00     0.236 C 
HETATM   21  O   UNL     1      39.457 -11.580   7.284  1.00  0.00    -0.272 OA
HETATM   22  H   UNL     1      42.594 -11.354   7.937  1.00  0.00     0.190 HD
BRANCH  20  23
HETATM   23  C   UNL     1      40.484 -10.145   8.924  1.00  0.00     0.109 C 
BRANCH  23  24
HETATM   24  C   UNL     1      41.906  -9.828   9.377  1.00  0.00     0.048 C 
BRANCH  24  25
HETATM   25  C   UNL     1      42.080 -10.026  10.863  1.00  0.00    -0.058 A 
HETATM   26  C   UNL     1      43.284  -9.674  11.492  1.00  0.00     0.010 A 
HETATM   27  C   UNL     1      43.444  -9.868  12.865  1.00  0.00     0.043 A 
HETATM   28  C   UNL     1      42.404 -10.416  13.607  1.00  0.00     0.116 A 
HETATM   29  F   UNL     1      42.560 -10.602  14.924  1.00  0.00    -0.206 F 
HETATM   30  C   UNL     1      41.205 -10.773  13.002  1.00  0.00     0.043 A 
HETATM   31  C   UNL     1      41.041 -10.577  11.629  1.00  0.00     0.010 A 
ENDBRANCH  24  25
ENDBRANCH  23  24
ENDBRANCH  20  23
ENDBRANCH   2  19
TORSDOF 7
ENDMDL
MODEL 6
REMARK VINA RESULT:      -8.2      3.980      4.860
REMARK  7 active torsions:
REMARK  status: ('A' for Active; 'I' for Inactive)
REMARK    1  A    between atoms: O_2  and  C_3 
REMARK    2  A    between atoms: C_6  and  C_7 
REMARK    3  A    between atoms: C_11  and  C_12 
REMARK       I    between atoms: C_12  and  N_13 
REMARK    4  A    between atoms: N_13  and  N_14 
REMARK       I    between atoms: N_14  and  C_15 
REMARK    5  A    between atoms: C_15  and  C_16 
REMARK    6  A    between atoms: C_16  and  C_17 
REMARK    7  A    between atoms: C_17  and  C_18 
ROOT
HETATM    1  C   UNL     1      39.922 -14.361   3.829  1.00  0.00     0.288 C 
HETATM    2  N   UNL     1      40.565 -15.505   4.250  1.00  0.00    -0.262 N 
HETATM    3  O   UNL     1      39.464 -14.259   2.692  1.00  0.00    -0.264 OA
HETATM    4  H   UNL     1      40.931 -15.643   5.189  1.00  0.00     0.190 HD
ENDROOT
BRANCH   1   5
HETATM    5  C   UNL     1      39.813 -13.313   4.805  1.00  0.00     0.121 A 
HETATM    6  N   UNL     1      38.883 -12.320   4.690  1.00  0.00    -0.272 N 
HETATM    7  N   UNL     1      38.881 -11.448   5.707  1.00  0.00    -0.174 NA
HETATM    8  H   UNL     1      38.210 -12.199   3.939  1.00  0.00     0.189 HD
HETATM    9  C   UNL     1      39.863 -11.869   6.519  1.00  0.00     0.089 A 
HETATM   10  C   UNL     1      40.481 -13.032   5.981  1.00  0.00     0.071 A 
BRANCH   9  11
HETATM   11  C   UNL     1      40.165 -11.187   7.781  1.00  0.00    -0.005 A 
HETATM   12  C   UNL     1      41.451 -10.685   8.024  1.00  0.00     0.016 A 
HETATM   13  C   UNL     1      41.746  -9.991   9.205  1.00  0.00     0.037 A 
HETATM   14  C   UNL     1      40.757  -9.794  10.165  1.00  0.00     0.068 A 
HETATM   15  C   UNL     1      39.480 -10.315   9.943  1.00  0.00     0.037 A 
HETATM   16  C   UNL     1      39.182 -11.002   8.761  1.00  0.00     0.016 A 
BRANCH  14  17
HETATM   17  O   UNL     1      40.906  -9.128  11.349  1.00  0.00    -0.356 OA
HETATM   18  C   UNL     1      40.883  -9.918  12.532  1.00  0.00     0.210 C 
ENDBRANCH  14  17
ENDBRANCH   9  11
ENDBRANCH   1   5
BRANCH   2  19
HETATM   19  N   UNL     1      40.648 -16.594   3.377  1.00  0.00    -0.267 N 
HETATM   20  C   UNL     1      41.864 -16.867   2.793  1.00  0.00     0.236 C 
HETATM   21  O   UNL     1      42.849 -16.144   2.934  1.00  0.00    -0.272 OA
HETATM   22  H   UNL     1      39.865 -17.245   3.386  1.00  0.00     0.190 HD
BRANCH  20  23
HETATM   23  C   UNL     1      41.884 -18.124   1.958  1.00  0.00     0.109 C 
BRANCH  23  24
HETATM   24  C   UNL     1      43.312 -18.506   1.581  1.00  0.00     0.048 C 
BRANCH  24  25
HETATM   25  C   UNL     1      43.819 -19.664   2.405  1.00  0.00    -0.058 A 
HETATM   26  C   UNL     1      43.829 -20.964   1.877  1.00  0.00     0.010 A 
HETATM   27  C   UNL     1      44.290 -22.034   2.647  1.00  0.00     0.043 A 
HETATM   28  C   UNL     1      44.737 -21.805   3.943  1.00  0.00     0.116 A 
HETATM   29  F   UNL     1      45.178 -22.832   4.679  1.00  0.00    -0.206 F 
HETATM   30  C   UNL     1      44.733 -20.525   4.484  1.00  0.00     0.043 A 
HETATM   31  C   UNL     1      44.276 -19.453   3.716  1.00  0.00     0.010 A 
ENDBRANCH  24  25
ENDBRANCH  23  24
ENDBRANCH  20  23
ENDBRANCH   2  19
TORSDOF 7
ENDMDL
MODEL 7
REMARK VINA RESULT:      -8.0      4.605     11.456
REMARK  7 active torsions:
REMARK  status: ('A' for Active; 'I' for Inactive)
REMARK    1  A    between atoms: O_2  and  C_3 
REMARK    2  A    between atoms: C_6  and  C_7 
REMARK    3  A    between atoms: C_11  and  C_12 
REMARK       I    between atoms: C_12  and  N_13 
REMARK    4  A    between atoms: N_13  and  N_14 
REMARK       I    between atoms: N_14  and  C_15 
REMARK    5  A    between atoms: C_15  and  C_16 
REMARK    6  A    between atoms: C_16  and  C_17 
REMARK    7  A    between atoms: C_17  and  C_18 
ROOT
HETATM    1  C   UNL     1      40.698 -13.198   4.986  1.00  0.00     0.288 C 
HETATM    2  N   UNL     1      40.898 -13.070   6.343  1.00  0.00    -0.262 N 
HETATM    3  O   UNL     1      40.310 -12.255   4.298  1.00  0.00    -0.264 OA
HETATM    4  H   UNL     1      41.247 -13.814   6.943  1.00  0.00     0.190 HD
ENDROOT
BRANCH   1   5
HETATM    5  C   UNL     1      40.984 -14.493   4.434  1.00  0.00     0.121 A 
HETATM    6  N   UNL     1      40.122 -15.113   3.576  1.00  0.00    -0.272 N 
HETATM    7  N   UNL     1      40.559 -16.293   3.115  1.00  0.00    -0.174 NA
HETATM    8  H   UNL     1      39.223 -14.765   3.258  1.00  0.00     0.189 HD
HETATM    9  C   UNL     1      41.750 -16.471   3.707  1.00  0.00     0.089 A 
HETATM   10  C   UNL     1      42.048 -15.366   4.554  1.00  0.00     0.071 A 
BRANCH   9  11
HETATM   11  C   UNL     1      42.577 -17.650   3.436  1.00  0.00    -0.005 A 
HETATM   12  C   UNL     1      43.416 -18.170   4.431  1.00  0.00     0.016 A 
HETATM   13  C   UNL     1      44.180 -19.322   4.204  1.00  0.00     0.037 A 
HETATM   14  C   UNL     1      44.119 -19.969   2.973  1.00  0.00     0.068 A 
HETATM   15  C   UNL     1      43.306 -19.443   1.966  1.00  0.00     0.037 A 
HETATM   16  C   UNL     1      42.538 -18.296   2.194  1.00  0.00     0.016 A 
BRANCH  14  17
HETATM   17  O   UNL     1      44.800 -21.104   2.625  1.00  0.00    -0.356 OA
HETATM   18  C   UNL     1      44.176 -21.952   1.669  1.00  0.00     0.210 C 
ENDBRANCH  14  17
ENDBRANCH   9  11
ENDBRANCH   1   5
BRANCH   2  19
HETATM   19  N   UNL     1      40.707 -11.820   6.940  1.00  0.00    -0.267 N 
HETATM   20  C   UNL     1      39.644 -11.667   7.801  1.00  0.00     0.236 C 
HETATM   21  O   UNL     1      38.810 -12.550   7.994  1.00  0.00    -0.272 OA
HETATM   22  H   UNL     1      41.479 -11.159   6.870  1.00  0.00     0.190 HD
BRANCH  20  23
HETATM   23  C   UNL     1      39.585 -10.321   8.482  1.00  0.00     0.109 C 
BRANCH  23  24
HETATM   24  C   UNL     1      39.737 -10.467   9.992  1.00  0.00     0.048 C 
BRANCH  24  25
HETATM   25  C   UNL     1      41.182 -10.625  10.399  1.00  0.00    -0.058 A 
HETATM   26  C   UNL     1      41.516 -11.210  11.630  1.00  0.00     0.010 A 
HETATM   27  C   UNL     1      42.854 -11.345  12.005  1.00  0.00     0.043 A 
HETATM   28  C   UNL     1      43.855 -10.892  11.154  1.00  0.00     0.116 A 
HETATM   29  F   UNL     1      45.137 -11.022  11.517  1.00  0.00    -0.206 F 
HETATM   30  C   UNL     1      43.544 -10.307   9.933  1.00  0.00     0.043 A 
HETATM   31  C   UNL     1      42.208 -10.174   9.553  1.00  0.00     0.010 A 
ENDBRANCH  24  25
ENDBRANCH  23  24
ENDBRANCH  20  23
ENDBRANCH   2  19
TORSDOF 7
ENDMDL
MODEL 8
REMARK VINA RESULT:      -7.8      8.724     12.441
REMARK  7 active torsions:
REMARK  status: ('A' for Active; 'I' for Inactive)
REMARK    1  A    between atoms: O_2  and  C_3 
REMARK    2  A    between atoms: C_6  and  C_7 
REMARK    3  A    between atoms: C_11  and  C_12 
REMARK       I    between atoms: C_12  and  N_13 
REMARK    4  A    between atoms: N_13  and  N_14 
REMARK       I    between atoms: N_14  and  C_15 
REMARK    5  A    between atoms: C_15  and  C_16 
REMARK    6  A    between atoms: C_16  and  C_17 
REMARK    7  A    between atoms: C_17  and  C_18 
ROOT
HETATM    1  C   UNL     1      39.644 -15.144   1.338  1.00  0.00     0.288 C 
HETATM    2  N   UNL     1      40.092 -15.062   0.037  1.00  0.00    -0.262 N 
HETATM    3  O   UNL     1      38.608 -14.589   1.700  1.00  0.00    -0.264 OA
HETATM    4  H   UNL     1      40.926 -15.530  -0.311  1.00  0.00     0.190 HD
ENDROOT
BRANCH   1   5
HETATM    5  C   UNL     1      40.456 -15.926   2.228  1.00  0.00     0.121 A 
HETATM    6  N   UNL     1      40.345 -15.815   3.584  1.00  0.00    -0.272 N 
HETATM    7  N   UNL     1      41.137 -16.648   4.271  1.00  0.00    -0.174 NA
HETATM    8  H   UNL     1      39.726 -15.192   4.096  1.00  0.00     0.189 HD
HETATM    9  C   UNL     1      41.817 -17.324   3.332  1.00  0.00     0.089 A 
HETATM   10  C   UNL     1      41.425 -16.891   2.034  1.00  0.00     0.071 A 
BRANCH   9  11
HETATM   11  C   UNL     1      42.782 -18.371   3.682  1.00  0.00    -0.005 A 
HETATM   12  C   UNL     1      43.400 -19.128   2.678  1.00  0.00     0.016 A 
HETATM   13  C   UNL     1      44.358 -20.101   2.991  1.00  0.00     0.037 A 
HETATM   14  C   UNL     1      44.708 -20.334   4.318  1.00  0.00     0.068 A 
HETATM   15  C   UNL     1      44.077 -19.603   5.328  1.00  0.00     0.037 A 
HETATM   16  C   UNL     1      43.125 -18.627   5.016  1.00  0.00     0.016 A 
BRANCH  14  17
HETATM   17  O   UNL     1      45.632 -21.241   4.759  1.00  0.00    -0.356 OA
HETATM   18  C   UNL     1      45.128 -22.480   5.242  1.00  0.00     0.210 C 
ENDBRANCH  14  17
ENDBRANCH   9  11
ENDBRANCH   1   5
BRANCH   2  19
HETATM   19  N   UNL     1      39.319 -14.376  -0.903  1.00  0.00    -0.267 N 
HETATM   20  C   UNL     1      39.836 -13.225  -1.454  1.00  0.00     0.236 C 
HETATM   21  O   UNL     1      40.902 -12.732  -1.090  1.00  0.00    -0.272 OA
HETATM   22  H   UNL     1      38.514 -14.872  -1.281  1.00  0.00     0.190 HD
BRANCH  20  23
HETATM   23  C   UNL     1      38.980 -12.617  -2.539  1.00  0.00     0.109 C 
BRANCH  23  24
HETATM   24  C   UNL     1      38.391 -13.698  -3.440  1.00  0.00     0.048 C 
BRANCH  24  25
HETATM   25  C   UNL     1      36.996 -13.349  -3.898  1.00  0.00    -0.058 A 
HETATM   26  C   UNL     1      36.446 -12.089  -3.612  1.00  0.00     0.010 A 
HETATM   27  C   UNL     1      35.153 -11.774  -4.030  1.00  0.00     0.043 A 
HETATM   28  C   UNL     1      34.408 -12.717  -4.729  1.00  0.00     0.116 A 
HETATM   29  F   UNL     1      33.167 -12.413  -5.128  1.00  0.00    -0.206 F 
HETATM   30  C   UNL     1      34.934 -13.970  -5.020  1.00  0.00     0.043 A 
HETATM   31  C   UNL     1      36.229 -14.287  -4.606  1.00  0.00     0.010 A 
ENDBRANCH  24  25
ENDBRANCH  23  24
ENDBRANCH  20  23
ENDBRANCH   2  19
TORSDOF 7
ENDMDL
MODEL 9
REMARK VINA RESULT:      -7.7      3.833      4.199
REMARK  7 active torsions:
REMARK  status: ('A' for Active; 'I' for Inactive)
REMARK    1  A    between atoms: O_2  and  C_3 
REMARK    2  A    between atoms: C_6  and  C_7 
REMARK    3  A    between atoms: C_11  and  C_12 
REMARK       I    between atoms: C_12  and  N_13 
REMARK    4  A    between atoms: N_13  and  N_14 
REMARK       I    between atoms: N_14  and  C_15 
REMARK    5  A    between atoms: C_15  and  C_16 
REMARK    6  A    between atoms: C_16  and  C_17 
REMARK    7  A    between atoms: C_17  and  C_18 
ROOT
HETATM    1  C   UNL     1      39.449 -12.625   6.191  1.00  0.00     0.288 C 
HETATM    2  N   UNL     1      39.882 -13.828   6.705  1.00  0.00    -0.262 N 
HETATM    3  O   UNL     1      39.189 -12.489   4.996  1.00  0.00    -0.264 OA
HETATM    4  H   UNL     1      40.078 -13.992   7.690  1.00  0.00     0.190 HD
ENDROOT
BRANCH   1   5
HETATM    5  C   UNL     1      39.311 -11.556   7.141  1.00  0.00     0.121 A 
HETATM    6  N   UNL     1      39.224 -10.252   6.745  1.00  0.00    -0.272 N 
HETATM    7  N   UNL     1      39.051  -9.383   7.749  1.00  0.00    -0.174 NA
HETATM    8  H   UNL     1      39.262  -9.900   5.792  1.00  0.00     0.189 HD
HETATM    9  C   UNL     1      39.043 -10.140   8.857  1.00  0.00     0.089 A 
HETATM   10  C   UNL     1      39.215 -11.511   8.518  1.00  0.00     0.071 A 
BRANCH   9  11
HETATM   11  C   UNL     1      38.842  -9.557  10.187  1.00  0.00    -0.005 A 
HETATM   12  C   UNL     1      39.578 -10.026  11.284  1.00  0.00     0.016 A 
HETATM   13  C   UNL     1      39.433  -9.451  12.553  1.00  0.00     0.037 A 
HETATM   14  C   UNL     1      38.542  -8.398  12.744  1.00  0.00     0.068 A 
HETATM   15  C   UNL     1      37.785  -7.941  11.663  1.00  0.00     0.037 A 
HETATM   16  C   UNL     1      37.934  -8.511  10.394  1.00  0.00     0.016 A 
BRANCH  14  17
HETATM   17  O   UNL     1      38.313  -7.741  13.922  1.00  0.00    -0.356 OA
HETATM   18  C   UNL     1      39.418  -7.623  14.810  1.00  0.00     0.210 C 
ENDBRANCH  14  17
ENDBRANCH   9  11
ENDBRANCH   1   5
BRANCH   2  19
HETATM   19  N   UNL     1      39.973 -14.933   5.854  1.00  0.00    -0.267 N 
HETATM   20  C   UNL     1      41.226 -15.355   5.470  1.00  0.00     0.236 C 
HETATM   21  O   UNL     1      42.254 -14.750   5.769  1.00  0.00    -0.272 OA
HETATM   22  H   UNL     1      39.128 -15.489   5.735  1.00  0.00     0.190 HD
BRANCH  20  23
HETATM   23  C   UNL     1      41.230 -16.619   4.645  1.00  0.00     0.109 C 
BRANCH  23  24
HETATM   24  C   UNL     1      41.823 -17.783   5.433  1.00  0.00     0.048 C 
BRANCH  24  25
HETATM   25  C   UNL     1      42.784 -18.595   4.599  1.00  0.00    -0.058 A 
HETATM   26  C   UNL     1      43.812 -19.330   5.209  1.00  0.00     0.010 A 
HETATM   27  C   UNL     1      44.704 -20.072   4.433  1.00  0.00     0.043 A 
HETATM   28  C   UNL     1      44.572 -20.075   3.050  1.00  0.00     0.116 A 
HETATM   29  F   UNL     1      45.429 -20.786   2.307  1.00  0.00    -0.206 F 
HETATM   30  C   UNL     1      43.562 -19.351   2.426  1.00  0.00     0.043 A 
HETATM   31  C   UNL     1      42.667 -18.611   3.201  1.00  0.00     0.010 A 
ENDBRANCH  24  25
ENDBRANCH  23  24
ENDBRANCH  20  23
ENDBRANCH   2  19
TORSDOF 7
ENDMDL
MODEL 10
REMARK VINA RESULT:      -7.7      2.575      2.894
REMARK  7 active torsions:
REMARK  status: ('A' for Active; 'I' for Inactive)
REMARK    1  A    between atoms: O_2  and  C_3 
REMARK    2  A    between atoms: C_6  and  C_7 
REMARK    3  A    between atoms: C_11  and  C_12 
REMARK       I    between atoms: C_12  and  N_13 
REMARK    4  A    between atoms: N_13  and  N_14 
REMARK       I    between atoms: N_14  and  C_15 
REMARK    5  A    between atoms: C_15  and  C_16 
REMARK    6  A    between atoms: C_16  and  C_17 
REMARK    7  A    between atoms: C_17  and  C_18 
ROOT
HETATM    1  C   UNL     1      41.726 -11.630   6.576  1.00  0.00     0.288 C 
HETATM    2  N   UNL     1      42.412 -12.820   6.474  1.00  0.00    -0.262 N 
HETATM    3  O   UNL     1      41.363 -11.006   5.579  1.00  0.00    -0.264 OA
HETATM    4  H   UNL     1      42.703 -13.383   7.271  1.00  0.00     0.190 HD
ENDROOT
BRANCH   1   5
HETATM    5  C   UNL     1      41.455 -11.180   7.912  1.00  0.00     0.121 A 
HETATM    6  N   UNL     1      40.183 -11.126   8.407  1.00  0.00    -0.272 N 
HETATM    7  N   UNL     1      40.105 -10.731   9.684  1.00  0.00    -0.174 NA
HETATM    8  H   UNL     1      39.327 -11.366   7.915  1.00  0.00     0.189 HD
HETATM    9  C   UNL     1      41.376 -10.492  10.045  1.00  0.00     0.089 A 
HETATM   10  C   UNL     1      42.253 -10.752   8.955  1.00  0.00     0.071 A 
BRANCH   9  11
HETATM   11  C   UNL     1      41.724 -10.063  11.402  1.00  0.00    -0.005 A 
HETATM   12  C   UNL     1      40.719  -9.698  12.309  1.00  0.00     0.016 A 
HETATM   13  C   UNL     1      41.030  -9.328  13.624  1.00  0.00     0.037 A 
HETATM   14  C   UNL     1      42.356  -9.312  14.050  1.00  0.00     0.068 A 
HETATM   15  C   UNL     1      43.366  -9.648  13.145  1.00  0.00     0.037 A 
HETATM   16  C   UNL     1      43.056 -10.024  11.834  1.00  0.00     0.016 A 
BRANCH  14  17
HETATM   17  O   UNL     1      42.794  -8.985  15.303  1.00  0.00    -0.356 OA
HETATM   18  C   UNL     1      41.857  -9.126  16.363  1.00  0.00     0.210 C 
ENDBRANCH  14  17
ENDBRANCH   9  11
ENDBRANCH   1   5
BRANCH   2  19
HETATM   19  N   UNL     1      42.652 -13.357   5.206  1.00  0.00    -0.267 N 
HETATM   20  C   UNL     1      42.029 -14.538   4.871  1.00  0.00     0.236 C 
HETATM   21  O   UNL     1      41.349 -15.182   5.668  1.00  0.00    -0.272 OA
HETATM   22  H   UNL     1      43.102 -12.743   4.529  1.00  0.00     0.190 HD
BRANCH  20  23
HETATM   23  C   UNL     1      42.259 -14.979   3.446  1.00  0.00     0.109 C 
BRANCH  23  24
HETATM   24  C   UNL     1      41.533 -16.290   3.158  1.00  0.00     0.048 C 
BRANCH  24  25
HETATM   25  C   UNL     1      42.492 -17.450   3.046  1.00  0.00    -0.058 A 
HETATM   26  C   UNL     1      42.736 -18.056   1.803  1.00  0.00     0.010 A 
HETATM   27  C   UNL     1      43.616 -19.134   1.706  1.00  0.00     0.043 A 
HETATM   28  C   UNL     1      44.250 -19.609   2.849  1.00  0.00     0.116 A 
HETATM   29  F   UNL     1      45.093 -20.644   2.753  1.00  0.00    -0.206 F 
HETATM   30  C   UNL     1      44.020 -19.024   4.088  1.00  0.00     0.043 A 
HETATM   31  C   UNL     1      43.142 -17.943   4.188  1.00  0.00     0.010 A 
ENDBRANCH  24  25
ENDBRANCH  23  24
ENDBRANCH  20  23
ENDBRANCH   2  19
TORSDOF 7
ENDMDL
