MODEL 1
REMARK VINA RESULT:      -8.0      0.000      0.000
REMARK  8 active torsions:
REMARK  status: ('A' for Active; 'I' for Inactive)
REMARK    1  A    between atoms: O_2  and  C_3 
REMARK    2  A    between atoms: C_6  and  C_7 
REMARK    3  A    between atoms: C_11  and  S_12 
REMARK    4  A    between atoms: S_12  and  C_13 
REMARK    5  A    between atoms: C_13  and  C_14 
REMARK       I    between atoms: C_14  and  N_15 
REMARK    6  A    between atoms: N_15  and  C_16 
REMARK    7  A    between atoms: C_16  and  C_17 
REMARK       I    between atoms: C_17  and  N_18 
REMARK    8  A    between atoms: N_18  and  C_19 
ROOT
HETATM    1  C   UNL     1      41.918 -13.364  -0.010  1.00  0.00     0.185 C 
ENDROOT
BRANCH   1   2
HETATM    2  S   UNL     1      41.106 -14.779  -0.820  1.00  0.00    -0.081 SA
BRANCH   2   3
HETATM    3  C   UNL     1      41.285 -15.971   0.407  1.00  0.00     0.185 A 
HETATM    4  N   UNL     1      40.271 -16.282   1.251  1.00  0.00    -0.253 N 
HETATM    5  N   UNL     1      40.656 -17.208   2.144  1.00  0.00    -0.152 NA
HETATM    6  H   UNL     1      39.330 -15.910   1.280  1.00  0.00     0.191 HD
HETATM    7  C   UNL     1      41.933 -17.429   1.785  1.00  0.00     0.182 A 
HETATM    8  N   UNL     1      42.345 -16.676   0.701  1.00  0.00    -0.201 NA
BRANCH   7   9
HETATM    9  C   UNL     1      42.827 -18.361   2.466  1.00  0.00     0.014 A 
HETATM   10  C   UNL     1      43.314 -18.089   3.751  1.00  0.00     0.018 A 
HETATM   11  C   UNL     1      44.171 -18.991   4.391  1.00  0.00     0.037 A 
HETATM   12  C   UNL     1      44.552 -20.179   3.766  1.00  0.00     0.068 A 
HETATM   13  C   UNL     1      44.078 -20.456   2.483  1.00  0.00     0.037 A 
HETATM   14  C   UNL     1      43.221 -19.552   1.840  1.00  0.00     0.018 A 
BRANCH  12  15
HETATM   15  O   UNL     1      45.386 -20.972   4.502  1.00  0.00    -0.356 OA
HETATM   16  C   UNL     1      44.862 -22.219   4.943  1.00  0.00     0.210 C 
ENDBRANCH  12  15
ENDBRANCH   7   9
ENDBRANCH   2   3
ENDBRANCH   1   2
BRANCH   1  17
HETATM   17  C   UNL     1      41.217 -12.909   1.263  1.00  0.00     0.227 C 
HETATM   18  N   UNL     1      41.995 -12.431   2.286  1.00  0.00    -0.352 N 
HETATM   19  H   UNL     1      43.001 -12.406   2.158  1.00  0.00     0.162 HD
HETATM   20  O   UNL     1      39.996 -13.020   1.401  1.00  0.00    -0.273 OA
BRANCH  18  21
HETATM   21  C   UNL     1      41.438 -11.848   3.495  1.00  0.00     0.225 C 
BRANCH  21  22
HETATM   22  C   UNL     1      41.776 -12.641   4.764  1.00  0.00     0.239 C 
HETATM   23  N   UNL     1      41.885 -14.002   4.531  1.00  0.00    -0.326 N 
HETATM   24  H   UNL     1      41.778 -14.291   3.556  1.00  0.00     0.169 HD
HETATM   25  O   UNL     1      41.871 -12.073   5.848  1.00  0.00    -0.271 OA
BRANCH  23  26
HETATM   26  C   UNL     1      42.127 -15.024   5.466  1.00  0.00     0.035 A 
HETATM   27  C   UNL     1      41.171 -15.965   5.861  1.00  0.00     0.032 A 
HETATM   28  C   UNL     1      41.498 -16.957   6.791  1.00  0.00     0.044 A 
HETATM   29  C   UNL     1      42.779 -17.007   7.324  1.00  0.00     0.116 A 
HETATM   30  F   UNL     1      43.090 -17.959   8.213  1.00  0.00    -0.206 F 
HETATM   31  C   UNL     1      43.743 -16.081   6.945  1.00  0.00     0.044 A 
HETATM   32  C   UNL     1      43.416 -15.090   6.016  1.00  0.00     0.032 A 
ENDBRANCH  23  26
ENDBRANCH  21  22
ENDBRANCH  18  21
ENDBRANCH   1  17
TORSDOF 8
ENDMDL
MODEL 2
REMARK VINA RESULT:      -7.8      4.969      5.821
REMARK  8 active torsions:
REMARK  status: ('A' for Active; 'I' for Inactive)
REMARK    1  A    between atoms: O_2  and  C_3 
REMARK    2  A    between atoms: C_6  and  C_7 
REMARK    3  A    between atoms: C_11  and  S_12 
REMARK    4  A    between atoms: S_12  and  C_13 
REMARK    5  A    between atoms: C_13  and  C_14 
REMARK       I    between atoms: C_14  and  N_15 
REMARK    6  A    between atoms: N_15  and  C_16 
REMARK    7  A    between atoms: C_16  and  C_17 
REMARK       I    between atoms: C_17  and  N_18 
REMARK    8  A    between atoms: N_18  and  C_19 
ROOT
HETATM    1  C   UNL     1      40.095 -13.392   5.417  1.00  0.00     0.185 C 
ENDROOT
BRANCH   1   2
HETATM    2  S   UNL     1      41.847 -12.982   5.134  1.00  0.00    -0.081 SA
BRANCH   2   3
HETATM    3  C   UNL     1      42.561 -14.527   5.384  1.00  0.00     0.185 A 
HETATM    4  N   UNL     1      43.141 -14.860   6.563  1.00  0.00    -0.253 N 
HETATM    5  N   UNL     1      43.662 -16.097   6.511  1.00  0.00    -0.152 NA
HETATM    6  H   UNL     1      43.223 -14.311   7.410  1.00  0.00     0.191 HD
HETATM    7  C   UNL     1      43.359 -16.474   5.255  1.00  0.00     0.182 A 
HETATM    8  N   UNL     1      42.667 -15.516   4.538  1.00  0.00    -0.201 NA
BRANCH   7   9
HETATM    9  C   UNL     1      43.724 -17.763   4.676  1.00  0.00     0.014 A 
HETATM   10  C   UNL     1      44.250 -18.790   5.470  1.00  0.00     0.018 A 
HETATM   11  C   UNL     1      44.597 -20.020   4.901  1.00  0.00     0.037 A 
HETATM   12  C   UNL     1      44.422 -20.249   3.535  1.00  0.00     0.068 A 
HETATM   13  C   UNL     1      43.905 -19.230   2.735  1.00  0.00     0.037 A 
HETATM   14  C   UNL     1      43.559 -17.996   3.304  1.00  0.00     0.018 A 
BRANCH  12  15
HETATM   15  O   UNL     1      44.795 -21.494   3.110  1.00  0.00    -0.356 OA
HETATM   16  C   UNL     1      44.295 -21.916   1.847  1.00  0.00     0.210 C 
ENDBRANCH  12  15
ENDBRANCH   7   9
ENDBRANCH   2   3
ENDBRANCH   1   2
BRANCH   1  17
HETATM   17  C   UNL     1      39.399 -12.445   6.387  1.00  0.00     0.227 C 
HETATM   18  N   UNL     1      39.392 -12.782   7.715  1.00  0.00    -0.352 N 
HETATM   19  H   UNL     1      39.841 -13.647   7.997  1.00  0.00     0.162 HD
HETATM   20  O   UNL     1      38.809 -11.437   5.990  1.00  0.00    -0.273 OA
BRANCH  18  21
HETATM   21  C   UNL     1      38.877 -11.901   8.750  1.00  0.00     0.225 C 
BRANCH  21  22
HETATM   22  C   UNL     1      39.952 -11.003   9.374  1.00  0.00     0.239 C 
HETATM   23  N   UNL     1      40.492 -11.537  10.531  1.00  0.00    -0.326 N 
HETATM   24  H   UNL     1      40.147 -12.465  10.789  1.00  0.00     0.169 HD
HETATM   25  O   UNL     1      40.219  -9.912   8.877  1.00  0.00    -0.271 OA
BRANCH  23  26
HETATM   26  C   UNL     1      41.451 -10.965  11.386  1.00  0.00     0.035 A 
HETATM   27  C   UNL     1      42.826 -10.963  11.128  1.00  0.00     0.032 A 
HETATM   28  C   UNL     1      43.712 -10.363  12.028  1.00  0.00     0.044 A 
HETATM   29  C   UNL     1      43.223  -9.767  13.183  1.00  0.00     0.116 A 
HETATM   30  F   UNL     1      44.074  -9.191  14.042  1.00  0.00    -0.206 F 
HETATM   31  C   UNL     1      41.862  -9.759  13.457  1.00  0.00     0.044 A 
HETATM   32  C   UNL     1      40.976 -10.359  12.558  1.00  0.00     0.032 A 
ENDBRANCH  23  26
ENDBRANCH  21  22
ENDBRANCH  18  21
ENDBRANCH   1  17
TORSDOF 8
ENDMDL
MODEL 3
REMARK VINA RESULT:      -7.8      4.958      5.738
REMARK  8 active torsions:
REMARK  status: ('A' for Active; 'I' for Inactive)
REMARK    1  A    between atoms: O_2  and  C_3 
REMARK    2  A    between atoms: C_6  and  C_7 
REMARK    3  A    between atoms: C_11  and  S_12 
REMARK    4  A    between atoms: S_12  and  C_13 
REMARK    5  A    between atoms: C_13  and  C_14 
REMARK       I    between atoms: C_14  and  N_15 
REMARK    6  A    between atoms: N_15  and  C_16 
REMARK    7  A    between atoms: C_16  and  C_17 
REMARK       I    between atoms: C_17  and  N_18 
REMARK    8  A    between atoms: N_18  and  C_19 
ROOT
HETATM    1  C   UNL     1      40.368 -13.057   5.059  1.00  0.00     0.185 C 
ENDROOT
BRANCH   1   2
HETATM    2  S   UNL     1      42.156 -13.066   5.411  1.00  0.00    -0.081 SA
BRANCH   2   3
HETATM    3  C   UNL     1      42.435 -14.760   5.506  1.00  0.00     0.185 A 
HETATM    4  N   UNL     1      42.157 -15.465   6.630  1.00  0.00    -0.253 N 
HETATM    5  N   UNL     1      42.492 -16.758   6.483  1.00  0.00    -0.152 NA
HETATM    6  H   UNL     1      41.763 -15.141   7.504  1.00  0.00     0.191 HD
HETATM    7  C   UNL     1      42.971 -16.780   5.226  1.00  0.00     0.182 A 
HETATM    8  N   UNL     1      42.938 -15.550   4.595  1.00  0.00    -0.201 NA
BRANCH   7   9
HETATM    9  C   UNL     1      43.495 -17.974   4.569  1.00  0.00     0.014 A 
HETATM   10  C   UNL     1      43.178 -18.264   3.235  1.00  0.00     0.018 A 
HETATM   11  C   UNL     1      43.685 -19.413   2.620  1.00  0.00     0.037 A 
HETATM   12  C   UNL     1      44.520 -20.287   3.317  1.00  0.00     0.068 A 
HETATM   13  C   UNL     1      44.836 -20.010   4.647  1.00  0.00     0.037 A 
HETATM   14  C   UNL     1      44.326 -18.861   5.267  1.00  0.00     0.018 A 
BRANCH  12  15
HETATM   15  O   UNL     1      44.950 -21.366   2.597  1.00  0.00    -0.356 OA
HETATM   16  C   UNL     1      44.040 -21.907   1.647  1.00  0.00     0.210 C 
ENDBRANCH  12  15
ENDBRANCH   7   9
ENDBRANCH   2   3
ENDBRANCH   1   2
BRANCH   1  17
HETATM   17  C   UNL     1      39.550 -12.301   6.098  1.00  0.00     0.227 C 
HETATM   18  N   UNL     1      39.734 -12.627   7.417  1.00  0.00    -0.352 N 
HETATM   19  H   UNL     1      40.398 -13.358   7.647  1.00  0.00     0.162 HD
HETATM   20  O   UNL     1      38.704 -11.466   5.769  1.00  0.00    -0.273 OA
BRANCH  18  21
HETATM   21  C   UNL     1      39.111 -11.892   8.506  1.00  0.00     0.225 C 
BRANCH  21  22
HETATM   22  C   UNL     1      40.083 -10.967   9.248  1.00  0.00     0.239 C 
HETATM   23  N   UNL     1      40.508 -11.494  10.455  1.00  0.00    -0.326 N 
HETATM   24  H   UNL     1      40.166 -12.434  10.669  1.00  0.00     0.169 HD
HETATM   25  O   UNL     1      40.368  -9.864   8.789  1.00  0.00    -0.271 OA
BRANCH  23  26
HETATM   26  C   UNL     1      41.349 -10.900  11.413  1.00  0.00     0.035 A 
HETATM   27  C   UNL     1      40.890 -10.269  12.573  1.00  0.00     0.032 A 
HETATM   28  C   UNL     1      41.796  -9.710  13.480  1.00  0.00     0.044 A 
HETATM   29  C   UNL     1      43.159  -9.784  13.225  1.00  0.00     0.116 A 
HETATM   30  F   UNL     1      44.026  -9.251  14.096  1.00  0.00    -0.206 F 
HETATM   31  C   UNL     1      43.636 -10.406  12.079  1.00  0.00     0.044 A 
HETATM   32  C   UNL     1      42.730 -10.964  11.173  1.00  0.00     0.032 A 
ENDBRANCH  23  26
ENDBRANCH  21  22
ENDBRANCH  18  21
ENDBRANCH   1  17
TORSDOF 8
ENDMDL
MODEL 4
REMARK VINA RESULT:      -7.8      5.656      9.659
REMARK  8 active torsions:
REMARK  status: ('A' for Active; 'I' for Inactive)
REMARK    1  A    between atoms: O_2  and  C_3 
REMARK    2  A    between atoms: C_6  and  C_7 
REMARK    3  A    between atoms: C_11  and  S_12 
REMARK    4  A    between atoms: S_12  and  C_13 
REMARK    5  A    between atoms: C_13  and  C_14 
REMARK       I    between atoms: C_14  and  N_15 
REMARK    6  A    between atoms: N_15  and  C_16 
REMARK    7  A    between atoms: C_16  and  C_17 
REMARK       I    between atoms: C_17  and  N_18 
REMARK    8  A    between atoms: N_18  and  C_19 
ROOT
HETATM    1  C   UNL     1      43.485 -13.391   6.424  1.00  0.00     0.185 C 
ENDROOT
BRANCH   1   2
HETATM    2  S   UNL     1      45.049 -13.637   7.326  1.00  0.00    -0.081 SA
BRANCH   2   3
HETATM    3  C   UNL     1      44.943 -12.354   8.466  1.00  0.00     0.185 A 
HETATM    4  N   UNL     1      46.003 -11.553   8.736  1.00  0.00    -0.253 N 
HETATM    5  N   UNL     1      45.696 -10.651   9.683  1.00  0.00    -0.152 NA
HETATM    6  H   UNL     1      46.932 -11.570   8.335  1.00  0.00     0.191 HD
HETATM    7  C   UNL     1      44.412 -10.955   9.951  1.00  0.00     0.182 A 
HETATM    8  N   UNL     1      43.920 -12.006   9.200  1.00  0.00    -0.201 NA
BRANCH   7   9
HETATM    9  C   UNL     1      43.597 -10.263  10.945  1.00  0.00     0.014 A 
HETATM   10  C   UNL     1      42.388  -9.650  10.590  1.00  0.00     0.018 A 
HETATM   11  C   UNL     1      41.618  -8.990  11.553  1.00  0.00     0.037 A 
HETATM   12  C   UNL     1      42.034  -8.933  12.884  1.00  0.00     0.068 A 
HETATM   13  C   UNL     1      43.240  -9.535  13.246  1.00  0.00     0.037 A 
HETATM   14  C   UNL     1      44.014 -10.195  12.281  1.00  0.00     0.018 A 
BRANCH  12  15
HETATM   15  O   UNL     1      41.187  -8.264  13.722  1.00  0.00    -0.356 OA
HETATM   16  C   UNL     1      39.879  -7.996  13.231  1.00  0.00     0.210 C 
ENDBRANCH  12  15
ENDBRANCH   7   9
ENDBRANCH   2   3
ENDBRANCH   1   2
BRANCH   1  17
HETATM   17  C   UNL     1      43.494 -13.983   5.021  1.00  0.00     0.227 C 
HETATM   18  N   UNL     1      42.597 -14.981   4.742  1.00  0.00    -0.352 N 
HETATM   19  H   UNL     1      41.971 -15.288   5.478  1.00  0.00     0.162 HD
HETATM   20  O   UNL     1      44.319 -13.625   4.177  1.00  0.00    -0.273 OA
BRANCH  18  21
HETATM   21  C   UNL     1      42.420 -15.534   3.410  1.00  0.00     0.225 C 
BRANCH  21  22
HETATM   22  C   UNL     1      42.334 -17.065   3.393  1.00  0.00     0.239 C 
HETATM   23  N   UNL     1      43.571 -17.669   3.249  1.00  0.00    -0.326 N 
HETATM   24  H   UNL     1      44.371 -17.032   3.222  1.00  0.00     0.169 HD
HETATM   25  O   UNL     1      41.244 -17.629   3.451  1.00  0.00    -0.271 OA
BRANCH  23  26
HETATM   26  C   UNL     1      43.858 -19.041   3.139  1.00  0.00     0.035 A 
HETATM   27  C   UNL     1      43.595 -19.806   1.998  1.00  0.00     0.032 A 
HETATM   28  C   UNL     1      43.921 -21.167   1.969  1.00  0.00     0.044 A 
HETATM   29  C   UNL     1      44.509 -21.758   3.079  1.00  0.00     0.116 A 
HETATM   30  F   UNL     1      44.822 -23.060   3.048  1.00  0.00    -0.206 F 
HETATM   31  C   UNL     1      44.778 -21.016   4.222  1.00  0.00     0.044 A 
HETATM   32  C   UNL     1      44.452 -19.657   4.251  1.00  0.00     0.032 A 
ENDBRANCH  23  26
ENDBRANCH  21  22
ENDBRANCH  18  21
ENDBRANCH   1  17
TORSDOF 8
ENDMDL
MODEL 5
REMARK VINA RESULT:      -7.7      3.079      6.318
REMARK  8 active torsions:
REMARK  status: ('A' for Active; 'I' for Inactive)
REMARK    1  A    between atoms: O_2  and  C_3 
REMARK    2  A    between atoms: C_6  and  C_7 
REMARK    3  A    between atoms: C_11  and  S_12 
REMARK    4  A    between atoms: S_12  and  C_13 
REMARK    5  A    between atoms: C_13  and  C_14 
REMARK       I    between atoms: C_14  and  N_15 
REMARK    6  A    between atoms: N_15  and  C_16 
REMARK    7  A    between atoms: C_16  and  C_17 
REMARK       I    between atoms: C_17  and  N_18 
REMARK    8  A    between atoms: N_18  and  C_19 
ROOT
HETATM    1  C   UNL     1      41.905 -13.006   5.859  1.00  0.00     0.185 C 
ENDROOT
BRANCH   1   2
HETATM    2  S   UNL     1      40.236 -13.735   5.811  1.00  0.00    -0.081 SA
BRANCH   2   3
HETATM    3  C   UNL     1      40.313 -14.565   4.307  1.00  0.00     0.185 A 
HETATM    4  N   UNL     1      40.530 -15.902   4.242  1.00  0.00    -0.253 N 
HETATM    5  N   UNL     1      40.589 -16.319   2.967  1.00  0.00    -0.152 NA
HETATM    6  H   UNL     1      40.653 -16.564   4.998  1.00  0.00     0.191 HD
HETATM    7  C   UNL     1      40.392 -15.172   2.290  1.00  0.00     0.182 A 
HETATM    8  N   UNL     1      40.210 -14.069   3.103  1.00  0.00    -0.201 NA
BRANCH   7   9
HETATM    9  C   UNL     1      40.380 -15.073   0.833  1.00  0.00     0.014 A 
HETATM   10  C   UNL     1      39.584 -14.122   0.180  1.00  0.00     0.018 A 
HETATM   11  C   UNL     1      39.581 -14.039  -1.216  1.00  0.00     0.037 A 
HETATM   12  C   UNL     1      40.373 -14.895  -1.984  1.00  0.00     0.068 A 
HETATM   13  C   UNL     1      41.163 -15.849  -1.343  1.00  0.00     0.037 A 
HETATM   14  C   UNL     1      41.165 -15.936   0.057  1.00  0.00     0.018 A 
BRANCH  12  15
HETATM   15  O   UNL     1      40.280 -14.704  -3.334  1.00  0.00    -0.356 OA
HETATM   16  C   UNL     1      39.310 -15.480  -4.027  1.00  0.00     0.210 C 
ENDBRANCH  12  15
ENDBRANCH   7   9
ENDBRANCH   2   3
ENDBRANCH   1   2
BRANCH   1  17
HETATM   17  C   UNL     1      43.020 -14.039   5.766  1.00  0.00     0.227 C 
HETATM   18  N   UNL     1      42.980 -15.103   6.631  1.00  0.00    -0.352 N 
HETATM   19  H   UNL     1      42.219 -15.155   7.298  1.00  0.00     0.162 HD
HETATM   20  O   UNL     1      43.963 -13.900   4.984  1.00  0.00    -0.273 OA
BRANCH  18  21
HETATM   21  C   UNL     1      43.910 -16.217   6.555  1.00  0.00     0.225 C 
BRANCH  21  22
HETATM   22  C   UNL     1      43.371 -17.405   5.749  1.00  0.00     0.239 C 
HETATM   23  N   UNL     1      44.291 -17.897   4.840  1.00  0.00    -0.326 N 
HETATM   24  H   UNL     1      45.209 -17.447   4.856  1.00  0.00     0.169 HD
HETATM   25  O   UNL     1      42.216 -17.793   5.907  1.00  0.00    -0.271 OA
BRANCH  23  26
HETATM   26  C   UNL     1      44.119 -18.935   3.906  1.00  0.00     0.035 A 
HETATM   27  C   UNL     1      43.379 -18.810   2.727  1.00  0.00     0.032 A 
HETATM   28  C   UNL     1      43.264 -19.891   1.847  1.00  0.00     0.044 A 
HETATM   29  C   UNL     1      43.890 -21.094   2.148  1.00  0.00     0.116 A 
HETATM   30  F   UNL     1      43.780 -22.127   1.303  1.00  0.00    -0.206 F 
HETATM   31  C   UNL     1      44.628 -21.238   3.315  1.00  0.00     0.044 A 
HETATM   32  C   UNL     1      44.742 -20.158   4.194  1.00  0.00     0.032 A 
ENDBRANCH  23  26
ENDBRANCH  21  22
ENDBRANCH  18  21
ENDBRANCH   1  17
TORSDOF 8
ENDMDL
MODEL 6
REMARK VINA RESULT:      -7.6      4.872      5.369
REMARK  8 active torsions:
REMARK  status: ('A' for Active; 'I' for Inactive)
REMARK    1  A    between atoms: O_2  and  C_3 
REMARK    2  A    between atoms: C_6  and  C_7 
REMARK    3  A    between atoms: C_11  and  S_12 
REMARK    4  A    between atoms: S_12  and  C_13 
REMARK    5  A    between atoms: C_13  and  C_14 
REMARK       I    between atoms: C_14  and  N_15 
REMARK    6  A    between atoms: N_15  and  C_16 
REMARK    7  A    between atoms: C_16  and  C_17 
REMARK       I    between atoms: C_17  and  N_18 
REMARK    8  A    between atoms: N_18  and  C_19 
ROOT
HETATM    1  C   UNL     1      40.457 -13.054   5.212  1.00  0.00     0.185 C 
ENDROOT
BRANCH   1   2
HETATM    2  S   UNL     1      39.755 -13.131   3.532  1.00  0.00    -0.081 SA
BRANCH   2   3
HETATM    3  C   UNL     1      40.217 -14.726   3.086  1.00  0.00     0.185 A 
HETATM    4  N   UNL     1      39.411 -15.517   2.335  1.00  0.00    -0.253 N 
HETATM    5  N   UNL     1      39.963 -16.726   2.148  1.00  0.00    -0.152 NA
HETATM    6  H   UNL     1      38.503 -15.308   1.940  1.00  0.00     0.191 HD
HETATM    7  C   UNL     1      41.126 -16.609   2.815  1.00  0.00     0.182 A 
HETATM    8  N   UNL     1      41.309 -15.370   3.401  1.00  0.00    -0.201 NA
BRANCH   7   9
HETATM    9  C   UNL     1      42.113 -17.678   2.936  1.00  0.00     0.014 A 
HETATM   10  C   UNL     1      42.579 -18.094   4.190  1.00  0.00     0.018 A 
HETATM   11  C   UNL     1      43.527 -19.118   4.290  1.00  0.00     0.037 A 
HETATM   12  C   UNL     1      44.020 -19.748   3.147  1.00  0.00     0.068 A 
HETATM   13  C   UNL     1      43.567 -19.336   1.893  1.00  0.00     0.037 A 
HETATM   14  C   UNL     1      42.620 -18.308   1.791  1.00  0.00     0.018 A 
BRANCH  12  15
HETATM   15  O   UNL     1      44.936 -20.735   3.386  1.00  0.00    -0.356 OA
HETATM   16  C   UNL     1      45.116 -21.127   4.741  1.00  0.00     0.210 C 
ENDBRANCH  12  15
ENDBRANCH   7   9
ENDBRANCH   2   3
ENDBRANCH   1   2
BRANCH   1  17
HETATM   17  C   UNL     1      39.580 -12.298   6.202  1.00  0.00     0.227 C 
HETATM   18  N   UNL     1      39.753 -12.558   7.537  1.00  0.00    -0.352 N 
HETATM   19  H   UNL     1      40.448 -13.244   7.810  1.00  0.00     0.162 HD
HETATM   20  O   UNL     1      38.701 -11.521   5.820  1.00  0.00    -0.273 OA
BRANCH  18  21
HETATM   21  C   UNL     1      39.072 -11.811   8.581  1.00  0.00     0.225 C 
BRANCH  21  22
HETATM   22  C   UNL     1      39.996 -10.857   9.347  1.00  0.00     0.239 C 
HETATM   23  N   UNL     1      40.686 -11.486  10.370  1.00  0.00    -0.326 N 
HETATM   24  H   UNL     1      40.531 -12.494  10.449  1.00  0.00     0.169 HD
HETATM   25  O   UNL     1      40.032  -9.662   9.067  1.00  0.00    -0.271 OA
BRANCH  23  26
HETATM   26  C   UNL     1      41.569 -10.913  11.302  1.00  0.00     0.035 A 
HETATM   27  C   UNL     1      42.929 -10.696  11.060  1.00  0.00     0.032 A 
HETATM   28  C   UNL     1      43.736 -10.111  12.041  1.00  0.00     0.044 A 
HETATM   29  C   UNL     1      43.182  -9.743  13.260  1.00  0.00     0.116 A 
HETATM   30  F   UNL     1      43.957  -9.181  14.197  1.00  0.00    -0.206 F 
HETATM   31  C   UNL     1      41.834  -9.951  13.520  1.00  0.00     0.044 A 
HETATM   32  C   UNL     1      41.028 -10.536  12.540  1.00  0.00     0.032 A 
ENDBRANCH  23  26
ENDBRANCH  21  22
ENDBRANCH  18  21
ENDBRANCH   1  17
TORSDOF 8
ENDMDL
MODEL 7
REMARK VINA RESULT:      -7.6      3.291      6.139
REMARK  8 active torsions:
REMARK  status: ('A' for Active; 'I' for Inactive)
REMARK    1  A    between atoms: O_2  and  C_3 
REMARK    2  A    between atoms: C_6  and  C_7 
REMARK    3  A    between atoms: C_11  and  S_12 
REMARK    4  A    between atoms: S_12  and  C_13 
REMARK    5  A    between atoms: C_13  and  C_14 
REMARK       I    between atoms: C_14  and  N_15 
REMARK    6  A    between atoms: N_15  and  C_16 
REMARK    7  A    between atoms: C_16  and  C_17 
REMARK       I    between atoms: C_17  and  N_18 
REMARK    8  A    between atoms: N_18  and  C_19 
ROOT
HETATM    1  C   UNL     1      43.876 -20.219   6.358  1.00  0.00     0.185 C 
ENDROOT
BRANCH   1   2
HETATM    2  S   UNL     1      44.948 -20.714   4.971  1.00  0.00    -0.081 SA
BRANCH   2   3
HETATM    3  C   UNL     1      44.105 -19.981   3.663  1.00  0.00     0.185 A 
HETATM    4  N   UNL     1      44.168 -20.482   2.405  1.00  0.00    -0.253 N 
HETATM    5  N   UNL     1      43.463 -19.725   1.549  1.00  0.00    -0.152 NA
HETATM    6  H   UNL     1      44.661 -21.301   2.070  1.00  0.00     0.191 HD
HETATM    7  C   UNL     1      42.983 -18.763   2.358  1.00  0.00     0.182 A 
HETATM    8  N   UNL     1      43.362 -18.906   3.680  1.00  0.00    -0.201 NA
BRANCH   7   9
HETATM    9  C   UNL     1      42.147 -17.654   1.908  1.00  0.00     0.014 A 
HETATM   10  C   UNL     1      41.016 -17.259   2.634  1.00  0.00     0.018 A 
HETATM   11  C   UNL     1      40.224 -16.196   2.189  1.00  0.00     0.037 A 
HETATM   12  C   UNL     1      40.546 -15.505   1.020  1.00  0.00     0.068 A 
HETATM   13  C   UNL     1      41.667 -15.896   0.286  1.00  0.00     0.037 A 
HETATM   14  C   UNL     1      42.461 -16.963   0.729  1.00  0.00     0.018 A 
BRANCH  12  15
HETATM   15  O   UNL     1      39.693 -14.485   0.702  1.00  0.00    -0.356 OA
HETATM   16  C   UNL     1      38.470 -14.424   1.425  1.00  0.00     0.210 C 
ENDBRANCH  12  15
ENDBRANCH   7   9
ENDBRANCH   2   3
ENDBRANCH   1   2
BRANCH   1  17
HETATM   17  C   UNL     1      44.207 -18.842   6.919  1.00  0.00     0.227 C 
HETATM   18  N   UNL     1      43.187 -18.118   7.479  1.00  0.00    -0.352 N 
HETATM   19  H   UNL     1      42.257 -18.521   7.491  1.00  0.00     0.162 HD
HETATM   20  O   UNL     1      45.340 -18.363   6.823  1.00  0.00    -0.273 OA
BRANCH  18  21
HETATM   21  C   UNL     1      43.400 -16.852   8.162  1.00  0.00     0.225 C 
BRANCH  21  22
HETATM   22  C   UNL     1      43.527 -15.660   7.207  1.00  0.00     0.239 C 
HETATM   23  N   UNL     1      42.621 -15.711   6.161  1.00  0.00    -0.326 N 
HETATM   24  H   UNL     1      41.964 -16.495   6.188  1.00  0.00     0.169 HD
HETATM   25  O   UNL     1      44.399 -14.812   7.380  1.00  0.00    -0.271 OA
BRANCH  23  26
HETATM   26  C   UNL     1      42.493 -14.822   5.080  1.00  0.00     0.035 A 
HETATM   27  C   UNL     1      43.408 -14.736   4.026  1.00  0.00     0.032 A 
HETATM   28  C   UNL     1      43.200 -13.828   2.983  1.00  0.00     0.044 A 
HETATM   29  C   UNL     1      42.079 -13.009   2.995  1.00  0.00     0.116 A 
HETATM   30  F   UNL     1      41.881 -12.142   1.993  1.00  0.00    -0.206 F 
HETATM   31  C   UNL     1      41.158 -13.079   4.032  1.00  0.00     0.044 A 
HETATM   32  C   UNL     1      41.366 -13.986   5.075  1.00  0.00     0.032 A 
ENDBRANCH  23  26
ENDBRANCH  21  22
ENDBRANCH  18  21
ENDBRANCH   1  17
TORSDOF 8
ENDMDL
MODEL 8
REMARK VINA RESULT:      -7.4      5.167      9.634
REMARK  8 active torsions:
REMARK  status: ('A' for Active; 'I' for Inactive)
REMARK    1  A    between atoms: O_2  and  C_3 
REMARK    2  A    between atoms: C_6  and  C_7 
REMARK    3  A    between atoms: C_11  and  S_12 
REMARK    4  A    between atoms: S_12  and  C_13 
REMARK    5  A    between atoms: C_13  and  C_14 
REMARK       I    between atoms: C_14  and  N_15 
REMARK    6  A    between atoms: N_15  and  C_16 
REMARK    7  A    between atoms: C_16  and  C_17 
REMARK       I    between atoms: C_17  and  N_18 
REMARK    8  A    between atoms: N_18  and  C_19 
ROOT
HETATM    1  C   UNL     1      43.050 -15.482   6.508  1.00  0.00     0.185 C 
ENDROOT
BRANCH   1   2
HETATM    2  S   UNL     1      43.966 -14.063   5.824  1.00  0.00    -0.081 SA
BRANCH   2   3
HETATM    3  C   UNL     1      44.258 -13.171   7.264  1.00  0.00     0.185 A 
HETATM    4  N   UNL     1      45.405 -13.319   7.973  1.00  0.00    -0.253 N 
HETATM    5  N   UNL     1      45.392 -12.552   9.075  1.00  0.00    -0.152 NA
HETATM    6  H   UNL     1      46.203 -13.910   7.776  1.00  0.00     0.191 HD
HETATM    7  C   UNL     1      44.194 -11.946   8.979  1.00  0.00     0.182 A 
HETATM    8  N   UNL     1      43.474 -12.310   7.856  1.00  0.00    -0.201 NA
BRANCH   7   9
HETATM    9  C   UNL     1      43.674 -10.998   9.960  1.00  0.00     0.014 A 
HETATM   10  C   UNL     1      44.345 -10.766  11.168  1.00  0.00     0.018 A 
HETATM   11  C   UNL     1      43.834  -9.857  12.099  1.00  0.00     0.037 A 
HETATM   12  C   UNL     1      42.652  -9.160  11.842  1.00  0.00     0.068 A 
HETATM   13  C   UNL     1      41.973  -9.389  10.645  1.00  0.00     0.037 A 
HETATM   14  C   UNL     1      42.483 -10.303   9.712  1.00  0.00     0.018 A 
BRANCH  12  15
HETATM   15  O   UNL     1      42.267  -8.298  12.832  1.00  0.00    -0.356 OA
HETATM   16  C   UNL     1      41.301  -7.314  12.485  1.00  0.00     0.210 C 
ENDBRANCH  12  15
ENDBRANCH   7   9
ENDBRANCH   2   3
ENDBRANCH   1   2
BRANCH   1  17
HETATM   17  C   UNL     1      43.943 -16.661   6.872  1.00  0.00     0.227 C 
HETATM   18  N   UNL     1      43.413 -17.640   7.673  1.00  0.00    -0.352 N 
HETATM   19  H   UNL     1      42.457 -17.537   7.995  1.00  0.00     0.162 HD
HETATM   20  O   UNL     1      45.121 -16.712   6.513  1.00  0.00    -0.273 OA
BRANCH  18  21
HETATM   21  C   UNL     1      44.118 -18.873   7.982  1.00  0.00     0.225 C 
BRANCH  21  22
HETATM   22  C   UNL     1      43.922 -19.967   6.925  1.00  0.00     0.239 C 
HETATM   23  N   UNL     1      44.425 -19.610   5.686  1.00  0.00    -0.326 N 
HETATM   24  H   UNL     1      44.896 -18.703   5.648  1.00  0.00     0.169 HD
HETATM   25  O   UNL     1      43.325 -21.004   7.203  1.00  0.00    -0.271 OA
BRANCH  23  26
HETATM   26  C   UNL     1      44.369 -20.339   4.485  1.00  0.00     0.035 A 
HETATM   27  C   UNL     1      44.723 -21.687   4.371  1.00  0.00     0.032 A 
HETATM   28  C   UNL     1      44.631 -22.341   3.138  1.00  0.00     0.044 A 
HETATM   29  C   UNL     1      44.184 -21.646   2.022  1.00  0.00     0.116 A 
HETATM   30  F   UNL     1      44.094 -22.274   0.843  1.00  0.00    -0.206 F 
HETATM   31  C   UNL     1      43.829 -20.306   2.114  1.00  0.00     0.044 A 
HETATM   32  C   UNL     1      43.922 -19.654   3.346  1.00  0.00     0.032 A 
ENDBRANCH  23  26
ENDBRANCH  21  22
ENDBRANCH  18  21
ENDBRANCH   1  17
TORSDOF 8
ENDMDL
MODEL 9
REMARK VINA RESULT:      -7.3      2.988      6.385
REMARK  8 active torsions:
REMARK  status: ('A' for Active; 'I' for Inactive)
REMARK    1  A    between atoms: O_2  and  C_3 
REMARK    2  A    between atoms: C_6  and  C_7 
REMARK    3  A    between atoms: C_11  and  S_12 
REMARK    4  A    between atoms: S_12  and  C_13 
REMARK    5  A    between atoms: C_13  and  C_14 
REMARK       I    between atoms: C_14  and  N_15 
REMARK    6  A    between atoms: N_15  and  C_16 
REMARK    7  A    between atoms: C_16  and  C_17 
REMARK       I    between atoms: C_17  and  N_18 
REMARK    8  A    between atoms: N_18  and  C_19 
ROOT
HETATM    1  C   UNL     1      45.241 -20.700   3.526  1.00  0.00     0.185 C 
ENDROOT
BRANCH   1   2
HETATM    2  S   UNL     1      43.918 -20.844   2.282  1.00  0.00    -0.081 SA
BRANCH   2   3
HETATM    3  C   UNL     1      43.530 -19.182   2.062  1.00  0.00     0.185 A 
HETATM    4  N   UNL     1      44.481 -18.217   2.110  1.00  0.00    -0.253 N 
HETATM    5  N   UNL     1      43.940 -16.999   1.950  1.00  0.00    -0.152 NA
HETATM    6  H   UNL     1      45.479 -18.313   2.253  1.00  0.00     0.191 HD
HETATM    7  C   UNL     1      42.635 -17.292   1.802  1.00  0.00     0.182 A 
HETATM    8  N   UNL     1      42.357 -18.645   1.860  1.00  0.00    -0.201 NA
BRANCH   7   9
HETATM    9  C   UNL     1      41.587 -16.293   1.609  1.00  0.00     0.014 A 
HETATM   10  C   UNL     1      41.852 -15.086   0.950  1.00  0.00     0.018 A 
HETATM   11  C   UNL     1      40.839 -14.138   0.773  1.00  0.00     0.037 A 
HETATM   12  C   UNL     1      39.547 -14.377   1.244  1.00  0.00     0.068 A 
HETATM   13  C   UNL     1      39.276 -15.573   1.908  1.00  0.00     0.037 A 
HETATM   14  C   UNL     1      40.290 -16.524   2.088  1.00  0.00     0.018 A 
BRANCH  12  15
HETATM   15  O   UNL     1      38.652 -13.372   1.000  1.00  0.00    -0.356 OA
HETATM   16  C   UNL     1      37.313 -13.760   0.721  1.00  0.00     0.210 C 
ENDBRANCH  12  15
ENDBRANCH   7   9
ENDBRANCH   2   3
ENDBRANCH   1   2
BRANCH   1  17
HETATM   17  C   UNL     1      44.723 -20.594   4.954  1.00  0.00     0.227 C 
HETATM   18  N   UNL     1      44.656 -19.347   5.519  1.00  0.00    -0.352 N 
HETATM   19  H   UNL     1      44.959 -18.550   4.970  1.00  0.00     0.162 HD
HETATM   20  O   UNL     1      44.428 -21.597   5.608  1.00  0.00    -0.273 OA
BRANCH  18  21
HETATM   21  C   UNL     1      44.060 -19.101   6.821  1.00  0.00     0.225 C 
BRANCH  21  22
HETATM   22  C   UNL     1      43.252 -17.799   6.885  1.00  0.00     0.239 C 
HETATM   23  N   UNL     1      43.016 -17.254   5.634  1.00  0.00    -0.326 N 
HETATM   24  H   UNL     1      43.360 -17.803   4.843  1.00  0.00     0.169 HD
HETATM   25  O   UNL     1      42.927 -17.318   7.967  1.00  0.00    -0.271 OA
BRANCH  23  26
HETATM   26  C   UNL     1      42.362 -16.048   5.323  1.00  0.00     0.035 A 
HETATM   27  C   UNL     1      42.980 -14.965   4.690  1.00  0.00     0.032 A 
HETATM   28  C   UNL     1      42.253 -13.803   4.409  1.00  0.00     0.044 A 
HETATM   29  C   UNL     1      40.912 -13.728   4.760  1.00  0.00     0.116 A 
HETATM   30  F   UNL     1      40.217 -12.616   4.487  1.00  0.00    -0.206 F 
HETATM   31  C   UNL     1      40.281 -14.792   5.389  1.00  0.00     0.044 A 
HETATM   32  C   UNL     1      41.007 -15.953   5.671  1.00  0.00     0.032 A 
ENDBRANCH  23  26
ENDBRANCH  21  22
ENDBRANCH  18  21
ENDBRANCH   1  17
TORSDOF 8
ENDMDL
MODEL 10
REMARK VINA RESULT:      -7.3      3.221      7.013
REMARK  8 active torsions:
REMARK  status: ('A' for Active; 'I' for Inactive)
REMARK    1  A    between atoms: O_2  and  C_3 
REMARK    2  A    between atoms: C_6  and  C_7 
REMARK    3  A    between atoms: C_11  and  S_12 
REMARK    4  A    between atoms: S_12  and  C_13 
REMARK    5  A    between atoms: C_13  and  C_14 
REMARK       I    between atoms: C_14  and  N_15 
REMARK    6  A    between atoms: N_15  and  C_16 
REMARK    7  A    between atoms: C_16  and  C_17 
REMARK       I    between atoms: C_17  and  N_18 
REMARK    8  A    between atoms: N_18  and  C_19 
ROOT
HETATM    1  C   UNL     1      42.602 -15.078   6.214  1.00  0.00     0.185 C 
ENDROOT
BRANCH   1   2
HETATM    2  S   UNL     1      40.919 -15.743   6.006  1.00  0.00    -0.081 SA
BRANCH   2   3
HETATM    3  C   UNL     1      40.918 -16.035   4.311  1.00  0.00     0.185 A 
HETATM    4  N   UNL     1      41.350 -17.211   3.791  1.00  0.00    -0.253 N 
HETATM    5  N   UNL     1      41.293 -17.193   2.450  1.00  0.00    -0.152 NA
HETATM    6  H   UNL     1      41.693 -18.032   4.273  1.00  0.00     0.191 HD
HETATM    7  C   UNL     1      40.807 -15.962   2.207  1.00  0.00     0.182 A 
HETATM    8  N   UNL     1      40.558 -15.226   3.351  1.00  0.00    -0.201 NA
BRANCH   7   9
HETATM    9  C   UNL     1      40.566 -15.425   0.871  1.00  0.00     0.014 A 
HETATM   10  C   UNL     1      39.620 -14.413   0.658  1.00  0.00     0.018 A 
HETATM   11  C   UNL     1      39.398 -13.909  -0.627  1.00  0.00     0.037 A 
HETATM   12  C   UNL     1      40.117 -14.397  -1.719  1.00  0.00     0.068 A 
HETATM   13  C   UNL     1      41.057 -15.409  -1.518  1.00  0.00     0.037 A 
HETATM   14  C   UNL     1      41.278 -15.917  -0.231  1.00  0.00     0.018 A 
BRANCH  12  15
HETATM   15  O   UNL     1      39.808 -13.814  -2.916  1.00  0.00    -0.356 OA
HETATM   16  C   UNL     1      38.483 -13.320  -3.065  1.00  0.00     0.210 C 
ENDBRANCH  12  15
ENDBRANCH   7   9
ENDBRANCH   2   3
ENDBRANCH   1   2
BRANCH   1  17
HETATM   17  C   UNL     1      43.583 -16.084   6.802  1.00  0.00     0.227 C 
HETATM   18  N   UNL     1      43.072 -17.119   7.542  1.00  0.00    -0.352 N 
HETATM   19  H   UNL     1      42.068 -17.169   7.673  1.00  0.00     0.162 HD
HETATM   20  O   UNL     1      44.802 -15.946   6.672  1.00  0.00    -0.273 OA
BRANCH  18  21
HETATM   21  C   UNL     1      43.890 -18.210   8.043  1.00  0.00     0.225 C 
BRANCH  21  22
HETATM   22  C   UNL     1      43.889 -19.441   7.129  1.00  0.00     0.239 C 
HETATM   23  N   UNL     1      44.290 -19.149   5.837  1.00  0.00    -0.326 N 
HETATM   24  H   UNL     1      44.577 -18.180   5.674  1.00  0.00     0.169 HD
HETATM   25  O   UNL     1      43.508 -20.531   7.550  1.00  0.00    -0.271 OA
BRANCH  23  26
HETATM   26  C   UNL     1      44.354 -20.015   4.731  1.00  0.00     0.035 A 
HETATM   27  C   UNL     1      44.745 -21.355   4.810  1.00  0.00     0.032 A 
HETATM   28  C   UNL     1      44.773 -22.152   3.661  1.00  0.00     0.044 A 
HETATM   29  C   UNL     1      44.409 -21.608   2.436  1.00  0.00     0.116 A 
HETATM   30  F   UNL     1      44.434 -22.373   1.337  1.00  0.00    -0.206 F 
HETATM   31  C   UNL     1      44.019 -20.279   2.337  1.00  0.00     0.044 A 
HETATM   32  C   UNL     1      43.991 -19.483   3.485  1.00  0.00     0.032 A 
ENDBRANCH  23  26
ENDBRANCH  21  22
ENDBRANCH  18  21
ENDBRANCH   1  17
TORSDOF 8
ENDMDL
