MODEL 1
REMARK VINA RESULT:      -8.3      0.000      0.000
REMARK  9 active torsions:
REMARK  status: ('A' for Active; 'I' for Inactive)
REMARK    1  A    between atoms: C_3  and  O_4 
REMARK    2  A    between atoms: O_4  and  C_5 
REMARK    3  A    between atoms: C_5  and  C_6 
REMARK    4  A    between atoms: N_7  and  C_8 
REMARK    5  A    between atoms: C_8  and  C_9 
REMARK    6  A    between atoms: C_9  and  C_10 
REMARK    7  A    between atoms: C_16  and  S_17 
REMARK    8  A    between atoms: S_17  and  C_18 
REMARK    9  A    between atoms: C_18  and  C_19 
REMARK       I    between atoms: C_19  and  N_20 
ROOT
HETATM    1  C   UNL     1      42.952 -14.026   2.947  1.00  0.00     0.155 A 
HETATM    2  N   UNL     1      42.844 -15.137   2.130  1.00  0.00    -0.309 N 
HETATM    3  C   UNL     1      41.880 -14.799   1.211  1.00  0.00     0.192 A 
HETATM    4  N   UNL     1      41.407 -13.604   1.475  1.00  0.00    -0.123 NA
HETATM    5  N   UNL     1      42.080 -13.116   2.554  1.00  0.00    -0.132 NA
ENDROOT
BRANCH   1   6
HETATM    6  C   UNL     1      43.840 -13.872   4.133  1.00  0.00     0.256 C 
BRANCH   6   7
HETATM    7  O   UNL     1      43.023 -13.897   5.301  1.00  0.00    -0.343 OA
BRANCH   7   8
HETATM    8  C   UNL     1      42.997 -15.097   5.963  1.00  0.00     0.075 A 
HETATM    9  C   UNL     1      41.741 -15.712   6.100  1.00  0.00    -0.029 A 
HETATM   10  C   UNL     1      40.505 -15.099   5.503  1.00  0.00     0.051 C 
HETATM   11  C   UNL     1      41.654 -16.955   6.746  1.00  0.00     0.009 A 
HETATM   12  C   UNL     1      42.791 -17.561   7.279  1.00  0.00     0.001 A 
HETATM   13  C   UNL     1      44.027 -16.930   7.173  1.00  0.00     0.003 A 
HETATM   14  C   UNL     1      44.131 -15.700   6.522  1.00  0.00     0.037 A 
ENDBRANCH   7   8
ENDBRANCH   6   7
ENDBRANCH   1   6
BRANCH   2  15
HETATM   15  C   UNL     1      43.583 -16.387   2.230  1.00  0.00     0.137 C 
BRANCH  15  16
HETATM   16  C   UNL     1      42.995 -17.357   3.265  1.00  0.00     0.059 C 
BRANCH  16  17
HETATM   17  C   UNL     1      43.457 -18.792   3.168  1.00  0.00    -0.057 A 
HETATM   18  C   UNL     1      44.239 -19.383   4.169  1.00  0.00     0.007 A 
HETATM   19  C   UNL     1      44.732 -20.680   4.016  1.00  0.00     0.001 A 
HETATM   20  C   UNL     1      44.461 -21.402   2.855  1.00  0.00     0.000 A 
HETATM   21  C   UNL     1      43.690 -20.828   1.848  1.00  0.00     0.001 A 
HETATM   22  C   UNL     1      43.191 -19.533   2.003  1.00  0.00     0.007 A 
ENDBRANCH  16  17
ENDBRANCH  15  16
ENDBRANCH   2  15
BRANCH   3  23
HETATM   23  S   UNL     1      41.353 -15.795  -0.100  1.00  0.00    -0.081 SA
BRANCH  23  24
HETATM   24  C   UNL     1      41.110 -14.556  -1.409  1.00  0.00     0.185 C 
BRANCH  24  25
HETATM   25  C   UNL     1      40.774 -15.207  -2.741  1.00  0.00     0.226 C 
HETATM   26  N   UNL     1      39.464 -15.622  -2.864  1.00  0.00    -0.365 N 
HETATM   27  C   UNL     1      38.985 -16.211  -4.089  1.00  0.00     0.149 C 
HETATM   28  H   UNL     1      38.780 -15.145  -2.275  1.00  0.00     0.161 HD
HETATM   29  O   UNL     1      41.618 -15.377  -3.619  1.00  0.00    -0.273 OA
ENDBRANCH  24  25
ENDBRANCH  23  24
ENDBRANCH   3  23
TORSDOF 9
ENDMDL
MODEL 2
REMARK VINA RESULT:      -8.2      1.026      1.947
REMARK  9 active torsions:
REMARK  status: ('A' for Active; 'I' for Inactive)
REMARK    1  A    between atoms: C_3  and  O_4 
REMARK    2  A    between atoms: O_4  and  C_5 
REMARK    3  A    between atoms: C_5  and  C_6 
REMARK    4  A    between atoms: N_7  and  C_8 
REMARK    5  A    between atoms: C_8  and  C_9 
REMARK    6  A    between atoms: C_9  and  C_10 
REMARK    7  A    between atoms: C_16  and  S_17 
REMARK    8  A    between atoms: S_17  and  C_18 
REMARK    9  A    between atoms: C_18  and  C_19 
REMARK       I    between atoms: C_19  and  N_20 
ROOT
HETATM    1  C   UNL     1      40.406 -14.932   3.530  1.00  0.00     0.155 A 
HETATM    2  N   UNL     1      40.908 -15.882   2.660  1.00  0.00    -0.309 N 
HETATM    3  C   UNL     1      40.850 -15.286   1.423  1.00  0.00     0.192 A 
HETATM    4  N   UNL     1      40.312 -14.094   1.525  1.00  0.00    -0.123 NA
HETATM    5  N   UNL     1      40.041 -13.867   2.840  1.00  0.00    -0.132 NA
ENDROOT
BRANCH   1   6
HETATM    6  C   UNL     1      40.219 -15.076   5.001  1.00  0.00     0.256 C 
BRANCH   6   7
HETATM    7  O   UNL     1      41.390 -14.577   5.643  1.00  0.00    -0.343 OA
BRANCH   7   8
HETATM    8  C   UNL     1      42.209 -15.537   6.181  1.00  0.00     0.075 A 
HETATM    9  C   UNL     1      43.588 -15.273   6.151  1.00  0.00    -0.029 A 
HETATM   10  C   UNL     1      44.122 -13.981   5.601  1.00  0.00     0.051 C 
HETATM   11  C   UNL     1      44.475 -16.205   6.711  1.00  0.00     0.009 A 
HETATM   12  C   UNL     1      44.002 -17.398   7.259  1.00  0.00     0.001 A 
HETATM   13  C   UNL     1      42.637 -17.670   7.252  1.00  0.00     0.003 A 
HETATM   14  C   UNL     1      41.742 -16.746   6.711  1.00  0.00     0.037 A 
ENDBRANCH   7   8
ENDBRANCH   6   7
ENDBRANCH   1   6
BRANCH   2  15
HETATM   15  C   UNL     1      41.385 -17.219   2.985  1.00  0.00     0.137 C 
BRANCH  15  16
HETATM   16  C   UNL     1      42.912 -17.300   3.124  1.00  0.00     0.059 C 
BRANCH  16  17
HETATM   17  C   UNL     1      43.515 -18.682   3.033  1.00  0.00    -0.057 A 
HETATM   18  C   UNL     1      43.260 -19.526   1.944  1.00  0.00     0.007 A 
HETATM   19  C   UNL     1      43.753 -20.832   1.924  1.00  0.00     0.001 A 
HETATM   20  C   UNL     1      44.496 -21.319   2.998  1.00  0.00     0.000 A 
HETATM   21  C   UNL     1      44.754 -20.496   4.090  1.00  0.00     0.001 A 
HETATM   22  C   UNL     1      44.268 -19.186   4.108  1.00  0.00     0.007 A 
ENDBRANCH  16  17
ENDBRANCH  15  16
ENDBRANCH   2  15
BRANCH   3  23
HETATM   23  S   UNL     1      41.392 -15.995  -0.057  1.00  0.00    -0.081 SA
BRANCH  23  24
HETATM   24  C   UNL     1      41.001 -14.675  -1.244  1.00  0.00     0.185 C 
BRANCH  24  25
HETATM   25  C   UNL     1      40.732 -15.232  -2.633  1.00  0.00     0.226 C 
HETATM   26  N   UNL     1      39.427 -15.623  -2.853  1.00  0.00    -0.365 N 
HETATM   27  C   UNL     1      39.011 -16.124  -4.138  1.00  0.00     0.149 C 
HETATM   28  H   UNL     1      38.717 -15.180  -2.270  1.00  0.00     0.161 HD
HETATM   29  O   UNL     1      41.621 -15.351  -3.474  1.00  0.00    -0.273 OA
ENDBRANCH  24  25
ENDBRANCH  23  24
ENDBRANCH   3  23
TORSDOF 9
ENDMDL
MODEL 3
REMARK VINA RESULT:      -7.7      2.162      4.758
REMARK  9 active torsions:
REMARK  status: ('A' for Active; 'I' for Inactive)
REMARK    1  A    between atoms: C_3  and  O_4 
REMARK    2  A    between atoms: O_4  and  C_5 
REMARK    3  A    between atoms: C_5  and  C_6 
REMARK    4  A    between atoms: N_7  and  C_8 
REMARK    5  A    between atoms: C_8  and  C_9 
REMARK    6  A    between atoms: C_9  and  C_10 
REMARK    7  A    between atoms: C_16  and  S_17 
REMARK    8  A    between atoms: S_17  and  C_18 
REMARK    9  A    between atoms: C_18  and  C_19 
REMARK       I    between atoms: C_19  and  N_20 
ROOT
HETATM    1  C   UNL     1      42.852 -16.462   1.396  1.00  0.00     0.155 A 
HETATM    2  N   UNL     1      42.386 -15.295   1.972  1.00  0.00    -0.309 N 
HETATM    3  C   UNL     1      41.388 -14.867   1.131  1.00  0.00     0.192 A 
HETATM    4  N   UNL     1      41.287 -15.677   0.105  1.00  0.00    -0.123 NA
HETATM    5  N   UNL     1      42.195 -16.680   0.271  1.00  0.00    -0.132 NA
ENDROOT
BRANCH   1   6
HETATM    6  C   UNL     1      43.963 -17.323   1.891  1.00  0.00     0.256 C 
BRANCH   6   7
HETATM    7  O   UNL     1      43.466 -18.099   2.978  1.00  0.00    -0.343 OA
BRANCH   7   8
HETATM    8  C   UNL     1      43.768 -19.436   2.921  1.00  0.00     0.075 A 
HETATM    9  C   UNL     1      44.474 -19.968   4.013  1.00  0.00    -0.029 A 
HETATM   10  C   UNL     1      44.830 -19.116   5.199  1.00  0.00     0.051 C 
HETATM   11  C   UNL     1      44.789 -21.335   4.025  1.00  0.00     0.009 A 
HETATM   12  C   UNL     1      44.440 -22.154   2.951  1.00  0.00     0.001 A 
HETATM   13  C   UNL     1      43.773 -21.614   1.855  1.00  0.00     0.003 A 
HETATM   14  C   UNL     1      43.442 -20.259   1.836  1.00  0.00     0.037 A 
ENDBRANCH   7   8
ENDBRANCH   6   7
ENDBRANCH   1   6
BRANCH   2  15
HETATM   15  C   UNL     1      42.857 -14.660   3.195  1.00  0.00     0.137 C 
BRANCH  15  16
HETATM   16  C   UNL     1      41.880 -14.807   4.370  1.00  0.00     0.059 C 
BRANCH  16  17
HETATM   17  C   UNL     1      42.425 -15.476   5.609  1.00  0.00    -0.057 A 
HETATM   18  C   UNL     1      43.648 -15.093   6.174  1.00  0.00     0.007 A 
HETATM   19  C   UNL     1      44.178 -15.786   7.264  1.00  0.00     0.001 A 
HETATM   20  C   UNL     1      43.501 -16.881   7.798  1.00  0.00     0.000 A 
HETATM   21  C   UNL     1      42.287 -17.279   7.245  1.00  0.00     0.001 A 
HETATM   22  C   UNL     1      41.752 -16.582   6.158  1.00  0.00     0.007 A 
ENDBRANCH  16  17
ENDBRANCH  15  16
ENDBRANCH   2  15
BRANCH   3  23
HETATM   23  S   UNL     1      40.408 -13.464   1.373  1.00  0.00    -0.081 SA
BRANCH  23  24
HETATM   24  C   UNL     1      38.738 -14.170   1.222  1.00  0.00     0.185 C 
BRANCH  24  25
HETATM   25  C   UNL     1      38.074 -13.762  -0.083  1.00  0.00     0.226 C 
HETATM   26  N   UNL     1      38.551 -14.415  -1.201  1.00  0.00    -0.365 N 
HETATM   27  C   UNL     1      37.983 -14.169  -2.502  1.00  0.00     0.149 C 
HETATM   28  H   UNL     1      38.984 -15.326  -1.043  1.00  0.00     0.161 HD
HETATM   29  O   UNL     1      37.205 -12.893  -0.132  1.00  0.00    -0.273 OA
ENDBRANCH  24  25
ENDBRANCH  23  24
ENDBRANCH   3  23
TORSDOF 9
ENDMDL
MODEL 4
REMARK VINA RESULT:      -7.7      1.974      4.603
REMARK  9 active torsions:
REMARK  status: ('A' for Active; 'I' for Inactive)
REMARK    1  A    between atoms: C_3  and  O_4 
REMARK    2  A    between atoms: O_4  and  C_5 
REMARK    3  A    between atoms: C_5  and  C_6 
REMARK    4  A    between atoms: N_7  and  C_8 
REMARK    5  A    between atoms: C_8  and  C_9 
REMARK    6  A    between atoms: C_9  and  C_10 
REMARK    7  A    between atoms: C_16  and  S_17 
REMARK    8  A    between atoms: S_17  and  C_18 
REMARK    9  A    between atoms: C_18  and  C_19 
REMARK       I    between atoms: C_19  and  N_20 
ROOT
HETATM    1  C   UNL     1      42.357 -17.199   2.321  1.00  0.00     0.155 A 
HETATM    2  N   UNL     1      41.637 -16.038   2.534  1.00  0.00    -0.309 N 
HETATM    3  C   UNL     1      40.474 -16.217   1.824  1.00  0.00     0.192 A 
HETATM    4  N   UNL     1      40.504 -17.367   1.194  1.00  0.00    -0.123 NA
HETATM    5  N   UNL     1      41.676 -17.987   1.509  1.00  0.00    -0.132 NA
ENDROOT
BRANCH   1   6
HETATM    6  C   UNL     1      43.716 -17.517   2.844  1.00  0.00     0.256 C 
BRANCH   6   7
HETATM    7  O   UNL     1      44.055 -18.833   2.416  1.00  0.00    -0.343 OA
BRANCH   7   8
HETATM    8  C   UNL     1      44.251 -19.739   3.427  1.00  0.00     0.075 A 
HETATM    9  C   UNL     1      44.351 -21.089   3.051  1.00  0.00    -0.029 A 
HETATM   10  C   UNL     1      44.294 -21.500   1.606  1.00  0.00     0.051 C 
HETATM   11  C   UNL     1      44.579 -22.060   4.038  1.00  0.00     0.009 A 
HETATM   12  C   UNL     1      44.669 -21.699   5.382  1.00  0.00     0.001 A 
HETATM   13  C   UNL     1      44.532 -20.365   5.753  1.00  0.00     0.003 A 
HETATM   14  C   UNL     1      44.319 -19.387   4.781  1.00  0.00     0.037 A 
ENDBRANCH   7   8
ENDBRANCH   6   7
ENDBRANCH   1   6
BRANCH   2  15
HETATM   15  C   UNL     1      42.030 -14.883   3.327  1.00  0.00     0.137 C 
BRANCH  15  16
HETATM   16  C   UNL     1      41.440 -14.892   4.745  1.00  0.00     0.059 C 
BRANCH  16  17
HETATM   17  C   UNL     1      42.251 -15.610   5.797  1.00  0.00    -0.057 A 
HETATM   18  C   UNL     1      43.585 -15.270   6.058  1.00  0.00     0.007 A 
HETATM   19  C   UNL     1      44.344 -16.007   6.969  1.00  0.00     0.001 A 
HETATM   20  C   UNL     1      43.785 -17.102   7.625  1.00  0.00     0.000 A 
HETATM   21  C   UNL     1      42.463 -17.457   7.374  1.00  0.00     0.001 A 
HETATM   22  C   UNL     1      41.701 -16.717   6.467  1.00  0.00     0.007 A 
ENDBRANCH  16  17
ENDBRANCH  15  16
ENDBRANCH   2  15
BRANCH   3  23
HETATM   23  S   UNL     1      39.160 -15.095   1.756  1.00  0.00    -0.081 SA
BRANCH  23  24
HETATM   24  C   UNL     1      39.882 -13.768   0.743  1.00  0.00     0.185 C 
BRANCH  24  25
HETATM   25  C   UNL     1      40.744 -14.325  -0.377  1.00  0.00     0.226 C 
HETATM   26  N   UNL     1      40.067 -15.106  -1.292  1.00  0.00    -0.365 N 
HETATM   27  C   UNL     1      40.743 -15.660  -2.437  1.00  0.00     0.149 C 
HETATM   28  H   UNL     1      39.064 -14.938  -1.376  1.00  0.00     0.161 HD
HETATM   29  O   UNL     1      41.955 -14.118  -0.437  1.00  0.00    -0.273 OA
ENDBRANCH  24  25
ENDBRANCH  23  24
ENDBRANCH   3  23
TORSDOF 9
ENDMDL
MODEL 5
REMARK VINA RESULT:      -7.5      1.827      4.637
REMARK  9 active torsions:
REMARK  status: ('A' for Active; 'I' for Inactive)
REMARK    1  A    between atoms: C_3  and  O_4 
REMARK    2  A    between atoms: O_4  and  C_5 
REMARK    3  A    between atoms: C_5  and  C_6 
REMARK    4  A    between atoms: N_7  and  C_8 
REMARK    5  A    between atoms: C_8  and  C_9 
REMARK    6  A    between atoms: C_9  and  C_10 
REMARK    7  A    between atoms: C_16  and  S_17 
REMARK    8  A    between atoms: S_17  and  C_18 
REMARK    9  A    between atoms: C_18  and  C_19 
REMARK       I    between atoms: C_19  and  N_20 
ROOT
HETATM    1  C   UNL     1      42.953 -16.339   1.967  1.00  0.00     0.155 A 
HETATM    2  N   UNL     1      42.736 -14.998   2.225  1.00  0.00    -0.309 N 
HETATM    3  C   UNL     1      41.746 -14.632   1.347  1.00  0.00     0.192 A 
HETATM    4  N   UNL     1      41.420 -15.649   0.586  1.00  0.00    -0.123 NA
HETATM    5  N   UNL     1      42.167 -16.720   0.977  1.00  0.00    -0.132 NA
ENDROOT
BRANCH   1   6
HETATM    6  C   UNL     1      43.953 -17.227   2.626  1.00  0.00     0.256 C 
BRANCH   6   7
HETATM    7  O   UNL     1      43.242 -18.215   3.367  1.00  0.00    -0.343 OA
BRANCH   7   8
HETATM    8  C   UNL     1      43.626 -19.509   3.123  1.00  0.00     0.075 A 
HETATM    9  C   UNL     1      44.414 -20.126   4.109  1.00  0.00    -0.029 A 
HETATM   10  C   UNL     1      44.767 -19.412   5.384  1.00  0.00     0.051 C 
HETATM   11  C   UNL     1      44.816 -21.459   3.930  1.00  0.00     0.009 A 
HETATM   12  C   UNL     1      44.473 -22.155   2.771  1.00  0.00     0.001 A 
HETATM   13  C   UNL     1      43.724 -21.526   1.780  1.00  0.00     0.003 A 
HETATM   14  C   UNL     1      43.305 -20.206   1.952  1.00  0.00     0.037 A 
ENDBRANCH   7   8
ENDBRANCH   6   7
ENDBRANCH   1   6
BRANCH   2  15
HETATM   15  C   UNL     1      43.416 -14.162   3.204  1.00  0.00     0.137 C 
BRANCH  15  16
HETATM   16  C   UNL     1      42.577 -13.901   4.464  1.00  0.00     0.059 C 
BRANCH  16  17
HETATM   17  C   UNL     1      42.599 -14.986   5.514  1.00  0.00    -0.057 A 
HETATM   18  C   UNL     1      43.713 -15.189   6.339  1.00  0.00     0.007 A 
HETATM   19  C   UNL     1      43.749 -16.255   7.239  1.00  0.00     0.001 A 
HETATM   20  C   UNL     1      42.678 -17.143   7.320  1.00  0.00     0.000 A 
HETATM   21  C   UNL     1      41.566 -16.960   6.504  1.00  0.00     0.001 A 
HETATM   22  C   UNL     1      41.525 -15.889   5.607  1.00  0.00     0.007 A 
ENDBRANCH  16  17
ENDBRANCH  15  16
ENDBRANCH   2  15
BRANCH   3  23
HETATM   23  S   UNL     1      41.030 -13.062   1.243  1.00  0.00    -0.081 SA
BRANCH  23  24
HETATM   24  C   UNL     1      42.066 -12.286  -0.035  1.00  0.00     0.185 C 
BRANCH  24  25
HETATM   25  C   UNL     1      41.555 -12.592  -1.433  1.00  0.00     0.226 C 
HETATM   26  N   UNL     1      42.003 -13.785  -1.961  1.00  0.00    -0.365 N 
HETATM   27  C   UNL     1      41.563 -14.234  -3.258  1.00  0.00     0.149 C 
HETATM   28  H   UNL     1      42.288 -14.500  -1.290  1.00  0.00     0.161 HD
HETATM   29  O   UNL     1      40.826 -11.816  -2.049  1.00  0.00    -0.273 OA
ENDBRANCH  24  25
ENDBRANCH  23  24
ENDBRANCH   3  23
TORSDOF 9
ENDMDL
MODEL 6
REMARK VINA RESULT:      -7.4      2.211      6.950
REMARK  9 active torsions:
REMARK  status: ('A' for Active; 'I' for Inactive)
REMARK    1  A    between atoms: C_3  and  O_4 
REMARK    2  A    between atoms: O_4  and  C_5 
REMARK    3  A    between atoms: C_5  and  C_6 
REMARK    4  A    between atoms: N_7  and  C_8 
REMARK    5  A    between atoms: C_8  and  C_9 
REMARK    6  A    between atoms: C_9  and  C_10 
REMARK    7  A    between atoms: C_16  and  S_17 
REMARK    8  A    between atoms: S_17  and  C_18 
REMARK    9  A    between atoms: C_18  and  C_19 
REMARK       I    between atoms: C_19  and  N_20 
ROOT
HETATM    1  C   UNL     1      41.600 -15.428   1.906  1.00  0.00     0.155 A 
HETATM    2  N   UNL     1      41.795 -16.260   2.993  1.00  0.00    -0.309 N 
HETATM    3  C   UNL     1      41.675 -15.437   4.087  1.00  0.00     0.192 A 
HETATM    4  N   UNL     1      41.473 -14.201   3.698  1.00  0.00    -0.123 NA
HETATM    5  N   UNL     1      41.417 -14.193   2.337  1.00  0.00    -0.132 NA
ENDROOT
BRANCH   1   6
HETATM    6  C   UNL     1      41.653 -15.809   0.467  1.00  0.00     0.256 C 
BRANCH   6   7
HETATM    7  O   UNL     1      40.731 -14.984  -0.241  1.00  0.00    -0.343 OA
BRANCH   7   8
HETATM    8  C   UNL     1      41.297 -14.144  -1.166  1.00  0.00     0.075 A 
HETATM    9  C   UNL     1      41.204 -14.538  -2.511  1.00  0.00    -0.029 A 
HETATM   10  C   UNL     1      40.475 -15.792  -2.906  1.00  0.00     0.051 C 
HETATM   11  C   UNL     1      41.740 -13.708  -3.507  1.00  0.00     0.009 A 
HETATM   12  C   UNL     1      42.392 -12.522  -3.169  1.00  0.00     0.001 A 
HETATM   13  C   UNL     1      42.514 -12.155  -1.831  1.00  0.00     0.003 A 
HETATM   14  C   UNL     1      41.974 -12.964  -0.831  1.00  0.00     0.037 A 
ENDBRANCH   7   8
ENDBRANCH   6   7
ENDBRANCH   1   6
BRANCH   2  15
HETATM   15  C   UNL     1      42.073 -17.689   2.977  1.00  0.00     0.137 C 
BRANCH  15  16
HETATM   16  C   UNL     1      43.568 -18.014   2.846  1.00  0.00     0.059 C 
BRANCH  16  17
HETATM   17  C   UNL     1      43.934 -19.479   2.865  1.00  0.00    -0.057 A 
HETATM   18  C   UNL     1      43.585 -20.338   1.816  1.00  0.00     0.007 A 
HETATM   19  C   UNL     1      43.852 -21.706   1.895  1.00  0.00     0.001 A 
HETATM   20  C   UNL     1      44.460 -22.239   3.031  1.00  0.00     0.000 A 
HETATM   21  C   UNL     1      44.809 -21.400   4.085  1.00  0.00     0.001 A 
HETATM   22  C   UNL     1      44.549 -20.030   4.004  1.00  0.00     0.007 A 
ENDBRANCH  16  17
ENDBRANCH  15  16
ENDBRANCH   2  15
BRANCH   3  23
HETATM   23  S   UNL     1      41.781 -15.943   5.736  1.00  0.00    -0.081 SA
BRANCH  23  24
HETATM   24  C   UNL     1      43.583 -15.963   5.983  1.00  0.00     0.185 C 
BRANCH  24  25
HETATM   25  C   UNL     1      44.116 -14.583   6.331  1.00  0.00     0.226 C 
HETATM   26  N   UNL     1      44.220 -14.330   7.684  1.00  0.00    -0.365 N 
HETATM   27  C   UNL     1      44.757 -13.083   8.165  1.00  0.00     0.149 C 
HETATM   28  H   UNL     1      44.310 -15.145   8.291  1.00  0.00     0.161 HD
HETATM   29  O   UNL     1      44.398 -13.753   5.468  1.00  0.00    -0.273 OA
ENDBRANCH  24  25
ENDBRANCH  23  24
ENDBRANCH   3  23
TORSDOF 9
ENDMDL
MODEL 7
REMARK VINA RESULT:      -7.4      2.104      7.027
REMARK  9 active torsions:
REMARK  status: ('A' for Active; 'I' for Inactive)
REMARK    1  A    between atoms: C_3  and  O_4 
REMARK    2  A    between atoms: O_4  and  C_5 
REMARK    3  A    between atoms: C_5  and  C_6 
REMARK    4  A    between atoms: N_7  and  C_8 
REMARK    5  A    between atoms: C_8  and  C_9 
REMARK    6  A    between atoms: C_9  and  C_10 
REMARK    7  A    between atoms: C_16  and  S_17 
REMARK    8  A    between atoms: S_17  and  C_18 
REMARK    9  A    between atoms: C_18  and  C_19 
REMARK       I    between atoms: C_19  and  N_20 
ROOT
HETATM    1  C   UNL     1      41.194 -15.329   0.997  1.00  0.00     0.155 A 
HETATM    2  N   UNL     1      41.387 -16.084   2.140  1.00  0.00    -0.309 N 
HETATM    3  C   UNL     1      41.134 -15.217   3.175  1.00  0.00     0.192 A 
HETATM    4  N   UNL     1      40.858 -14.024   2.705  1.00  0.00    -0.123 NA
HETATM    5  N   UNL     1      40.887 -14.093   1.345  1.00  0.00    -0.132 NA
ENDROOT
BRANCH   1   6
HETATM    6  C   UNL     1      41.367 -15.780  -0.412  1.00  0.00     0.256 C 
BRANCH   6   7
HETATM    7  O   UNL     1      41.026 -14.691  -1.267  1.00  0.00    -0.343 OA
BRANCH   7   8
HETATM    8  C   UNL     1      40.064 -14.970  -2.203  1.00  0.00     0.075 A 
HETATM    9  C   UNL     1      38.884 -14.209  -2.137  1.00  0.00    -0.029 A 
HETATM   10  C   UNL     1      38.720 -13.115  -1.120  1.00  0.00     0.051 C 
HETATM   11  C   UNL     1      37.874 -14.429  -3.085  1.00  0.00     0.009 A 
HETATM   12  C   UNL     1      38.017 -15.416  -4.061  1.00  0.00     0.001 A 
HETATM   13  C   UNL     1      39.171 -16.192  -4.098  1.00  0.00     0.003 A 
HETATM   14  C   UNL     1      40.191 -15.975  -3.170  1.00  0.00     0.037 A 
ENDBRANCH   7   8
ENDBRANCH   6   7
ENDBRANCH   1   6
BRANCH   2  15
HETATM   15  C   UNL     1      41.779 -17.484   2.223  1.00  0.00     0.137 C 
BRANCH  15  16
HETATM   16  C   UNL     1      43.252 -17.678   2.610  1.00  0.00     0.059 C 
BRANCH  16  17
HETATM   17  C   UNL     1      43.734 -19.107   2.697  1.00  0.00    -0.057 A 
HETATM   18  C   UNL     1      43.430 -20.048   1.704  1.00  0.00     0.007 A 
HETATM   19  C   UNL     1      43.806 -21.384   1.850  1.00  0.00     0.001 A 
HETATM   20  C   UNL     1      44.480 -21.804   2.996  1.00  0.00     0.000 A 
HETATM   21  C   UNL     1      44.784 -20.884   3.994  1.00  0.00     0.001 A 
HETATM   22  C   UNL     1      44.415 -19.545   3.847  1.00  0.00     0.007 A 
ENDBRANCH  16  17
ENDBRANCH  15  16
ENDBRANCH   2  15
BRANCH   3  23
HETATM   23  S   UNL     1      41.178 -15.624   4.855  1.00  0.00    -0.081 SA
BRANCH  23  24
HETATM   24  C   UNL     1      41.587 -14.015   5.597  1.00  0.00     0.185 C 
BRANCH  24  25
HETATM   25  C   UNL     1      43.089 -13.800   5.677  1.00  0.00     0.226 C 
HETATM   26  N   UNL     1      43.638 -14.029   6.923  1.00  0.00    -0.365 N 
HETATM   27  C   UNL     1      45.057 -13.915   7.139  1.00  0.00     0.149 C 
HETATM   28  H   UNL     1      43.119 -14.657   7.538  1.00  0.00     0.161 HD
HETATM   29  O   UNL     1      43.749 -13.420   4.712  1.00  0.00    -0.273 OA
ENDBRANCH  24  25
ENDBRANCH  23  24
ENDBRANCH   3  23
TORSDOF 9
ENDMDL
MODEL 8
REMARK VINA RESULT:      -7.3      2.647      5.629
REMARK  9 active torsions:
REMARK  status: ('A' for Active; 'I' for Inactive)
REMARK    1  A    between atoms: C_3  and  O_4 
REMARK    2  A    between atoms: O_4  and  C_5 
REMARK    3  A    between atoms: C_5  and  C_6 
REMARK    4  A    between atoms: N_7  and  C_8 
REMARK    5  A    between atoms: C_8  and  C_9 
REMARK    6  A    between atoms: C_9  and  C_10 
REMARK    7  A    between atoms: C_16  and  S_17 
REMARK    8  A    between atoms: S_17  and  C_18 
REMARK    9  A    between atoms: C_18  and  C_19 
REMARK       I    between atoms: C_19  and  N_20 
ROOT
HETATM    1  C   UNL     1      41.842 -16.884   2.066  1.00  0.00     0.155 A 
HETATM    2  N   UNL     1      41.152 -15.721   2.354  1.00  0.00    -0.309 N 
HETATM    3  C   UNL     1      41.122 -15.031   1.166  1.00  0.00     0.192 A 
HETATM    4  N   UNL     1      41.780 -15.695   0.245  1.00  0.00    -0.123 NA
HETATM    5  N   UNL     1      42.223 -16.857   0.802  1.00  0.00    -0.132 NA
ENDROOT
BRANCH   1   6
HETATM    6  C   UNL     1      42.184 -17.980   3.016  1.00  0.00     0.256 C 
BRANCH   6   7
HETATM    7  O   UNL     1      43.566 -18.286   2.853  1.00  0.00    -0.343 OA
BRANCH   7   8
HETATM    8  C   UNL     1      43.871 -19.623   2.887  1.00  0.00     0.075 A 
HETATM    9  C   UNL     1      44.520 -20.091   4.042  1.00  0.00    -0.029 A 
HETATM   10  C   UNL     1      44.814 -19.172   5.195  1.00  0.00     0.051 C 
HETATM   11  C   UNL     1      44.833 -21.454   4.147  1.00  0.00     0.009 A 
HETATM   12  C   UNL     1      44.540 -22.333   3.105  1.00  0.00     0.001 A 
HETATM   13  C   UNL     1      43.931 -21.858   1.947  1.00  0.00     0.003 A 
HETATM   14  C   UNL     1      43.601 -20.507   1.835  1.00  0.00     0.037 A 
ENDBRANCH   7   8
ENDBRANCH   6   7
ENDBRANCH   1   6
BRANCH   2  15
HETATM   15  C   UNL     1      40.591 -15.316   3.635  1.00  0.00     0.137 C 
BRANCH  15  16
HETATM   16  C   UNL     1      41.596 -14.577   4.530  1.00  0.00     0.059 C 
BRANCH  16  17
HETATM   17  C   UNL     1      42.273 -15.407   5.595  1.00  0.00    -0.057 A 
HETATM   18  C   UNL     1      41.614 -16.465   6.234  1.00  0.00     0.007 A 
HETATM   19  C   UNL     1      42.226 -17.160   7.279  1.00  0.00     0.001 A 
HETATM   20  C   UNL     1      43.501 -16.798   7.711  1.00  0.00     0.000 A 
HETATM   21  C   UNL     1      44.168 -15.746   7.092  1.00  0.00     0.001 A 
HETATM   22  C   UNL     1      43.560 -15.055   6.041  1.00  0.00     0.007 A 
ENDBRANCH  16  17
ENDBRANCH  15  16
ENDBRANCH   2  15
BRANCH   3  23
HETATM   23  S   UNL     1      40.345 -13.509   0.911  1.00  0.00    -0.081 SA
BRANCH  23  24
HETATM   24  C   UNL     1      41.603 -12.360   1.546  1.00  0.00     0.185 C 
BRANCH  24  25
HETATM   25  C   UNL     1      40.978 -11.243   2.367  1.00  0.00     0.226 C 
HETATM   26  N   UNL     1      41.496 -11.105   3.639  1.00  0.00    -0.365 N 
HETATM   27  C   UNL     1      41.038 -10.058   4.515  1.00  0.00     0.149 C 
HETATM   28  H   UNL     1      42.443 -11.456   3.783  1.00  0.00     0.161 HD
HETATM   29  O   UNL     1      40.062 -10.546   1.935  1.00  0.00    -0.273 OA
ENDBRANCH  24  25
ENDBRANCH  23  24
ENDBRANCH   3  23
TORSDOF 9
ENDMDL
MODEL 9
REMARK VINA RESULT:      -6.9      2.957      7.138
REMARK  9 active torsions:
REMARK  status: ('A' for Active; 'I' for Inactive)
REMARK    1  A    between atoms: C_3  and  O_4 
REMARK    2  A    between atoms: O_4  and  C_5 
REMARK    3  A    between atoms: C_5  and  C_6 
REMARK    4  A    between atoms: N_7  and  C_8 
REMARK    5  A    between atoms: C_8  and  C_9 
REMARK    6  A    between atoms: C_9  and  C_10 
REMARK    7  A    between atoms: C_16  and  S_17 
REMARK    8  A    between atoms: S_17  and  C_18 
REMARK    9  A    between atoms: C_18  and  C_19 
REMARK       I    between atoms: C_19  and  N_20 
ROOT
HETATM    1  C   UNL     1      42.132 -16.305   3.415  1.00  0.00     0.155 A 
HETATM    2  N   UNL     1      41.365 -15.229   3.007  1.00  0.00    -0.309 N 
HETATM    3  C   UNL     1      41.210 -14.464   4.138  1.00  0.00     0.192 A 
HETATM    4  N   UNL     1      41.790 -15.049   5.159  1.00  0.00    -0.123 NA
HETATM    5  N   UNL     1      42.374 -16.195   4.709  1.00  0.00    -0.132 NA
ENDROOT
BRANCH   1   6
HETATM    6  C   UNL     1      42.570 -17.459   2.581  1.00  0.00     0.256 C 
BRANCH   6   7
HETATM    7  O   UNL     1      43.788 -17.958   3.127  1.00  0.00    -0.343 OA
BRANCH   7   8
HETATM    8  C   UNL     1      43.970 -19.311   2.997  1.00  0.00     0.075 A 
HETATM    9  C   UNL     1      44.581 -19.970   4.077  1.00  0.00    -0.029 A 
HETATM   10  C   UNL     1      44.965 -19.226   5.325  1.00  0.00     0.051 C 
HETATM   11  C   UNL     1      44.769 -21.359   4.014  1.00  0.00     0.009 A 
HETATM   12  C   UNL     1      44.389 -22.077   2.881  1.00  0.00     0.001 A 
HETATM   13  C   UNL     1      43.818 -21.414   1.798  1.00  0.00     0.003 A 
HETATM   14  C   UNL     1      43.613 -20.035   1.852  1.00  0.00     0.037 A 
ENDBRANCH   7   8
ENDBRANCH   6   7
ENDBRANCH   1   6
BRANCH   2  15
HETATM   15  C   UNL     1      40.835 -14.972   1.676  1.00  0.00     0.137 C 
BRANCH  15  16
HETATM   16  C   UNL     1      41.782 -14.142   0.797  1.00  0.00     0.059 C 
BRANCH  16  17
HETATM   17  C   UNL     1      41.569 -14.247  -0.694  1.00  0.00    -0.057 A 
HETATM   18  C   UNL     1      40.967 -15.372  -1.274  1.00  0.00     0.007 A 
HETATM   19  C   UNL     1      40.863 -15.489  -2.661  1.00  0.00     0.001 A 
HETATM   20  C   UNL     1      41.371 -14.491  -3.491  1.00  0.00     0.000 A 
HETATM   21  C   UNL     1      41.977 -13.370  -2.932  1.00  0.00     0.001 A 
HETATM   22  C   UNL     1      42.075 -13.248  -1.544  1.00  0.00     0.007 A 
ENDBRANCH  16  17
ENDBRANCH  15  16
ENDBRANCH   2  15
BRANCH   3  23
HETATM   23  S   UNL     1      40.368 -12.957   4.220  1.00  0.00    -0.081 SA
BRANCH  23  24
HETATM   24  C   UNL     1      41.022 -12.271   5.772  1.00  0.00     0.185 C 
BRANCH  24  25
HETATM   25  C   UNL     1      39.916 -11.688   6.636  1.00  0.00     0.226 C 
HETATM   26  N   UNL     1      40.163 -11.730   7.993  1.00  0.00    -0.365 N 
HETATM   27  C   UNL     1      39.228 -11.169   8.934  1.00  0.00     0.149 C 
HETATM   28  H   UNL     1      41.143 -11.771   8.274  1.00  0.00     0.161 HD
HETATM   29  O   UNL     1      38.873 -11.247   6.156  1.00  0.00    -0.273 OA
ENDBRANCH  24  25
ENDBRANCH  23  24
ENDBRANCH   3  23
TORSDOF 9
ENDMDL
MODEL 10
REMARK VINA RESULT:      -6.8      2.488      5.387
REMARK  9 active torsions:
REMARK  status: ('A' for Active; 'I' for Inactive)
REMARK    1  A    between atoms: C_3  and  O_4 
REMARK    2  A    between atoms: O_4  and  C_5 
REMARK    3  A    between atoms: C_5  and  C_6 
REMARK    4  A    between atoms: N_7  and  C_8 
REMARK    5  A    between atoms: C_8  and  C_9 
REMARK    6  A    between atoms: C_9  and  C_10 
REMARK    7  A    between atoms: C_16  and  S_17 
REMARK    8  A    between atoms: S_17  and  C_18 
REMARK    9  A    between atoms: C_18  and  C_19 
REMARK       I    between atoms: C_19  and  N_20 
ROOT
HETATM    1  C   UNL     1      41.070 -16.005   4.201  1.00  0.00     0.155 A 
HETATM    2  N   UNL     1      41.234 -15.138   3.137  1.00  0.00    -0.309 N 
HETATM    3  C   UNL     1      40.588 -13.988   3.523  1.00  0.00     0.192 A 
HETATM    4  N   UNL     1      40.036 -14.157   4.701  1.00  0.00    -0.123 NA
HETATM    5  N   UNL     1      40.342 -15.414   5.131  1.00  0.00    -0.132 NA
ENDROOT
BRANCH   1   6
HETATM    6  C   UNL     1      41.554 -17.411   4.291  1.00  0.00     0.256 C 
BRANCH   6   7
HETATM    7  O   UNL     1      42.947 -17.416   3.988  1.00  0.00    -0.343 OA
BRANCH   7   8
HETATM    8  C   UNL     1      43.433 -18.610   3.520  1.00  0.00     0.075 A 
HETATM    9  C   UNL     1      44.378 -19.264   4.329  1.00  0.00    -0.029 A 
HETATM   10  C   UNL     1      44.787 -18.699   5.660  1.00  0.00     0.051 C 
HETATM   11  C   UNL     1      44.892 -20.503   3.916  1.00  0.00     0.009 A 
HETATM   12  C   UNL     1      44.503 -21.065   2.700  1.00  0.00     0.001 A 
HETATM   13  C   UNL     1      43.595 -20.394   1.885  1.00  0.00     0.003 A 
HETATM   14  C   UNL     1      43.065 -19.169   2.289  1.00  0.00     0.037 A 
ENDBRANCH   7   8
ENDBRANCH   6   7
ENDBRANCH   1   6
BRANCH   2  15
HETATM   15  C   UNL     1      41.930 -15.392   1.883  1.00  0.00     0.137 C 
BRANCH  15  16
HETATM   16  C   UNL     1      40.989 -15.798   0.740  1.00  0.00     0.059 C 
BRANCH  16  17
HETATM   17  C   UNL     1      41.277 -15.180  -0.608  1.00  0.00    -0.057 A 
HETATM   18  C   UNL     1      41.800 -13.887  -0.729  1.00  0.00     0.007 A 
HETATM   19  C   UNL     1      41.972 -13.301  -1.984  1.00  0.00     0.001 A 
HETATM   20  C   UNL     1      41.611 -13.994  -3.138  1.00  0.00     0.000 A 
HETATM   21  C   UNL     1      41.083 -15.278  -3.037  1.00  0.00     0.001 A 
HETATM   22  C   UNL     1      40.918 -15.868  -1.781  1.00  0.00     0.007 A 
ENDBRANCH  16  17
ENDBRANCH  15  16
ENDBRANCH   2  15
BRANCH   3  23
HETATM   23  S   UNL     1      40.501 -12.530   2.600  1.00  0.00    -0.081 SA
BRANCH  23  24
HETATM   24  C   UNL     1      38.786 -12.596   1.998  1.00  0.00     0.185 C 
BRANCH  24  25
HETATM   25  C   UNL     1      38.721 -12.502   0.482  1.00  0.00     0.226 C 
HETATM   26  N   UNL     1      38.158 -13.599  -0.139  1.00  0.00    -0.365 N 
HETATM   27  C   UNL     1      37.983 -13.632  -1.568  1.00  0.00     0.149 C 
HETATM   28  H   UNL     1      37.520 -14.161   0.425  1.00  0.00     0.161 HD
HETATM   29  O   UNL     1      39.166 -11.536  -0.134  1.00  0.00    -0.273 OA
ENDBRANCH  24  25
ENDBRANCH  23  24
ENDBRANCH   3  23
TORSDOF 9
ENDMDL
