MODEL 1
REMARK VINA RESULT:      -8.2      0.000      0.000
REMARK  7 active torsions:
REMARK  status: ('A' for Active; 'I' for Inactive)
REMARK    1  A    between atoms: C_7  and  C_8 
REMARK    2  A    between atoms: C_8  and  N_9 
REMARK       I    between atoms: N_9  and  C_10 
REMARK       I    between atoms: C_10  and  N_11 
REMARK    3  A    between atoms: N_11  and  C_12 
REMARK    4  A    between atoms: C_12  and  C_13 
REMARK    5  A    between atoms: C_13  and  C_14 
REMARK    6  A    between atoms: C_14  and  O_15 
REMARK    7  A    between atoms: C_14  and  C_16 
ROOT
HETATM    1  N   UNL     1      43.483 -14.166   6.150  1.00  0.00    -0.337 N 
HETATM    2  C   UNL     1      44.251 -14.115   7.289  1.00  0.00     0.316 C 
HETATM    3  N   UNL     1      44.952 -12.944   7.348  1.00  0.00    -0.339 N 
HETATM    4  O   UNL     1      44.286 -15.018   8.117  1.00  0.00    -0.247 OA
HETATM    5  H   UNL     1      43.235 -13.243   5.817  1.00  0.00     0.164 HD
HETATM    6  H   UNL     1      45.224 -12.605   6.433  1.00  0.00     0.164 HD
ENDROOT
BRANCH   1   7
HETATM    7  C   UNL     1      42.479 -15.196   5.963  1.00  0.00     0.183 C 
BRANCH   7   8
HETATM    8  C   UNL     1      42.991 -16.314   5.132  1.00  0.00     0.044 A 
HETATM    9  N   UNL     1      43.482 -17.488   5.683  1.00  0.00    -0.343 N 
HETATM   10  C   UNL     1      43.858 -18.340   4.742  1.00  0.00     0.112 A 
HETATM   11  H   UNL     1      43.597 -17.614   6.696  1.00  0.00     0.167 HD
HETATM   12  N   UNL     1      43.635 -17.753   3.549  1.00  0.00    -0.311 N 
HETATM   13  C   UNL     1      44.428 -19.702   4.849  1.00  0.00     0.049 A 
HETATM   14  C   UNL     1      43.935 -18.380   2.340  1.00  0.00     0.014 A 
HETATM   15  C   UNL     1      43.097 -16.491   3.770  1.00  0.00     0.125 A 
HETATM   16  C   UNL     1      43.695 -17.690   1.031  1.00  0.00     0.068 C 
HETATM   17  C   UNL     1      44.454 -19.625   2.426  1.00  0.00     0.025 A 
HETATM   18  C   UNL     1      44.707 -20.315   3.686  1.00  0.00     0.006 A 
ENDBRANCH   7   8
ENDBRANCH   1   7
BRANCH   3  19
HETATM   19  C   UNL     1      45.937 -12.623   8.382  1.00  0.00     0.085 C 
HETATM   20  C   UNL     1      47.267 -12.133   7.802  1.00  0.00     0.032 C 
BRANCH  19  21
HETATM   21  C   UNL     1      45.393 -11.634   9.429  1.00  0.00     0.063 C 
BRANCH  21  22
HETATM   22  C   UNL     1      44.079 -12.054  10.105  1.00  0.00     0.177 C 
BRANCH  22  23
HETATM   23  O   UNL     1      44.183 -13.389  10.613  1.00  0.00    -0.389 OA
HETATM   24  H   UNL     1      45.016 -13.741  10.249  1.00  0.00     0.210 HD
ENDBRANCH  22  23
BRANCH  22  25
HETATM   25  C   UNL     1      43.680 -11.167  11.234  1.00  0.00     0.081 A 
HETATM   26  O   UNL     1      43.172 -11.790  12.337  1.00  0.00    -0.324 OA
HETATM   27  C   UNL     1      42.859 -10.823  13.237  1.00  0.00     0.142 A 
HETATM   28  C   UNL     1      43.164  -9.581  12.733  1.00  0.00     0.027 A 
HETATM   29  C   UNL     1      43.695  -9.801  11.440  1.00  0.00     0.037 A 
ENDBRANCH  22  25
ENDBRANCH  21  22
ENDBRANCH  19  21
ENDBRANCH   3  19
TORSDOF 7
ENDMDL
MODEL 2
REMARK VINA RESULT:      -7.9      1.715      2.531
REMARK  7 active torsions:
REMARK  status: ('A' for Active; 'I' for Inactive)
REMARK    1  A    between atoms: C_7  and  C_8 
REMARK    2  A    between atoms: C_8  and  N_9 
REMARK       I    between atoms: N_9  and  C_10 
REMARK       I    between atoms: C_10  and  N_11 
REMARK    3  A    between atoms: N_11  and  C_12 
REMARK    4  A    between atoms: C_12  and  C_13 
REMARK    5  A    between atoms: C_13  and  C_14 
REMARK    6  A    between atoms: C_14  and  O_15 
REMARK    7  A    between atoms: C_14  and  C_16 
ROOT
HETATM    1  N   UNL     1      43.314 -13.120   7.054  1.00  0.00    -0.337 N 
HETATM    2  C   UNL     1      44.367 -12.976   7.925  1.00  0.00     0.316 C 
HETATM    3  N   UNL     1      43.932 -12.527   9.140  1.00  0.00    -0.339 N 
HETATM    4  O   UNL     1      45.529 -13.219   7.621  1.00  0.00    -0.247 OA
HETATM    5  H   UNL     1      42.442 -13.294   7.536  1.00  0.00     0.164 HD
HETATM    6  H   UNL     1      43.135 -11.907   9.065  1.00  0.00     0.164 HD
ENDROOT
BRANCH   1   7
HETATM    7  C   UNL     1      43.476 -13.792   5.779  1.00  0.00     0.183 C 
BRANCH   7   8
HETATM    8  C   UNL     1      43.562 -15.265   5.944  1.00  0.00     0.044 A 
HETATM    9  N   UNL     1      43.673 -15.871   7.187  1.00  0.00    -0.343 N 
HETATM   10  C   UNL     1      43.712 -17.189   7.078  1.00  0.00     0.112 A 
HETATM   11  H   UNL     1      43.786 -15.330   8.054  1.00  0.00     0.167 HD
HETATM   12  N   UNL     1      43.637 -17.491   5.766  1.00  0.00    -0.311 N 
HETATM   13  C   UNL     1      43.816 -18.238   8.117  1.00  0.00     0.049 A 
HETATM   14  C   UNL     1      43.664 -18.804   5.298  1.00  0.00     0.014 A 
HETATM   15  C   UNL     1      43.545 -16.307   5.044  1.00  0.00     0.125 A 
HETATM   16  C   UNL     1      43.602 -19.104   3.831  1.00  0.00     0.068 C 
HETATM   17  C   UNL     1      43.757 -19.771   6.238  1.00  0.00     0.025 A 
HETATM   18  C   UNL     1      43.830 -19.506   7.671  1.00  0.00     0.006 A 
ENDBRANCH   7   8
ENDBRANCH   1   7
BRANCH   3  19
HETATM   19  C   UNL     1      44.814 -12.177  10.254  1.00  0.00     0.085 C 
HETATM   20  C   UNL     1      45.648 -10.923   9.979  1.00  0.00     0.032 C 
BRANCH  19  21
HETATM   21  C   UNL     1      44.057 -12.056  11.590  1.00  0.00     0.063 C 
BRANCH  21  22
HETATM   22  C   UNL     1      42.915 -11.029  11.604  1.00  0.00     0.177 C 
BRANCH  22  23
HETATM   23  O   UNL     1      41.685 -11.644  11.205  1.00  0.00    -0.389 OA
HETATM   24  H   UNL     1      41.757 -11.768  10.241  1.00  0.00     0.210 HD
ENDBRANCH  22  23
BRANCH  22  25
HETATM   25  C   UNL     1      42.696 -10.399  12.937  1.00  0.00     0.081 A 
HETATM   26  O   UNL     1      41.596 -10.819  13.627  1.00  0.00    -0.324 OA
HETATM   27  C   UNL     1      41.565 -10.126  14.795  1.00  0.00     0.142 A 
HETATM   28  C   UNL     1      42.635  -9.268  14.872  1.00  0.00     0.027 A 
HETATM   29  C   UNL     1      43.369  -9.443  13.674  1.00  0.00     0.037 A 
ENDBRANCH  22  25
ENDBRANCH  21  22
ENDBRANCH  19  21
ENDBRANCH   3  19
TORSDOF 7
ENDMDL
MODEL 3
REMARK VINA RESULT:      -7.8      2.520      4.092
REMARK  7 active torsions:
REMARK  status: ('A' for Active; 'I' for Inactive)
REMARK    1  A    between atoms: C_7  and  C_8 
REMARK    2  A    between atoms: C_8  and  N_9 
REMARK       I    between atoms: N_9  and  C_10 
REMARK       I    between atoms: C_10  and  N_11 
REMARK    3  A    between atoms: N_11  and  C_12 
REMARK    4  A    between atoms: C_12  and  C_13 
REMARK    5  A    between atoms: C_13  and  C_14 
REMARK    6  A    between atoms: C_14  and  O_15 
REMARK    7  A    between atoms: C_14  and  C_16 
ROOT
HETATM    1  N   UNL     1      44.048 -12.697   8.514  1.00  0.00    -0.337 N 
HETATM    2  C   UNL     1      44.293 -12.454   9.845  1.00  0.00     0.316 C 
HETATM    3  N   UNL     1      43.201 -11.889  10.442  1.00  0.00    -0.339 N 
HETATM    4  O   UNL     1      45.359 -12.714  10.390  1.00  0.00    -0.247 OA
HETATM    5  H   UNL     1      43.063 -12.832   8.326  1.00  0.00     0.164 HD
HETATM    6  H   UNL     1      42.680 -11.289   9.815  1.00  0.00     0.164 HD
ENDROOT
BRANCH   1   7
HETATM    7  C   UNL     1      44.958 -13.493   7.713  1.00  0.00     0.183 C 
BRANCH   7   8
HETATM    8  C   UNL     1      44.270 -14.654   7.095  1.00  0.00     0.044 A 
HETATM    9  N   UNL     1      42.932 -14.621   6.730  1.00  0.00    -0.343 N 
HETATM   10  C   UNL     1      42.555 -15.765   6.182  1.00  0.00     0.112 A 
HETATM   11  H   UNL     1      42.324 -13.821   6.945  1.00  0.00     0.167 HD
HETATM   12  N   UNL     1      43.624 -16.586   6.176  1.00  0.00    -0.311 N 
HETATM   13  C   UNL     1      41.243 -16.186   5.641  1.00  0.00     0.049 A 
HETATM   14  C   UNL     1      43.566 -17.885   5.673  1.00  0.00     0.014 A 
HETATM   15  C   UNL     1      44.701 -15.914   6.741  1.00  0.00     0.125 A 
HETATM   16  C   UNL     1      44.769 -18.780   5.703  1.00  0.00     0.068 C 
HETATM   17  C   UNL     1      42.374 -18.280   5.174  1.00  0.00     0.025 A 
HETATM   18  C   UNL     1      41.186 -17.433   5.144  1.00  0.00     0.006 A 
ENDBRANCH   7   8
ENDBRANCH   1   7
BRANCH   3  19
HETATM   19  C   UNL     1      43.171 -11.418  11.827  1.00  0.00     0.085 C 
HETATM   20  C   UNL     1      43.939 -10.109  12.025  1.00  0.00     0.032 C 
BRANCH  19  21
HETATM   21  C   UNL     1      41.738 -11.307  12.381  1.00  0.00     0.063 C 
BRANCH  21  22
HETATM   22  C   UNL     1      40.686 -10.807  11.380  1.00  0.00     0.177 C 
BRANCH  22  23
HETATM   23  O   UNL     1      39.895 -11.899  10.899  1.00  0.00    -0.389 OA
HETATM   24  H   UNL     1      39.555 -11.612  10.033  1.00  0.00     0.210 HD
ENDBRANCH  22  23
BRANCH  22  25
HETATM   25  C   UNL     1      39.758  -9.789  11.950  1.00  0.00     0.081 A 
HETATM   26  O   UNL     1      40.258  -9.019  12.961  1.00  0.00    -0.324 OA
HETATM   27  C   UNL     1      39.268  -8.175  13.351  1.00  0.00     0.142 A 
HETATM   28  C   UNL     1      38.136  -8.385  12.600  1.00  0.00     0.027 A 
HETATM   29  C   UNL     1      38.450  -9.426  11.694  1.00  0.00     0.037 A 
ENDBRANCH  22  25
ENDBRANCH  21  22
ENDBRANCH  19  21
ENDBRANCH   3  19
TORSDOF 7
ENDMDL
MODEL 4
REMARK VINA RESULT:      -7.8      4.945      7.258
REMARK  7 active torsions:
REMARK  status: ('A' for Active; 'I' for Inactive)
REMARK    1  A    between atoms: C_7  and  C_8 
REMARK    2  A    between atoms: C_8  and  N_9 
REMARK       I    between atoms: N_9  and  C_10 
REMARK       I    between atoms: C_10  and  N_11 
REMARK    3  A    between atoms: N_11  and  C_12 
REMARK    4  A    between atoms: C_12  and  C_13 
REMARK    5  A    between atoms: C_13  and  C_14 
REMARK    6  A    between atoms: C_14  and  O_15 
REMARK    7  A    between atoms: C_14  and  C_16 
ROOT
HETATM    1  N   UNL     1      42.540 -16.226   7.043  1.00  0.00    -0.337 N 
HETATM    2  C   UNL     1      41.302 -16.101   6.459  1.00  0.00     0.316 C 
HETATM    3  N   UNL     1      41.145 -14.855   5.921  1.00  0.00    -0.339 N 
HETATM    4  O   UNL     1      40.472 -17.003   6.445  1.00  0.00    -0.247 OA
HETATM    5  H   UNL     1      43.223 -15.609   6.624  1.00  0.00     0.164 HD
HETATM    6  H   UNL     1      41.626 -14.138   6.449  1.00  0.00     0.164 HD
ENDROOT
BRANCH   1   7
HETATM    7  C   UNL     1      43.040 -17.514   7.484  1.00  0.00     0.183 C 
BRANCH   7   8
HETATM    8  C   UNL     1      43.387 -18.388   6.336  1.00  0.00     0.044 A 
HETATM    9  N   UNL     1      43.140 -18.025   5.021  1.00  0.00    -0.343 N 
HETATM   10  C   UNL     1      43.556 -18.957   4.178  1.00  0.00     0.112 A 
HETATM   11  H   UNL     1      42.627 -17.169   4.774  1.00  0.00     0.167 HD
HETATM   12  N   UNL     1      44.080 -19.962   4.909  1.00  0.00    -0.311 N 
HETATM   13  C   UNL     1      43.512 -19.006   2.700  1.00  0.00     0.049 A 
HETATM   14  C   UNL     1      44.604 -21.115   4.327  1.00  0.00     0.014 A 
HETATM   15  C   UNL     1      43.984 -19.627   6.254  1.00  0.00     0.125 A 
HETATM   16  C   UNL     1      45.158 -22.224   5.170  1.00  0.00     0.068 C 
HETATM   17  C   UNL     1      44.571 -21.171   2.977  1.00  0.00     0.025 A 
HETATM   18  C   UNL     1      44.027 -20.111   2.134  1.00  0.00     0.006 A 
ENDBRANCH   7   8
ENDBRANCH   1   7
BRANCH   3  19
HETATM   19  C   UNL     1      39.905 -14.370   5.314  1.00  0.00     0.085 C 
HETATM   20  C   UNL     1      39.526 -12.962   5.783  1.00  0.00     0.032 C 
BRANCH  19  21
HETATM   21  C   UNL     1      39.928 -14.453   3.777  1.00  0.00     0.063 C 
BRANCH  21  22
HETATM   22  C   UNL     1      40.912 -15.477   3.192  1.00  0.00     0.177 C 
BRANCH  22  23
HETATM   23  O   UNL     1      40.501 -16.809   3.520  1.00  0.00    -0.389 OA
HETATM   24  H   UNL     1      41.178 -17.393   3.134  1.00  0.00     0.210 HD
ENDBRANCH  22  23
BRANCH  22  25
HETATM   25  C   UNL     1      41.046 -15.395   1.709  1.00  0.00     0.081 A 
HETATM   26  O   UNL     1      40.916 -14.151   1.162  1.00  0.00    -0.324 OA
HETATM   27  C   UNL     1      41.053 -14.287  -0.182  1.00  0.00     0.142 A 
HETATM   28  C   UNL     1      41.276 -15.602  -0.511  1.00  0.00     0.027 A 
HETATM   29  C   UNL     1      41.273 -16.320   0.709  1.00  0.00     0.037 A 
ENDBRANCH  22  25
ENDBRANCH  21  22
ENDBRANCH  19  21
ENDBRANCH   3  19
TORSDOF 7
ENDMDL
MODEL 5
REMARK VINA RESULT:      -7.7      4.316      6.296
REMARK  7 active torsions:
REMARK  status: ('A' for Active; 'I' for Inactive)
REMARK    1  A    between atoms: C_7  and  C_8 
REMARK    2  A    between atoms: C_8  and  N_9 
REMARK       I    between atoms: N_9  and  C_10 
REMARK       I    between atoms: C_10  and  N_11 
REMARK    3  A    between atoms: N_11  and  C_12 
REMARK    4  A    between atoms: C_12  and  C_13 
REMARK    5  A    between atoms: C_13  and  C_14 
REMARK    6  A    between atoms: C_14  and  O_15 
REMARK    7  A    between atoms: C_14  and  C_16 
ROOT
HETATM    1  N   UNL     1      42.897 -16.014   7.039  1.00  0.00    -0.337 N 
HETATM    2  C   UNL     1      41.875 -15.383   6.369  1.00  0.00     0.316 C 
HETATM    3  N   UNL     1      42.261 -14.138   5.961  1.00  0.00    -0.339 N 
HETATM    4  O   UNL     1      40.776 -15.893   6.186  1.00  0.00    -0.247 OA
HETATM    5  H   UNL     1      43.806 -15.679   6.749  1.00  0.00     0.164 HD
HETATM    6  H   UNL     1      42.909 -13.699   6.604  1.00  0.00     0.164 HD
ENDROOT
BRANCH   1   7
HETATM    7  C   UNL     1      42.821 -17.422   7.375  1.00  0.00     0.183 C 
BRANCH   7   8
HETATM    8  C   UNL     1      43.229 -18.280   6.234  1.00  0.00     0.044 A 
HETATM    9  N   UNL     1      43.036 -17.905   4.913  1.00  0.00    -0.343 N 
HETATM   10  C   UNL     1      43.499 -18.824   4.080  1.00  0.00     0.112 A 
HETATM   11  H   UNL     1      42.524 -17.052   4.653  1.00  0.00     0.167 HD
HETATM   12  N   UNL     1      44.001 -19.830   4.823  1.00  0.00    -0.311 N 
HETATM   13  C   UNL     1      43.521 -18.857   2.600  1.00  0.00     0.049 A 
HETATM   14  C   UNL     1      44.563 -20.972   4.252  1.00  0.00     0.014 A 
HETATM   15  C   UNL     1      43.842 -19.512   6.166  1.00  0.00     0.125 A 
HETATM   16  C   UNL     1      45.092 -22.083   5.107  1.00  0.00     0.068 C 
HETATM   17  C   UNL     1      44.590 -21.013   2.901  1.00  0.00     0.025 A 
HETATM   18  C   UNL     1      44.072 -19.950   2.046  1.00  0.00     0.006 A 
ENDBRANCH   7   8
ENDBRANCH   1   7
BRANCH   3  19
HETATM   19  C   UNL     1      41.375 -13.172   5.310  1.00  0.00     0.085 C 
HETATM   20  C   UNL     1      40.745 -12.185   6.297  1.00  0.00     0.032 C 
BRANCH  19  21
HETATM   21  C   UNL     1      42.063 -12.429   4.149  1.00  0.00     0.063 C 
BRANCH  21  22
HETATM   22  C   UNL     1      42.469 -13.310   2.958  1.00  0.00     0.177 C 
BRANCH  22  23
HETATM   23  O   UNL     1      43.714 -13.966   3.224  1.00  0.00    -0.389 OA
HETATM   24  H   UNL     1      44.395 -13.273   3.144  1.00  0.00     0.210 HD
ENDBRANCH  22  23
BRANCH  22  25
HETATM   25  C   UNL     1      41.465 -14.360   2.624  1.00  0.00     0.081 A 
HETATM   26  O   UNL     1      41.803 -15.641   2.951  1.00  0.00    -0.324 OA
HETATM   27  C   UNL     1      40.778 -16.440   2.558  1.00  0.00     0.142 A 
HETATM   28  C   UNL     1      39.778 -15.691   1.985  1.00  0.00     0.027 A 
HETATM   29  C   UNL     1      40.218 -14.347   2.028  1.00  0.00     0.037 A 
ENDBRANCH  22  25
ENDBRANCH  21  22
ENDBRANCH  19  21
ENDBRANCH   3  19
TORSDOF 7
ENDMDL
MODEL 6
REMARK VINA RESULT:      -7.6      4.894      7.131
REMARK  7 active torsions:
REMARK  status: ('A' for Active; 'I' for Inactive)
REMARK    1  A    between atoms: C_7  and  C_8 
REMARK    2  A    between atoms: C_8  and  N_9 
REMARK       I    between atoms: N_9  and  C_10 
REMARK       I    between atoms: C_10  and  N_11 
REMARK    3  A    between atoms: N_11  and  C_12 
REMARK    4  A    between atoms: C_12  and  C_13 
REMARK    5  A    between atoms: C_13  and  C_14 
REMARK    6  A    between atoms: C_14  and  O_15 
REMARK    7  A    between atoms: C_14  and  C_16 
ROOT
HETATM    1  N   UNL     1      42.625 -16.256   7.153  1.00  0.00    -0.337 N 
HETATM    2  C   UNL     1      41.383 -16.126   6.577  1.00  0.00     0.316 C 
HETATM    3  N   UNL     1      41.262 -14.914   5.958  1.00  0.00    -0.339 N 
HETATM    4  O   UNL     1      40.521 -16.995   6.634  1.00  0.00    -0.247 OA
HETATM    5  H   UNL     1      43.323 -15.693   6.685  1.00  0.00     0.164 HD
HETATM    6  H   UNL     1      41.777 -14.181   6.431  1.00  0.00     0.164 HD
ENDROOT
BRANCH   1   7
HETATM    7  C   UNL     1      43.084 -17.529   7.674  1.00  0.00     0.183 C 
BRANCH   7   8
HETATM    8  C   UNL     1      43.487 -18.452   6.584  1.00  0.00     0.044 A 
HETATM    9  N   UNL     1      43.898 -19.755   6.825  1.00  0.00    -0.343 N 
HETATM   10  C   UNL     1      44.185 -20.385   5.696  1.00  0.00     0.112 A 
HETATM   11  H   UNL     1      44.026 -20.125   7.775  1.00  0.00     0.167 HD
HETATM   12  N   UNL     1      43.981 -19.519   4.684  1.00  0.00    -0.311 N 
HETATM   13  C   UNL     1      44.649 -21.770   5.459  1.00  0.00     0.049 A 
HETATM   14  C   UNL     1      44.203 -19.862   3.351  1.00  0.00     0.014 A 
HETATM   15  C   UNL     1      43.548 -18.310   5.215  1.00  0.00     0.125 A 
HETATM   16  C   UNL     1      43.989 -18.867   2.250  1.00  0.00     0.068 C 
HETATM   17  C   UNL     1      44.625 -21.126   3.121  1.00  0.00     0.025 A 
HETATM   18  C   UNL     1      44.852 -22.109   4.175  1.00  0.00     0.006 A 
ENDBRANCH   7   8
ENDBRANCH   1   7
BRANCH   3  19
HETATM   19  C   UNL     1      40.032 -14.425   5.335  1.00  0.00     0.085 C 
HETATM   20  C   UNL     1      39.570 -13.082   5.908  1.00  0.00     0.032 C 
BRANCH  19  21
HETATM   21  C   UNL     1      40.130 -14.366   3.800  1.00  0.00     0.063 C 
BRANCH  21  22
HETATM   22  C   UNL     1      40.979 -15.473   3.156  1.00  0.00     0.177 C 
BRANCH  22  23
HETATM   23  O   UNL     1      40.435 -16.762   3.463  1.00  0.00    -0.389 OA
HETATM   24  H   UNL     1      39.814 -16.614   4.199  1.00  0.00     0.210 HD
ENDBRANCH  22  23
BRANCH  22  25
HETATM   25  C   UNL     1      41.077 -15.362   1.673  1.00  0.00     0.081 A 
HETATM   26  O   UNL     1      41.339 -16.520   0.999  1.00  0.00    -0.324 OA
HETATM   27  C   UNL     1      41.404 -16.211  -0.321  1.00  0.00     0.142 A 
HETATM   28  C   UNL     1      41.181 -14.868  -0.512  1.00  0.00     0.027 A 
HETATM   29  C   UNL     1      40.968 -14.317   0.775  1.00  0.00     0.037 A 
ENDBRANCH  22  25
ENDBRANCH  21  22
ENDBRANCH  19  21
ENDBRANCH   3  19
TORSDOF 7
ENDMDL
MODEL 7
REMARK VINA RESULT:      -7.5      3.087      3.985
REMARK  7 active torsions:
REMARK  status: ('A' for Active; 'I' for Inactive)
REMARK    1  A    between atoms: C_7  and  C_8 
REMARK    2  A    between atoms: C_8  and  N_9 
REMARK       I    between atoms: N_9  and  C_10 
REMARK       I    between atoms: C_10  and  N_11 
REMARK    3  A    between atoms: N_11  and  C_12 
REMARK    4  A    between atoms: C_12  and  C_13 
REMARK    5  A    between atoms: C_13  and  C_14 
REMARK    6  A    between atoms: C_14  and  O_15 
REMARK    7  A    between atoms: C_14  and  C_16 
ROOT
HETATM    1  N   UNL     1      39.724 -12.941   7.026  1.00  0.00    -0.337 N 
HETATM    2  C   UNL     1      39.632 -11.602   7.325  1.00  0.00     0.316 C 
HETATM    3  N   UNL     1      40.128 -11.351   8.573  1.00  0.00    -0.339 N 
HETATM    4  O   UNL     1      39.157 -10.773   6.557  1.00  0.00    -0.247 OA
HETATM    5  H   UNL     1      40.477 -13.393   7.528  1.00  0.00     0.164 HD
HETATM    6  H   UNL     1      39.970 -12.115   9.218  1.00  0.00     0.164 HD
ENDROOT
BRANCH   1   7
HETATM    7  C   UNL     1      39.476 -13.432   5.684  1.00  0.00     0.183 C 
BRANCH   7   8
HETATM    8  C   UNL     1      40.282 -14.642   5.386  1.00  0.00     0.044 A 
HETATM    9  N   UNL     1      40.954 -15.351   6.371  1.00  0.00    -0.343 N 
HETATM   10  C   UNL     1      41.584 -16.399   5.863  1.00  0.00     0.112 A 
HETATM   11  H   UNL     1      40.999 -15.030   7.346  1.00  0.00     0.167 HD
HETATM   12  N   UNL     1      41.355 -16.407   4.535  1.00  0.00    -0.311 N 
HETATM   13  C   UNL     1      42.412 -17.435   6.520  1.00  0.00     0.049 A 
HETATM   14  C   UNL     1      41.888 -17.380   3.690  1.00  0.00     0.014 A 
HETATM   15  C   UNL     1      40.548 -15.321   4.218  1.00  0.00     0.125 A 
HETATM   16  C   UNL     1      41.632 -17.347   2.214  1.00  0.00     0.068 C 
HETATM   17  C   UNL     1      42.644 -18.334   4.280  1.00  0.00     0.025 A 
HETATM   18  C   UNL     1      42.918 -18.382   5.712  1.00  0.00     0.006 A 
ENDBRANCH   7   8
ENDBRANCH   1   7
BRANCH   3  19
HETATM   19  C   UNL     1      40.086 -10.043   9.229  1.00  0.00     0.085 C 
HETATM   20  C   UNL     1      38.797  -9.821  10.026  1.00  0.00     0.032 C 
BRANCH  19  21
HETATM   21  C   UNL     1      41.327  -9.780  10.101  1.00  0.00     0.063 C 
BRANCH  21  22
HETATM   22  C   UNL     1      41.652 -10.877  11.126  1.00  0.00     0.177 C 
BRANCH  22  23
HETATM   23  O   UNL     1      42.639 -11.773  10.603  1.00  0.00    -0.389 OA
HETATM   24  H   UNL     1      43.493 -11.319  10.725  1.00  0.00     0.210 HD
ENDBRANCH  22  23
BRANCH  22  25
HETATM   25  C   UNL     1      42.159 -10.349  12.424  1.00  0.00     0.081 A 
HETATM   26  O   UNL     1      41.455 -10.709  13.536  1.00  0.00    -0.324 OA
HETATM   27  C   UNL     1      42.059 -10.123  14.602  1.00  0.00     0.142 A 
HETATM   28  C   UNL     1      43.149  -9.392  14.194  1.00  0.00     0.027 A 
HETATM   29  C   UNL     1      43.217  -9.537  12.788  1.00  0.00     0.037 A 
ENDBRANCH  22  25
ENDBRANCH  21  22
ENDBRANCH  19  21
ENDBRANCH   3  19
TORSDOF 7
ENDMDL
MODEL 8
REMARK VINA RESULT:      -7.4      2.569      9.873
REMARK  7 active torsions:
REMARK  status: ('A' for Active; 'I' for Inactive)
REMARK    1  A    between atoms: C_7  and  C_8 
REMARK    2  A    between atoms: C_8  and  N_9 
REMARK       I    between atoms: N_9  and  C_10 
REMARK       I    between atoms: C_10  and  N_11 
REMARK    3  A    between atoms: N_11  and  C_12 
REMARK    4  A    between atoms: C_12  and  C_13 
REMARK    5  A    between atoms: C_13  and  C_14 
REMARK    6  A    between atoms: C_14  and  O_15 
REMARK    7  A    between atoms: C_14  and  C_16 
ROOT
HETATM    1  N   UNL     1      44.334 -13.299   8.615  1.00  0.00    -0.337 N 
HETATM    2  C   UNL     1      44.641 -14.042   7.500  1.00  0.00     0.316 C 
HETATM    3  N   UNL     1      43.786 -15.100   7.375  1.00  0.00    -0.339 N 
HETATM    4  O   UNL     1      45.567 -13.769   6.745  1.00  0.00    -0.247 OA
HETATM    5  H   UNL     1      43.358 -13.379   8.870  1.00  0.00     0.164 HD
HETATM    6  H   UNL     1      43.486 -15.468   8.269  1.00  0.00     0.164 HD
ENDROOT
BRANCH   1   7
HETATM    7  C   UNL     1      44.943 -12.004   8.849  1.00  0.00     0.183 C 
BRANCH   7   8
HETATM    8  C   UNL     1      44.130 -11.175   9.774  1.00  0.00     0.044 A 
HETATM    9  N   UNL     1      44.528 -10.902  11.074  1.00  0.00    -0.343 N 
HETATM   10  C   UNL     1      43.649 -10.129  11.693  1.00  0.00     0.112 A 
HETATM   11  H   UNL     1      45.364 -11.327  11.495  1.00  0.00     0.167 HD
HETATM   12  N   UNL     1      42.648  -9.876  10.827  1.00  0.00    -0.311 N 
HETATM   13  C   UNL     1      43.652  -9.579  13.068  1.00  0.00     0.049 A 
HETATM   14  C   UNL     1      41.545  -9.094  11.167  1.00  0.00     0.014 A 
HETATM   15  C   UNL     1      42.927 -10.520   9.627  1.00  0.00     0.125 A 
HETATM   16  C   UNL     1      40.437  -8.852  10.187  1.00  0.00     0.068 C 
HETATM   17  C   UNL     1      41.537  -8.585  12.419  1.00  0.00     0.025 A 
HETATM   18  C   UNL     1      42.597  -8.814  13.396  1.00  0.00     0.006 A 
ENDBRANCH   7   8
ENDBRANCH   1   7
BRANCH   3  19
HETATM   19  C   UNL     1      43.905 -16.139   6.350  1.00  0.00     0.085 C 
HETATM   20  C   UNL     1      44.225 -17.517   6.937  1.00  0.00     0.032 C 
BRANCH  19  21
HETATM   21  C   UNL     1      42.672 -16.203   5.429  1.00  0.00     0.063 C 
BRANCH  21  22
HETATM   22  C   UNL     1      42.155 -17.617   5.126  1.00  0.00     0.177 C 
BRANCH  22  23
HETATM   23  O   UNL     1      40.725 -17.619   5.048  1.00  0.00    -0.389 OA
HETATM   24  H   UNL     1      40.477 -18.537   4.835  1.00  0.00     0.210 HD
ENDBRANCH  22  23
BRANCH  22  25
HETATM   25  C   UNL     1      42.681 -18.184   3.852  1.00  0.00     0.081 A 
HETATM   26  O   UNL     1      43.501 -19.269   3.970  1.00  0.00    -0.324 OA
HETATM   27  C   UNL     1      43.882 -19.623   2.716  1.00  0.00     0.142 A 
HETATM   28  C   UNL     1      43.314 -18.784   1.787  1.00  0.00     0.027 A 
HETATM   29  C   UNL     1      42.537 -17.855   2.518  1.00  0.00     0.037 A 
ENDBRANCH  22  25
ENDBRANCH  21  22
ENDBRANCH  19  21
ENDBRANCH   3  19
TORSDOF 7
ENDMDL
MODEL 9
REMARK VINA RESULT:      -7.4      3.614      4.463
REMARK  7 active torsions:
REMARK  status: ('A' for Active; 'I' for Inactive)
REMARK    1  A    between atoms: C_7  and  C_8 
REMARK    2  A    between atoms: C_8  and  N_9 
REMARK       I    between atoms: N_9  and  C_10 
REMARK       I    between atoms: C_10  and  N_11 
REMARK    3  A    between atoms: N_11  and  C_12 
REMARK    4  A    between atoms: C_12  and  C_13 
REMARK    5  A    between atoms: C_13  and  C_14 
REMARK    6  A    between atoms: C_14  and  O_15 
REMARK    7  A    between atoms: C_14  and  C_16 
ROOT
HETATM    1  N   UNL     1      42.949 -16.048   5.259  1.00  0.00    -0.337 N 
HETATM    2  C   UNL     1      43.095 -14.685   5.371  1.00  0.00     0.316 C 
HETATM    3  N   UNL     1      41.957 -14.043   4.970  1.00  0.00    -0.339 N 
HETATM    4  O   UNL     1      44.122 -14.150   5.772  1.00  0.00    -0.247 OA
HETATM    5  H   UNL     1      41.981 -16.335   5.333  1.00  0.00     0.164 HD
HETATM    6  H   UNL     1      41.477 -14.529   4.224  1.00  0.00     0.164 HD
ENDROOT
BRANCH   1   7
HETATM    7  C   UNL     1      43.922 -16.959   5.830  1.00  0.00     0.183 C 
BRANCH   7   8
HETATM    8  C   UNL     1      44.016 -18.218   5.050  1.00  0.00     0.044 A 
HETATM    9  N   UNL     1      43.607 -18.309   3.727  1.00  0.00    -0.343 N 
HETATM   10  C   UNL     1      43.808 -19.524   3.244  1.00  0.00     0.112 A 
HETATM   11  H   UNL     1      43.139 -17.533   3.242  1.00  0.00     0.167 HD
HETATM   12  N   UNL     1      44.346 -20.271   4.230  1.00  0.00    -0.311 N 
HETATM   13  C   UNL     1      43.539 -20.081   1.899  1.00  0.00     0.049 A 
HETATM   14  C   UNL     1      44.673 -21.615   4.056  1.00  0.00     0.014 A 
HETATM   15  C   UNL     1      44.482 -19.477   5.362  1.00  0.00     0.125 A 
HETATM   16  C   UNL     1      45.248 -22.422   5.180  1.00  0.00     0.068 C 
HETATM   17  C   UNL     1      44.433 -22.134   2.831  1.00  0.00     0.025 A 
HETATM   18  C   UNL     1      43.864 -21.374   1.724  1.00  0.00     0.006 A 
ENDBRANCH   7   8
ENDBRANCH   1   7
BRANCH   3  19
HETATM   19  C   UNL     1      41.822 -12.589   4.873  1.00  0.00     0.085 C 
HETATM   20  C   UNL     1      40.876 -12.155   3.750  1.00  0.00     0.032 C 
BRANCH  19  21
HETATM   21  C   UNL     1      41.423 -11.943   6.213  1.00  0.00     0.063 C 
BRANCH  21  22
HETATM   22  C   UNL     1      39.937 -12.064   6.581  1.00  0.00     0.177 C 
BRANCH  22  23
HETATM   23  O   UNL     1      39.637 -13.395   7.015  1.00  0.00    -0.389 OA
HETATM   24  H   UNL     1      39.138 -13.292   7.845  1.00  0.00     0.210 HD
ENDBRANCH  22  23
BRANCH  22  25
HETATM   25  C   UNL     1      39.512 -11.127   7.659  1.00  0.00     0.081 A 
HETATM   26  O   UNL     1      39.063  -9.905   7.251  1.00  0.00    -0.324 OA
HETATM   27  C   UNL     1      38.742  -9.201   8.368  1.00  0.00     0.142 A 
HETATM   28  C   UNL     1      38.972  -9.956   9.493  1.00  0.00     0.027 A 
HETATM   29  C   UNL     1      39.468 -11.201   9.039  1.00  0.00     0.037 A 
ENDBRANCH  22  25
ENDBRANCH  21  22
ENDBRANCH  19  21
ENDBRANCH   3  19
TORSDOF 7
ENDMDL
MODEL 10
REMARK VINA RESULT:      -7.4      6.411      9.966
REMARK  7 active torsions:
REMARK  status: ('A' for Active; 'I' for Inactive)
REMARK    1  A    between atoms: C_7  and  C_8 
REMARK    2  A    between atoms: C_8  and  N_9 
REMARK       I    between atoms: N_9  and  C_10 
REMARK       I    between atoms: C_10  and  N_11 
REMARK    3  A    between atoms: N_11  and  C_12 
REMARK    4  A    between atoms: C_12  and  C_13 
REMARK    5  A    between atoms: C_13  and  C_14 
REMARK    6  A    between atoms: C_14  and  O_15 
REMARK    7  A    between atoms: C_14  and  C_16 
ROOT
HETATM    1  N   UNL     1      41.272 -14.518   3.055  1.00  0.00    -0.337 N 
HETATM    2  C   UNL     1      40.774 -14.524   1.773  1.00  0.00     0.316 C 
HETATM    3  N   UNL     1      41.435 -13.617   0.994  1.00  0.00    -0.339 N 
HETATM    4  O   UNL     1      39.857 -15.252   1.412  1.00  0.00    -0.247 OA
HETATM    5  H   UNL     1      42.236 -14.214   3.088  1.00  0.00     0.164 HD
HETATM    6  H   UNL     1      41.730 -12.799   1.512  1.00  0.00     0.164 HD
ENDROOT
BRANCH   1   7
HETATM    7  C   UNL     1      40.899 -15.541   4.013  1.00  0.00     0.183 C 
BRANCH   7   8
HETATM    8  C   UNL     1      41.782 -16.730   3.916  1.00  0.00     0.044 A 
HETATM    9  N   UNL     1      41.859 -17.510   2.772  1.00  0.00    -0.343 N 
HETATM   10  C   UNL     1      42.727 -18.498   2.921  1.00  0.00     0.112 A 
HETATM   11  H   UNL     1      41.246 -17.358   1.961  1.00  0.00     0.167 HD
HETATM   12  N   UNL     1      43.242 -18.403   4.164  1.00  0.00    -0.311 N 
HETATM   13  C   UNL     1      43.143 -19.564   1.982  1.00  0.00     0.049 A 
HETATM   14  C   UNL     1      44.186 -19.305   4.653  1.00  0.00     0.014 A 
HETATM   15  C   UNL     1      42.665 -17.310   4.800  1.00  0.00     0.125 A 
HETATM   16  C   UNL     1      44.721 -19.184   6.048  1.00  0.00     0.068 C 
HETATM   17  C   UNL     1      44.576 -20.282   3.802  1.00  0.00     0.025 A 
HETATM   18  C   UNL     1      44.063 -20.427   2.444  1.00  0.00     0.006 A 
ENDBRANCH   7   8
ENDBRANCH   1   7
BRANCH   3  19
HETATM   19  C   UNL     1      41.081 -13.307  -0.392  1.00  0.00     0.085 C 
HETATM   20  C   UNL     1      41.647 -11.965  -0.863  1.00  0.00     0.032 C 
BRANCH  19  21
HETATM   21  C   UNL     1      41.459 -14.440  -1.364  1.00  0.00     0.063 C 
BRANCH  21  22
HETATM   22  C   UNL     1      41.190 -14.145  -2.848  1.00  0.00     0.177 C 
BRANCH  22  23
HETATM   23  O   UNL     1      42.227 -14.703  -3.663  1.00  0.00    -0.389 OA
HETATM   24  H   UNL     1      42.047 -14.384  -4.566  1.00  0.00     0.210 HD
ENDBRANCH  22  23
BRANCH  22  25
HETATM   25  C   UNL     1      39.889 -14.684  -3.335  1.00  0.00     0.081 A 
HETATM   26  O   UNL     1      39.956 -15.802  -4.115  1.00  0.00    -0.324 OA
HETATM   27  C   UNL     1      38.684 -16.125  -4.466  1.00  0.00     0.142 A 
HETATM   28  C   UNL     1      37.794 -15.232  -3.918  1.00  0.00     0.027 A 
HETATM   29  C   UNL     1      38.569 -14.302  -3.185  1.00  0.00     0.037 A 
ENDBRANCH  22  25
ENDBRANCH  21  22
ENDBRANCH  19  21
ENDBRANCH   3  19
TORSDOF 7
ENDMDL
