MODEL 1
REMARK VINA RESULT:      -8.4      0.000      0.000
REMARK  6 active torsions:
REMARK  status: ('A' for Active; 'I' for Inactive)
REMARK    1  A    between atoms: C_2  and  C_3 
REMARK       I    between atoms: C_3  and  N_4 
REMARK    2  A    between atoms: N_4  and  C_5 
REMARK    3  A    between atoms: N_6  and  C_7 
REMARK    4  A    between atoms: C_7  and  C_8 
REMARK    5  A    between atoms: C_11  and  O_12 
REMARK    6  A    between atoms: C_20  and  C_21 
ROOT
HETATM    1  C   UNL     1      42.202 -15.043   5.756  1.00  0.00     0.125 A 
HETATM    2  N   UNL     1      41.648 -15.365   4.528  1.00  0.00    -0.332 N 
HETATM    3  C   UNL     1      41.430 -14.186   3.810  1.00  0.00     0.017 A 
HETATM    4  C   UNL     1      40.778 -14.140   2.463  1.00  0.00     0.069 C 
HETATM    5  C   UNL     1      41.900 -13.117   4.562  1.00  0.00    -0.022 A 
HETATM    6  C   UNL     1      41.859 -11.685   4.155  1.00  0.00     0.051 C 
HETATM    7  C   UNL     1      42.382 -13.665   5.783  1.00  0.00     0.062 A 
ENDROOT
BRANCH   7   8
HETATM    8  C   UNL     1      43.013 -12.961   6.953  1.00  0.00     0.143 A 
HETATM    9  N   UNL     1      44.233 -13.225   7.391  1.00  0.00    -0.228 NA
HETATM   10  C   UNL     1      44.465 -12.335   8.410  1.00  0.00     0.086 A 
HETATM   11  C   UNL     1      43.357 -11.523   8.619  1.00  0.00     0.062 A 
HETATM   12  C   UNL     1      45.608 -12.154   9.201  1.00  0.00     0.034 A 
HETATM   13  N   UNL     1      42.445 -11.955   7.691  1.00  0.00    -0.338 N 
HETATM   14  C   UNL     1      43.314 -10.518   9.587  1.00  0.00     0.032 A 
HETATM   15  H   UNL     1      41.530 -11.564   7.547  1.00  0.00     0.167 HD
HETATM   16  C   UNL     1      44.465 -10.348  10.366  1.00  0.00     0.002 A 
HETATM   17  C   UNL     1      45.594 -11.150  10.178  1.00  0.00     0.002 A 
ENDBRANCH   7   8
BRANCH   1  18
HETATM   18  N   UNL     1      42.491 -15.867   6.840  1.00  0.00    -0.312 N 
HETATM   19  C   UNL     1      43.669 -16.511   7.136  1.00  0.00     0.222 C 
HETATM   20  O   UNL     1      44.724 -16.432   6.517  1.00  0.00    -0.273 OA
HETATM   21  H   UNL     1      41.844 -15.725   7.620  1.00  0.00     0.170 HD
BRANCH  19  22
HETATM   22  C   UNL     1      43.561 -17.434   8.341  1.00  0.00     0.099 C 
HETATM   23  C   UNL     1      43.960 -18.873   8.068  1.00  0.00     0.014 C 
ENDBRANCH  19  22
ENDBRANCH   1  18
BRANCH   2  24
HETATM   24  C   UNL     1      41.153 -16.673   4.086  1.00  0.00     0.169 C 
BRANCH  24  25
HETATM   25  C   UNL     1      42.213 -17.635   3.578  1.00  0.00    -0.040 A 
HETATM   26  C   UNL     1      42.783 -18.534   4.494  1.00  0.00     0.011 A 
HETATM   27  C   UNL     1      43.726 -19.481   4.081  1.00  0.00     0.037 A 
HETATM   28  C   UNL     1      44.111 -19.564   2.744  1.00  0.00     0.068 A 
HETATM   29  C   UNL     1      43.569 -18.668   1.827  1.00  0.00     0.037 A 
HETATM   30  C   UNL     1      42.634 -17.711   2.241  1.00  0.00     0.011 A 
BRANCH  28  31
HETATM   31  O   UNL     1      45.021 -20.548   2.465  1.00  0.00    -0.356 OA
HETATM   32  C   UNL     1      44.495 -21.840   2.189  1.00  0.00     0.210 C 
ENDBRANCH  28  31
ENDBRANCH  24  25
ENDBRANCH   2  24
TORSDOF 6
ENDMDL
MODEL 2
REMARK VINA RESULT:      -8.2      2.788      7.711
REMARK  6 active torsions:
REMARK  status: ('A' for Active; 'I' for Inactive)
REMARK    1  A    between atoms: C_2  and  C_3 
REMARK       I    between atoms: C_3  and  N_4 
REMARK    2  A    between atoms: N_4  and  C_5 
REMARK    3  A    between atoms: N_6  and  C_7 
REMARK    4  A    between atoms: C_7  and  C_8 
REMARK    5  A    between atoms: C_11  and  O_12 
REMARK    6  A    between atoms: C_20  and  C_21 
ROOT
HETATM    1  C   UNL     1      42.759 -15.276   3.365  1.00  0.00     0.125 A 
HETATM    2  N   UNL     1      42.090 -14.173   2.862  1.00  0.00    -0.332 N 
HETATM    3  C   UNL     1      41.568 -14.496   1.607  1.00  0.00     0.017 A 
HETATM    4  C   UNL     1      40.839 -13.524   0.732  1.00  0.00     0.069 C 
HETATM    5  C   UNL     1      41.858 -15.828   1.337  1.00  0.00    -0.022 A 
HETATM    6  C   UNL     1      41.474 -16.567   0.103  1.00  0.00     0.051 C 
HETATM    7  C   UNL     1      42.606 -16.309   2.447  1.00  0.00     0.062 A 
ENDROOT
BRANCH   7   8
HETATM    8  C   UNL     1      43.164 -17.685   2.688  1.00  0.00     0.143 A 
HETATM    9  N   UNL     1      43.675 -18.072   3.846  1.00  0.00    -0.228 NA
HETATM   10  C   UNL     1      44.002 -19.396   3.685  1.00  0.00     0.086 A 
HETATM   11  C   UNL     1      43.709 -19.825   2.398  1.00  0.00     0.062 A 
HETATM   12  C   UNL     1      44.549 -20.302   4.604  1.00  0.00     0.034 A 
HETATM   13  N   UNL     1      43.194 -18.714   1.782  1.00  0.00    -0.338 N 
HETATM   14  C   UNL     1      43.929 -21.132   1.955  1.00  0.00     0.032 A 
HETATM   15  H   UNL     1      42.852 -18.676   0.837  1.00  0.00     0.167 HD
HETATM   16  C   UNL     1      44.471 -22.025   2.887  1.00  0.00     0.002 A 
HETATM   17  C   UNL     1      44.777 -21.621   4.190  1.00  0.00     0.002 A 
ENDBRANCH   7   8
BRANCH   1  18
HETATM   18  N   UNL     1      43.522 -15.397   4.523  1.00  0.00    -0.312 N 
HETATM   19  C   UNL     1      43.091 -15.502   5.825  1.00  0.00     0.222 C 
HETATM   20  O   UNL     1      41.930 -15.567   6.210  1.00  0.00    -0.273 OA
HETATM   21  H   UNL     1      44.470 -15.730   4.331  1.00  0.00     0.170 HD
BRANCH  19  22
HETATM   22  C   UNL     1      44.228 -15.482   6.836  1.00  0.00     0.099 C 
HETATM   23  C   UNL     1      44.823 -14.109   7.085  1.00  0.00     0.014 C 
ENDBRANCH  19  22
ENDBRANCH   1  18
BRANCH   2  24
HETATM   24  C   UNL     1      42.080 -12.809   3.404  1.00  0.00     0.169 C 
BRANCH  24  25
HETATM   25  C   UNL     1      41.196 -12.597   4.621  1.00  0.00    -0.040 A 
HETATM   26  C   UNL     1      41.711 -11.843   5.688  1.00  0.00     0.011 A 
HETATM   27  C   UNL     1      40.931 -11.566   6.815  1.00  0.00     0.037 A 
HETATM   28  C   UNL     1      39.616 -12.020   6.899  1.00  0.00     0.068 A 
HETATM   29  C   UNL     1      39.097 -12.784   5.857  1.00  0.00     0.037 A 
HETATM   30  C   UNL     1      39.881 -13.073   4.733  1.00  0.00     0.011 A 
BRANCH  28  31
HETATM   31  O   UNL     1      38.952 -11.661   8.040  1.00  0.00    -0.356 OA
HETATM   32  C   UNL     1      39.733 -11.070   9.071  1.00  0.00     0.210 C 
ENDBRANCH  28  31
ENDBRANCH  24  25
ENDBRANCH   2  24
TORSDOF 6
ENDMDL
MODEL 3
REMARK VINA RESULT:      -7.8      2.851      7.479
REMARK  6 active torsions:
REMARK  status: ('A' for Active; 'I' for Inactive)
REMARK    1  A    between atoms: C_2  and  C_3 
REMARK       I    between atoms: C_3  and  N_4 
REMARK    2  A    between atoms: N_4  and  C_5 
REMARK    3  A    between atoms: N_6  and  C_7 
REMARK    4  A    between atoms: C_7  and  C_8 
REMARK    5  A    between atoms: C_11  and  O_12 
REMARK    6  A    between atoms: C_20  and  C_21 
ROOT
HETATM    1  C   UNL     1      41.691 -15.070   3.806  1.00  0.00     0.125 A 
HETATM    2  N   UNL     1      40.802 -14.272   3.107  1.00  0.00    -0.332 N 
HETATM    3  C   UNL     1      40.285 -15.004   2.035  1.00  0.00     0.017 A 
HETATM    4  C   UNL     1      39.342 -14.440   1.018  1.00  0.00     0.069 C 
HETATM    5  C   UNL     1      40.806 -16.291   2.087  1.00  0.00    -0.022 A 
HETATM    6  C   UNL     1      40.504 -17.389   1.128  1.00  0.00     0.051 C 
HETATM    7  C   UNL     1      41.688 -16.323   3.203  1.00  0.00     0.062 A 
ENDROOT
BRANCH   7   8
HETATM    8  C   UNL     1      42.506 -17.469   3.730  1.00  0.00     0.143 A 
HETATM    9  N   UNL     1      42.504 -17.844   4.999  1.00  0.00    -0.228 NA
HETATM   10  C   UNL     1      43.308 -18.954   5.062  1.00  0.00     0.086 A 
HETATM   11  C   UNL     1      43.835 -19.255   3.814  1.00  0.00     0.062 A 
HETATM   12  C   UNL     1      43.630 -19.767   6.158  1.00  0.00     0.034 A 
HETATM   13  N   UNL     1      43.323 -18.286   2.991  1.00  0.00    -0.338 N 
HETATM   14  C   UNL     1      44.681 -20.341   3.578  1.00  0.00     0.032 A 
HETATM   15  H   UNL     1      43.483 -18.217   2.000  1.00  0.00     0.167 HD
HETATM   16  C   UNL     1      44.989 -21.145   4.682  1.00  0.00     0.002 A 
HETATM   17  C   UNL     1      44.474 -20.866   5.951  1.00  0.00     0.002 A 
ENDBRANCH   7   8
BRANCH   1  18
HETATM   18  N   UNL     1      42.523 -14.745   4.874  1.00  0.00    -0.312 N 
HETATM   19  C   UNL     1      43.713 -14.057   4.852  1.00  0.00     0.222 C 
HETATM   20  O   UNL     1      44.247 -13.543   3.876  1.00  0.00    -0.273 OA
HETATM   21  H   UNL     1      42.034 -14.776   5.772  1.00  0.00     0.170 HD
BRANCH  19  22
HETATM   22  C   UNL     1      44.404 -14.013   6.208  1.00  0.00     0.099 C 
HETATM   23  C   UNL     1      44.425 -15.338   6.946  1.00  0.00     0.014 C 
ENDBRANCH  19  22
ENDBRANCH   1  18
BRANCH   2  24
HETATM   24  C   UNL     1      40.564 -12.834   3.280  1.00  0.00     0.169 C 
BRANCH  24  25
HETATM   25  C   UNL     1      40.420 -12.364   4.718  1.00  0.00    -0.040 A 
HETATM   26  C   UNL     1      41.260 -11.332   5.163  1.00  0.00     0.011 A 
HETATM   27  C   UNL     1      41.144 -10.817   6.458  1.00  0.00     0.037 A 
HETATM   28  C   UNL     1      40.177 -11.310   7.335  1.00  0.00     0.068 A 
HETATM   29  C   UNL     1      39.349 -12.346   6.914  1.00  0.00     0.037 A 
HETATM   30  C   UNL     1      39.473 -12.871   5.621  1.00  0.00     0.011 A 
BRANCH  28  31
HETATM   31  O   UNL     1      40.150 -10.706   8.562  1.00  0.00    -0.356 OA
HETATM   32  C   UNL     1      38.865 -10.421   9.102  1.00  0.00     0.210 C 
ENDBRANCH  28  31
ENDBRANCH  24  25
ENDBRANCH   2  24
TORSDOF 6
ENDMDL
MODEL 4
REMARK VINA RESULT:      -7.8      2.617      7.553
REMARK  6 active torsions:
REMARK  status: ('A' for Active; 'I' for Inactive)
REMARK    1  A    between atoms: C_2  and  C_3 
REMARK       I    between atoms: C_3  and  N_4 
REMARK    2  A    between atoms: N_4  and  C_5 
REMARK    3  A    between atoms: N_6  and  C_7 
REMARK    4  A    between atoms: C_7  and  C_8 
REMARK    5  A    between atoms: C_11  and  O_12 
REMARK    6  A    between atoms: C_20  and  C_21 
ROOT
HETATM    1  C   UNL     1      41.831 -14.232   5.144  1.00  0.00     0.125 A 
HETATM    2  N   UNL     1      40.957 -13.264   4.681  1.00  0.00    -0.332 N 
HETATM    3  C   UNL     1      40.265 -13.771   3.578  1.00  0.00     0.017 A 
HETATM    4  C   UNL     1      39.283 -12.978   2.773  1.00  0.00     0.069 C 
HETATM    5  C   UNL     1      40.661 -15.088   3.376  1.00  0.00    -0.022 A 
HETATM    6  C   UNL     1      40.159 -15.991   2.304  1.00  0.00     0.051 C 
HETATM    7  C   UNL     1      41.645 -15.368   4.364  1.00  0.00     0.062 A 
ENDROOT
BRANCH   7   8
HETATM    8  C   UNL     1      42.397 -16.646   4.616  1.00  0.00     0.143 A 
HETATM    9  N   UNL     1      42.427 -17.256   5.790  1.00  0.00    -0.228 NA
HETATM   10  C   UNL     1      43.146 -18.409   5.593  1.00  0.00     0.086 A 
HETATM   11  C   UNL     1      43.588 -18.498   4.280  1.00  0.00     0.062 A 
HETATM   12  C   UNL     1      43.457 -19.436   6.495  1.00  0.00     0.034 A 
HETATM   13  N   UNL     1      43.112 -17.358   3.687  1.00  0.00    -0.338 N 
HETATM   14  C   UNL     1      44.336 -19.573   3.793  1.00  0.00     0.032 A 
HETATM   15  H   UNL     1      43.230 -17.110   2.720  1.00  0.00     0.167 HD
HETATM   16  C   UNL     1      44.634 -20.592   4.705  1.00  0.00     0.002 A 
HETATM   17  C   UNL     1      44.203 -20.529   6.034  1.00  0.00     0.002 A 
ENDBRANCH   7   8
BRANCH   1  18
HETATM   18  N   UNL     1      42.795 -14.150   6.146  1.00  0.00    -0.312 N 
HETATM   19  C   UNL     1      44.140 -13.896   6.020  1.00  0.00     0.222 C 
HETATM   20  O   UNL     1      44.744 -13.634   4.986  1.00  0.00    -0.273 OA
HETATM   21  H   UNL     1      42.385 -13.975   7.067  1.00  0.00     0.170 HD
BRANCH  19  22
HETATM   22  C   UNL     1      44.899 -14.018   7.334  1.00  0.00     0.099 C 
HETATM   23  C   UNL     1      44.678 -12.865   8.296  1.00  0.00     0.014 C 
ENDBRANCH  19  22
ENDBRANCH   1  18
BRANCH   2  24
HETATM   24  C   UNL     1      40.879 -11.858   5.095  1.00  0.00     0.169 C 
BRANCH  24  25
HETATM   25  C   UNL     1      40.595 -11.625   6.569  1.00  0.00    -0.040 A 
HETATM   26  C   UNL     1      41.545 -10.917   7.321  1.00  0.00     0.011 A 
HETATM   27  C   UNL     1      41.320 -10.623   8.670  1.00  0.00     0.037 A 
HETATM   28  C   UNL     1      40.138 -11.016   9.296  1.00  0.00     0.068 A 
HETATM   29  C   UNL     1      39.194 -11.735   8.568  1.00  0.00     0.037 A 
HETATM   30  C   UNL     1      39.424 -12.041   7.220  1.00  0.00     0.011 A 
BRANCH  28  31
HETATM   31  O   UNL     1      40.029 -10.646  10.609  1.00  0.00    -0.356 OA
HETATM   32  C   UNL     1      41.173 -10.860  11.427  1.00  0.00     0.210 C 
ENDBRANCH  28  31
ENDBRANCH  24  25
ENDBRANCH   2  24
TORSDOF 6
ENDMDL
MODEL 5
REMARK VINA RESULT:      -7.8      3.028      6.656
REMARK  6 active torsions:
REMARK  status: ('A' for Active; 'I' for Inactive)
REMARK    1  A    between atoms: C_2  and  C_3 
REMARK       I    between atoms: C_3  and  N_4 
REMARK    2  A    between atoms: N_4  and  C_5 
REMARK    3  A    between atoms: N_6  and  C_7 
REMARK    4  A    between atoms: C_7  and  C_8 
REMARK    5  A    between atoms: C_11  and  O_12 
REMARK    6  A    between atoms: C_20  and  C_21 
ROOT
HETATM    1  C   UNL     1      42.803 -14.193   3.438  1.00  0.00     0.125 A 
HETATM    2  N   UNL     1      42.698 -13.894   4.786  1.00  0.00    -0.332 N 
HETATM    3  C   UNL     1      41.948 -12.725   4.931  1.00  0.00     0.017 A 
HETATM    4  C   UNL     1      41.686 -12.060   6.247  1.00  0.00     0.069 C 
HETATM    5  C   UNL     1      41.527 -12.311   3.673  1.00  0.00    -0.022 A 
HETATM    6  C   UNL     1      40.699 -11.106   3.388  1.00  0.00     0.051 C 
HETATM    7  C   UNL     1      42.069 -13.239   2.742  1.00  0.00     0.062 A 
ENDROOT
BRANCH   7   8
HETATM    8  C   UNL     1      41.917 -13.279   1.247  1.00  0.00     0.143 A 
HETATM    9  N   UNL     1      42.469 -12.392   0.434  1.00  0.00    -0.228 NA
HETATM   10  C   UNL     1      42.163 -12.809  -0.837  1.00  0.00     0.086 A 
HETATM   11  C   UNL     1      41.388 -13.961  -0.807  1.00  0.00     0.062 A 
HETATM   12  C   UNL     1      42.523 -12.255  -2.074  1.00  0.00     0.034 A 
HETATM   13  N   UNL     1      41.234 -14.226   0.529  1.00  0.00    -0.338 N 
HETATM   14  C   UNL     1      40.938 -14.614  -1.956  1.00  0.00     0.032 A 
HETATM   15  H   UNL     1      40.740 -15.013   0.914  1.00  0.00     0.167 HD
HETATM   16  C   UNL     1      41.310 -14.050  -3.183  1.00  0.00     0.002 A 
HETATM   17  C   UNL     1      42.088 -12.891  -3.244  1.00  0.00     0.002 A 
ENDBRANCH   7   8
BRANCH   1  18
HETATM   18  N   UNL     1      43.537 -15.194   2.808  1.00  0.00    -0.312 N 
HETATM   19  C   UNL     1      43.088 -16.384   2.285  1.00  0.00     0.222 C 
HETATM   20  O   UNL     1      41.926 -16.767   2.224  1.00  0.00    -0.273 OA
HETATM   21  H   UNL     1      44.435 -14.855   2.456  1.00  0.00     0.170 HD
BRANCH  19  22
HETATM   22  C   UNL     1      44.213 -17.284   1.792  1.00  0.00     0.099 C 
HETATM   23  C   UNL     1      44.038 -18.752   2.135  1.00  0.00     0.014 C 
ENDBRANCH  19  22
ENDBRANCH   1  18
BRANCH   2  24
HETATM   24  C   UNL     1      43.408 -14.531   5.901  1.00  0.00     0.169 C 
BRANCH  24  25
HETATM   25  C   UNL     1      43.395 -16.050   5.901  1.00  0.00    -0.040 A 
HETATM   26  C   UNL     1      44.612 -16.721   6.101  1.00  0.00     0.011 A 
HETATM   27  C   UNL     1      44.662 -18.117   6.164  1.00  0.00     0.037 A 
HETATM   28  C   UNL     1      43.498 -18.877   6.046  1.00  0.00     0.068 A 
HETATM   29  C   UNL     1      42.286 -18.227   5.830  1.00  0.00     0.037 A 
HETATM   30  C   UNL     1      42.237 -16.828   5.754  1.00  0.00     0.011 A 
BRANCH  28  31
HETATM   31  O   UNL     1      43.678 -20.229   6.151  1.00  0.00    -0.356 OA
HETATM   32  C   UNL     1      44.623 -20.816   5.265  1.00  0.00     0.210 C 
ENDBRANCH  28  31
ENDBRANCH  24  25
ENDBRANCH   2  24
TORSDOF 6
ENDMDL
MODEL 6
REMARK VINA RESULT:      -7.6      2.844      8.397
REMARK  6 active torsions:
REMARK  status: ('A' for Active; 'I' for Inactive)
REMARK    1  A    between atoms: C_2  and  C_3 
REMARK       I    between atoms: C_3  and  N_4 
REMARK    2  A    between atoms: N_4  and  C_5 
REMARK    3  A    between atoms: N_6  and  C_7 
REMARK    4  A    between atoms: C_7  and  C_8 
REMARK    5  A    between atoms: C_11  and  O_12 
REMARK    6  A    between atoms: C_20  and  C_21 
ROOT
HETATM    1  C   UNL     1      43.072 -15.549   3.857  1.00  0.00     0.125 A 
HETATM    2  N   UNL     1      43.165 -14.375   4.586  1.00  0.00    -0.332 N 
HETATM    3  C   UNL     1      43.732 -14.661   5.830  1.00  0.00     0.017 A 
HETATM    4  C   UNL     1      43.925 -13.644   6.912  1.00  0.00     0.069 C 
HETATM    5  C   UNL     1      44.052 -16.013   5.870  1.00  0.00    -0.022 A 
HETATM    6  C   UNL     1      44.680 -16.723   7.019  1.00  0.00     0.051 C 
HETATM    7  C   UNL     1      43.633 -16.562   4.626  1.00  0.00     0.062 A 
ENDROOT
BRANCH   7   8
HETATM    8  C   UNL     1      43.750 -17.976   4.129  1.00  0.00     0.143 A 
HETATM    9  N   UNL     1      43.358 -18.360   2.924  1.00  0.00    -0.228 NA
HETATM   10  C   UNL     1      43.696 -19.686   2.827  1.00  0.00     0.086 A 
HETATM   11  C   UNL     1      44.286 -20.134   4.001  1.00  0.00     0.062 A 
HETATM   12  C   UNL     1      43.536 -20.576   1.755  1.00  0.00     0.034 A 
HETATM   13  N   UNL     1      44.292 -19.031   4.815  1.00  0.00    -0.338 N 
HETATM   14  C   UNL     1      44.741 -21.442   4.181  1.00  0.00     0.032 A 
HETATM   15  H   UNL     1      44.675 -18.994   5.744  1.00  0.00     0.167 HD
HETATM   16  C   UNL     1      44.578 -22.317   3.100  1.00  0.00     0.002 A 
HETATM   17  C   UNL     1      43.986 -21.894   1.906  1.00  0.00     0.002 A 
ENDBRANCH   7   8
BRANCH   1  18
HETATM   18  N   UNL     1      42.482 -15.777   2.617  1.00  0.00    -0.312 N 
HETATM   19  C   UNL     1      41.148 -15.743   2.285  1.00  0.00     0.222 C 
HETATM   20  O   UNL     1      40.215 -15.444   3.022  1.00  0.00    -0.273 OA
HETATM   21  H   UNL     1      43.144 -15.667   1.845  1.00  0.00     0.170 HD
BRANCH  19  22
HETATM   22  C   UNL     1      40.876 -16.179   0.853  1.00  0.00     0.099 C 
HETATM   23  C   UNL     1      41.412 -15.232  -0.205  1.00  0.00     0.014 C 
ENDBRANCH  19  22
ENDBRANCH   1  18
BRANCH   2  24
HETATM   24  C   UNL     1      42.589 -13.067   4.252  1.00  0.00     0.169 C 
BRANCH  24  25
HETATM   25  C   UNL     1      41.562 -12.535   5.236  1.00  0.00    -0.040 A 
HETATM   26  C   UNL     1      41.696 -11.210   5.680  1.00  0.00     0.011 A 
HETATM   27  C   UNL     1      40.755 -10.642   6.545  1.00  0.00     0.037 A 
HETATM   28  C   UNL     1      39.651 -11.377   6.976  1.00  0.00     0.068 A 
HETATM   29  C   UNL     1      39.514 -12.698   6.559  1.00  0.00     0.037 A 
HETATM   30  C   UNL     1      40.462 -13.272   5.702  1.00  0.00     0.011 A 
BRANCH  28  31
HETATM   31  O   UNL     1      38.792 -10.700   7.798  1.00  0.00    -0.356 OA
HETATM   32  C   UNL     1      39.161 -10.611   9.168  1.00  0.00     0.210 C 
ENDBRANCH  28  31
ENDBRANCH  24  25
ENDBRANCH   2  24
TORSDOF 6
ENDMDL
MODEL 7
REMARK VINA RESULT:      -7.6      4.027      6.822
REMARK  6 active torsions:
REMARK  status: ('A' for Active; 'I' for Inactive)
REMARK    1  A    between atoms: C_2  and  C_3 
REMARK       I    between atoms: C_3  and  N_4 
REMARK    2  A    between atoms: N_4  and  C_5 
REMARK    3  A    between atoms: N_6  and  C_7 
REMARK    4  A    between atoms: C_7  and  C_8 
REMARK    5  A    between atoms: C_11  and  O_12 
REMARK    6  A    between atoms: C_20  and  C_21 
ROOT
HETATM    1  C   UNL     1      41.154 -14.103   1.295  1.00  0.00     0.125 A 
HETATM    2  N   UNL     1      40.724 -14.953   2.300  1.00  0.00    -0.332 N 
HETATM    3  C   UNL     1      40.765 -14.268   3.517  1.00  0.00     0.017 A 
HETATM    4  C   UNL     1      40.434 -14.893   4.837  1.00  0.00     0.069 C 
HETATM    5  C   UNL     1      41.168 -12.960   3.275  1.00  0.00    -0.022 A 
HETATM    6  C   UNL     1      41.337 -11.899   4.306  1.00  0.00     0.051 C 
HETATM    7  C   UNL     1      41.411 -12.867   1.877  1.00  0.00     0.062 A 
ENDROOT
BRANCH   7   8
HETATM    8  C   UNL     1      41.853 -11.677   1.071  1.00  0.00     0.143 A 
HETATM    9  N   UNL     1      42.714 -11.754   0.068  1.00  0.00    -0.228 NA
HETATM   10  C   UNL     1      42.798 -10.486  -0.450  1.00  0.00     0.086 A 
HETATM   11  C   UNL     1      41.993  -9.607   0.261  1.00  0.00     0.062 A 
HETATM   12  C   UNL     1      43.541 -10.010  -1.540  1.00  0.00     0.034 A 
HETATM   13  N   UNL     1      41.418 -10.387   1.230  1.00  0.00    -0.338 N 
HETATM   14  C   UNL     1      41.874  -8.250  -0.052  1.00  0.00     0.032 A 
HETATM   15  H   UNL     1      40.752 -10.071   1.914  1.00  0.00     0.167 HD
HETATM   16  C   UNL     1      42.619  -7.793  -1.146  1.00  0.00     0.002 A 
HETATM   17  C   UNL     1      43.439  -8.655  -1.879  1.00  0.00     0.002 A 
ENDBRANCH   7   8
BRANCH   1  18
HETATM   18  N   UNL     1      41.383 -14.369  -0.052  1.00  0.00    -0.312 N 
HETATM   19  C   UNL     1      40.471 -14.423  -1.080  1.00  0.00     0.222 C 
HETATM   20  O   UNL     1      39.271 -14.186  -1.010  1.00  0.00    -0.273 OA
HETATM   21  H   UNL     1      42.358 -14.216  -0.319  1.00  0.00     0.170 HD
BRANCH  19  22
HETATM   22  C   UNL     1      41.082 -14.876  -2.399  1.00  0.00     0.099 C 
HETATM   23  C   UNL     1      40.288 -15.948  -3.123  1.00  0.00     0.014 C 
ENDBRANCH  19  22
ENDBRANCH   1  18
BRANCH   2  24
HETATM   24  C   UNL     1      40.465 -16.394   2.202  1.00  0.00     0.169 C 
BRANCH  24  25
HETATM   25  C   UNL     1      41.687 -17.288   2.331  1.00  0.00    -0.040 A 
HETATM   26  C   UNL     1      41.932 -17.895   3.572  1.00  0.00     0.011 A 
HETATM   27  C   UNL     1      43.010 -18.770   3.744  1.00  0.00     0.037 A 
HETATM   28  C   UNL     1      43.857 -19.072   2.679  1.00  0.00     0.068 A 
HETATM   29  C   UNL     1      43.637 -18.464   1.446  1.00  0.00     0.037 A 
HETATM   30  C   UNL     1      42.566 -17.577   1.277  1.00  0.00     0.011 A 
BRANCH  28  31
HETATM   31  O   UNL     1      44.857 -19.961   2.970  1.00  0.00    -0.356 OA
HETATM   32  C   UNL     1      44.972 -20.366   4.328  1.00  0.00     0.210 C 
ENDBRANCH  28  31
ENDBRANCH  24  25
ENDBRANCH   2  24
TORSDOF 6
ENDMDL
MODEL 8
REMARK VINA RESULT:      -7.5      2.864      7.910
REMARK  6 active torsions:
REMARK  status: ('A' for Active; 'I' for Inactive)
REMARK    1  A    between atoms: C_2  and  C_3 
REMARK       I    between atoms: C_3  and  N_4 
REMARK    2  A    between atoms: N_4  and  C_5 
REMARK    3  A    between atoms: N_6  and  C_7 
REMARK    4  A    between atoms: C_7  and  C_8 
REMARK    5  A    between atoms: C_11  and  O_12 
REMARK    6  A    between atoms: C_20  and  C_21 
ROOT
HETATM    1  C   UNL     1      43.348 -15.778   3.719  1.00  0.00     0.125 A 
HETATM    2  N   UNL     1      43.329 -14.557   4.371  1.00  0.00    -0.332 N 
HETATM    3  C   UNL     1      43.596 -14.766   5.727  1.00  0.00     0.017 A 
HETATM    4  C   UNL     1      43.589 -13.679   6.755  1.00  0.00     0.069 C 
HETATM    5  C   UNL     1      43.841 -16.120   5.925  1.00  0.00    -0.022 A 
HETATM    6  C   UNL     1      44.170 -16.761   7.228  1.00  0.00     0.051 C 
HETATM    7  C   UNL     1      43.683 -16.747   4.658  1.00  0.00     0.062 A 
ENDROOT
BRANCH   7   8
HETATM    8  C   UNL     1      43.845 -18.196   4.292  1.00  0.00     0.143 A 
HETATM    9  N   UNL     1      43.654 -18.666   3.070  1.00  0.00    -0.228 NA
HETATM   10  C   UNL     1      43.969 -20.001   3.129  1.00  0.00     0.086 A 
HETATM   11  C   UNL     1      44.338 -20.365   4.417  1.00  0.00     0.062 A 
HETATM   12  C   UNL     1      43.971 -20.968   2.114  1.00  0.00     0.034 A 
HETATM   13  N   UNL     1      44.234 -19.204   5.137  1.00  0.00    -0.338 N 
HETATM   14  C   UNL     1      44.721 -21.662   4.768  1.00  0.00     0.032 A 
HETATM   15  H   UNL     1      44.453 -19.101   6.114  1.00  0.00     0.167 HD
HETATM   16  C   UNL     1      44.722 -22.614   3.742  1.00  0.00     0.002 A 
HETATM   17  C   UNL     1      44.354 -22.276   2.436  1.00  0.00     0.002 A 
ENDBRANCH   7   8
BRANCH   1  18
HETATM   18  N   UNL     1      43.036 -16.080   2.396  1.00  0.00    -0.312 N 
HETATM   19  C   UNL     1      41.837 -16.510   1.877  1.00  0.00     0.222 C 
HETATM   20  O   UNL     1      40.783 -16.656   2.485  1.00  0.00    -0.273 OA
HETATM   21  H   UNL     1      43.689 -15.654   1.735  1.00  0.00     0.170 HD
BRANCH  19  22
HETATM   22  C   UNL     1      41.918 -16.867   0.399  1.00  0.00     0.099 C 
HETATM   23  C   UNL     1      41.346 -15.815  -0.533  1.00  0.00     0.014 C 
ENDBRANCH  19  22
ENDBRANCH   1  18
BRANCH   2  24
HETATM   24  C   UNL     1      42.897 -13.262   3.833  1.00  0.00     0.169 C 
BRANCH  24  25
HETATM   25  C   UNL     1      41.509 -13.241   3.216  1.00  0.00    -0.040 A 
HETATM   26  C   UNL     1      41.391 -12.862   1.870  1.00  0.00     0.011 A 
HETATM   27  C   UNL     1      40.149 -12.872   1.226  1.00  0.00     0.037 A 
HETATM   28  C   UNL     1      38.999 -13.275   1.905  1.00  0.00     0.068 A 
HETATM   29  C   UNL     1      39.098 -13.635   3.246  1.00  0.00     0.037 A 
HETATM   30  C   UNL     1      40.339 -13.614   3.895  1.00  0.00     0.011 A 
BRANCH  28  31
HETATM   31  O   UNL     1      37.853 -13.264   1.157  1.00  0.00    -0.356 OA
HETATM   32  C   UNL     1      37.221 -12.003   0.980  1.00  0.00     0.210 C 
ENDBRANCH  28  31
ENDBRANCH  24  25
ENDBRANCH   2  24
TORSDOF 6
ENDMDL
MODEL 9
REMARK VINA RESULT:      -7.5      2.622      7.906
REMARK  6 active torsions:
REMARK  status: ('A' for Active; 'I' for Inactive)
REMARK    1  A    between atoms: C_2  and  C_3 
REMARK       I    between atoms: C_3  and  N_4 
REMARK    2  A    between atoms: N_4  and  C_5 
REMARK    3  A    between atoms: N_6  and  C_7 
REMARK    4  A    between atoms: C_7  and  C_8 
REMARK    5  A    between atoms: C_11  and  O_12 
REMARK    6  A    between atoms: C_20  and  C_21 
ROOT
HETATM    1  C   UNL     1      41.850 -13.225   4.668  1.00  0.00     0.125 A 
HETATM    2  N   UNL     1      40.988 -12.150   4.806  1.00  0.00    -0.332 N 
HETATM    3  C   UNL     1      39.911 -12.323   3.933  1.00  0.00     0.017 A 
HETATM    4  C   UNL     1      38.812 -11.322   3.758  1.00  0.00     0.069 C 
HETATM    5  C   UNL     1      40.061 -13.541   3.281  1.00  0.00    -0.022 A 
HETATM    6  C   UNL     1      39.125 -14.105   2.269  1.00  0.00     0.051 C 
HETATM    7  C   UNL     1      41.282 -14.099   3.749  1.00  0.00     0.062 A 
ENDROOT
BRANCH   7   8
HETATM    8  C   UNL     1      41.924 -15.410   3.387  1.00  0.00     0.143 A 
HETATM    9  N   UNL     1      42.680 -15.581   2.314  1.00  0.00    -0.228 NA
HETATM   10  C   UNL     1      43.130 -16.876   2.376  1.00  0.00     0.086 A 
HETATM   11  C   UNL     1      42.623 -17.523   3.495  1.00  0.00     0.062 A 
HETATM   12  C   UNL     1      43.987 -17.570   1.511  1.00  0.00     0.034 A 
HETATM   13  N   UNL     1      41.847 -16.574   4.109  1.00  0.00    -0.338 N 
HETATM   14  C   UNL     1      42.923 -18.848   3.818  1.00  0.00     0.032 A 
HETATM   15  H   UNL     1      41.345 -16.699   4.971  1.00  0.00     0.167 HD
HETATM   16  C   UNL     1      43.784 -19.525   2.946  1.00  0.00     0.002 A 
HETATM   17  C   UNL     1      44.309 -18.900   1.811  1.00  0.00     0.002 A 
ENDBRANCH   7   8
BRANCH   1  18
HETATM   18  N   UNL     1      43.099 -13.438   5.247  1.00  0.00    -0.312 N 
HETATM   19  C   UNL     1      43.456 -14.373   6.189  1.00  0.00     0.222 C 
HETATM   20  O   UNL     1      42.741 -15.248   6.664  1.00  0.00    -0.273 OA
HETATM   21  H   UNL     1      43.859 -13.046   4.687  1.00  0.00     0.170 HD
BRANCH  19  22
HETATM   22  C   UNL     1      44.889 -14.213   6.679  1.00  0.00     0.099 C 
HETATM   23  C   UNL     1      45.050 -13.256   7.846  1.00  0.00     0.014 C 
ENDBRANCH  19  22
ENDBRANCH   1  18
BRANCH   2  24
HETATM   24  C   UNL     1      41.217 -10.911   5.558  1.00  0.00     0.169 C 
BRANCH  24  25
HETATM   25  C   UNL     1      40.886 -10.975   7.039  1.00  0.00    -0.040 A 
HETATM   26  C   UNL     1      41.886 -10.612   7.955  1.00  0.00     0.011 A 
HETATM   27  C   UNL     1      41.631 -10.599   9.330  1.00  0.00     0.037 A 
HETATM   28  C   UNL     1      40.370 -10.932   9.823  1.00  0.00     0.068 A 
HETATM   29  C   UNL     1      39.373 -11.312   8.928  1.00  0.00     0.037 A 
HETATM   30  C   UNL     1      39.631 -11.338   7.551  1.00  0.00     0.011 A 
BRANCH  28  31
HETATM   31  O   UNL     1      40.243 -10.856  11.183  1.00  0.00    -0.356 OA
HETATM   32  C   UNL     1      40.395  -9.567  11.765  1.00  0.00     0.210 C 
ENDBRANCH  28  31
ENDBRANCH  24  25
ENDBRANCH   2  24
TORSDOF 6
ENDMDL
MODEL 10
REMARK VINA RESULT:      -7.5      3.313      6.308
REMARK  6 active torsions:
REMARK  status: ('A' for Active; 'I' for Inactive)
REMARK    1  A    between atoms: C_2  and  C_3 
REMARK       I    between atoms: C_3  and  N_4 
REMARK    2  A    between atoms: N_4  and  C_5 
REMARK    3  A    between atoms: N_6  and  C_7 
REMARK    4  A    between atoms: C_7  and  C_8 
REMARK    5  A    between atoms: C_11  and  O_12 
REMARK    6  A    between atoms: C_20  and  C_21 
ROOT
HETATM    1  C   UNL     1      40.987 -14.353   3.230  1.00  0.00     0.125 A 
HETATM    2  N   UNL     1      40.461 -14.404   4.509  1.00  0.00    -0.332 N 
HETATM    3  C   UNL     1      40.224 -13.100   4.952  1.00  0.00     0.017 A 
HETATM    4  C   UNL     1      39.721 -12.763   6.321  1.00  0.00     0.069 C 
HETATM    5  C   UNL     1      40.549 -12.220   3.927  1.00  0.00    -0.022 A 
HETATM    6  C   UNL     1      40.438 -10.736   3.990  1.00  0.00     0.051 C 
HETATM    7  C   UNL     1      41.027 -13.016   2.850  1.00  0.00     0.062 A 
ENDROOT
BRANCH   7   8
HETATM    8  C   UNL     1      41.499 -12.582   1.490  1.00  0.00     0.143 A 
HETATM    9  N   UNL     1      41.260 -13.266   0.382  1.00  0.00    -0.228 NA
HETATM   10  C   UNL     1      41.783 -12.516  -0.641  1.00  0.00     0.086 A 
HETATM   11  C   UNL     1      42.376 -11.359  -0.153  1.00  0.00     0.062 A 
HETATM   12  C   UNL     1      41.780 -12.756  -2.022  1.00  0.00     0.034 A 
HETATM   13  N   UNL     1      42.196 -11.437   1.204  1.00  0.00    -0.338 N 
HETATM   14  C   UNL     1      42.981 -10.402  -0.971  1.00  0.00     0.032 A 
HETATM   15  H   UNL     1      42.486 -10.743   1.872  1.00  0.00     0.167 HD
HETATM   16  C   UNL     1      42.966 -10.656  -2.348  1.00  0.00     0.002 A 
HETATM   17  C   UNL     1      42.377 -11.812  -2.868  1.00  0.00     0.002 A 
ENDBRANCH   7   8
BRANCH   1  18
HETATM   18  N   UNL     1      41.474 -15.383   2.430  1.00  0.00    -0.312 N 
HETATM   19  C   UNL     1      42.778 -15.776   2.240  1.00  0.00     0.222 C 
HETATM   20  O   UNL     1      43.770 -15.319   2.796  1.00  0.00    -0.273 OA
HETATM   21  H   UNL     1      40.755 -16.076   2.208  1.00  0.00     0.170 HD
BRANCH  19  22
HETATM   22  C   UNL     1      42.929 -16.861   1.184  1.00  0.00     0.099 C 
HETATM   23  C   UNL     1      43.154 -18.254   1.742  1.00  0.00     0.014 C 
ENDBRANCH  19  22
ENDBRANCH   1  18
BRANCH   2  24
HETATM   24  C   UNL     1      40.350 -15.577   5.384  1.00  0.00     0.169 C 
BRANCH  24  25
HETATM   25  C   UNL     1      41.627 -16.381   5.563  1.00  0.00    -0.040 A 
HETATM   26  C   UNL     1      41.616 -17.732   5.181  1.00  0.00     0.011 A 
HETATM   27  C   UNL     1      42.772 -18.514   5.271  1.00  0.00     0.037 A 
HETATM   28  C   UNL     1      43.968 -17.965   5.729  1.00  0.00     0.068 A 
HETATM   29  C   UNL     1      43.991 -16.631   6.129  1.00  0.00     0.037 A 
HETATM   30  C   UNL     1      42.830 -15.850   6.051  1.00  0.00     0.011 A 
BRANCH  28  31
HETATM   31  O   UNL     1      45.031 -18.827   5.745  1.00  0.00    -0.356 OA
HETATM   32  C   UNL     1      44.942 -19.962   4.895  1.00  0.00     0.210 C 
ENDBRANCH  28  31
ENDBRANCH  24  25
ENDBRANCH   2  24
TORSDOF 6
ENDMDL
