MODEL 1
REMARK VINA RESULT:      -7.9      0.000      0.000
REMARK  3 active torsions:
REMARK  status: ('A' for Active; 'I' for Inactive)
REMARK    1  A    between atoms: C_9  and  C_10 
REMARK    2  A    between atoms: C_16  and  C_17 
REMARK       I    between atoms: C_17  and  N_18 
REMARK    3  A    between atoms: N_18  and  C_19 
ROOT
HETATM    1  C   UNL     1      41.345 -16.577   0.172  1.00  0.00     0.070 C 
HETATM    2  C   UNL     1      41.644 -15.812   1.438  1.00  0.00     0.037 C 
HETATM    3  N   UNL     1      40.952 -14.613   1.587  1.00  0.00    -0.192 N 
HETATM    4  C   UNL     1      41.315 -13.665   2.474  1.00  0.00     0.725 A 
HETATM    5  N   UNL     1      42.268 -13.955   3.411  1.00  0.00    -0.084 N 
HETATM    6  N   UNL     1      42.571 -12.872   4.156  1.00  0.00    -0.149 NA
HETATM    7  C   UNL     1      41.727 -11.973   3.636  1.00  0.00     0.275 A 
HETATM    8  N   UNL     1      40.935 -12.421   2.609  1.00  0.00    -0.054 NA
HETATM    9  C   UNL     1      42.904 -15.270   3.554  1.00  0.00     0.202 C 
HETATM   10  C   UNL     1      42.572 -16.169   2.363  1.00  0.00     0.062 C 
HETATM   11  H   UNL     1      40.342 -14.327   0.823  1.00  0.00     0.184 HD
ENDROOT
BRANCH  10  12
HETATM   12  C   UNL     1      43.457 -17.361   2.248  1.00  0.00     0.256 C 
HETATM   13  N   UNL     1      43.048 -18.444   2.991  1.00  0.00    -0.322 N 
HETATM   14  H   UNL     1      42.246 -18.322   3.597  1.00  0.00     0.169 HD
HETATM   15  O   UNL     1      44.468 -17.282   1.563  1.00  0.00    -0.267 OA
BRANCH  13  16
HETATM   16  C   UNL     1      43.605 -19.742   2.950  1.00  0.00     0.052 A 
HETATM   17  C   UNL     1      44.439 -20.289   3.923  1.00  0.00     0.145 A 
HETATM   18  N   UNL     1      44.999 -21.524   3.840  1.00  0.00    -0.271 NA
HETATM   19  C   UNL     1      44.718 -22.250   2.740  1.00  0.00     0.116 A 
HETATM   20  C   UNL     1      43.899 -21.802   1.719  1.00  0.00     0.021 A 
HETATM   21  C   UNL     1      43.333 -20.532   1.831  1.00  0.00     0.032 A 
ENDBRANCH  13  16
ENDBRANCH  10  12
BRANCH   9  22
HETATM   22  C   UNL     1      42.505 -15.914   4.878  1.00  0.00    -0.025 A 
HETATM   23  C   UNL     1      41.178 -16.265   5.170  1.00  0.00     0.029 A 
HETATM   24  C   UNL     1      40.894 -16.847   6.395  1.00  0.00     0.117 A 
HETATM   25  N   UNL     1      41.826 -17.120   7.330  1.00  0.00    -0.273 NA
HETATM   26  C   UNL     1      43.099 -16.783   7.035  1.00  0.00     0.117 A 
HETATM   27  C   UNL     1      43.483 -16.192   5.841  1.00  0.00     0.029 A 
ENDBRANCH   9  22
TORSDOF 3
ENDMDL
MODEL 2
REMARK VINA RESULT:      -7.8      1.909      3.870
REMARK  3 active torsions:
REMARK  status: ('A' for Active; 'I' for Inactive)
REMARK    1  A    between atoms: C_9  and  C_10 
REMARK    2  A    between atoms: C_16  and  C_17 
REMARK       I    between atoms: C_17  and  N_18 
REMARK    3  A    between atoms: N_18  and  C_19 
ROOT
HETATM    1  C   UNL     1      44.005 -15.866   6.717  1.00  0.00     0.070 C 
HETATM    2  C   UNL     1      42.890 -15.200   5.949  1.00  0.00     0.037 C 
HETATM    3  N   UNL     1      42.651 -13.869   6.280  1.00  0.00    -0.192 N 
HETATM    4  C   UNL     1      41.519 -13.223   5.935  1.00  0.00     0.725 A 
HETATM    5  N   UNL     1      40.653 -13.813   5.056  1.00  0.00    -0.084 N 
HETATM    6  N   UNL     1      39.537 -13.072   4.893  1.00  0.00    -0.149 NA
HETATM    7  C   UNL     1      39.822 -12.025   5.677  1.00  0.00     0.275 A 
HETATM    8  N   UNL     1      41.029 -12.076   6.327  1.00  0.00    -0.054 NA
HETATM    9  C   UNL     1      40.896 -15.107   4.408  1.00  0.00     0.202 C 
HETATM   10  C   UNL     1      42.086 -15.822   5.048  1.00  0.00     0.062 C 
HETATM   11  H   UNL     1      43.206 -13.467   7.032  1.00  0.00     0.184 HD
ENDROOT
BRANCH  10  12
HETATM   12  C   UNL     1      42.168 -17.268   4.707  1.00  0.00     0.256 C 
HETATM   13  N   UNL     1      43.210 -17.596   3.870  1.00  0.00    -0.322 N 
HETATM   14  H   UNL     1      43.773 -16.838   3.503  1.00  0.00     0.169 HD
HETATM   15  O   UNL     1      41.313 -18.028   5.143  1.00  0.00    -0.267 OA
BRANCH  13  16
HETATM   16  C   UNL     1      43.614 -18.902   3.512  1.00  0.00     0.052 A 
HETATM   17  C   UNL     1      44.426 -19.730   4.283  1.00  0.00     0.145 A 
HETATM   18  N   UNL     1      44.838 -20.967   3.898  1.00  0.00    -0.271 NA
HETATM   19  C   UNL     1      44.425 -21.400   2.691  1.00  0.00     0.116 A 
HETATM   20  C   UNL     1      43.614 -20.658   1.851  1.00  0.00     0.021 A 
HETATM   21  C   UNL     1      43.202 -19.394   2.272  1.00  0.00     0.032 A 
ENDBRANCH  13  16
ENDBRANCH  10  12
BRANCH   9  22
HETATM   22  C   UNL     1      41.087 -14.922   2.906  1.00  0.00    -0.025 A 
HETATM   23  C   UNL     1      40.386 -15.688   1.963  1.00  0.00     0.029 A 
HETATM   24  C   UNL     1      40.613 -15.461   0.614  1.00  0.00     0.117 A 
HETATM   25  N   UNL     1      41.461 -14.525   0.143  1.00  0.00    -0.273 NA
HETATM   26  C   UNL     1      42.124 -13.791   1.061  1.00  0.00     0.117 A 
HETATM   27  C   UNL     1      41.971 -13.945   2.430  1.00  0.00     0.029 A 
ENDBRANCH   9  22
TORSDOF 3
ENDMDL
MODEL 3
REMARK VINA RESULT:      -7.5      2.485      5.963
REMARK  3 active torsions:
REMARK  status: ('A' for Active; 'I' for Inactive)
REMARK    1  A    between atoms: C_9  and  C_10 
REMARK    2  A    between atoms: C_16  and  C_17 
REMARK       I    between atoms: C_17  and  N_18 
REMARK    3  A    between atoms: N_18  and  C_19 
ROOT
HETATM    1  C   UNL     1      43.485 -17.713   1.255  1.00  0.00     0.070 C 
HETATM    2  C   UNL     1      43.159 -17.450   2.704  1.00  0.00     0.037 C 
HETATM    3  N   UNL     1      44.138 -17.839   3.615  1.00  0.00    -0.192 N 
HETATM    4  C   UNL     1      43.895 -17.972   4.934  1.00  0.00     0.725 A 
HETATM    5  N   UNL     1      42.711 -17.519   5.447  1.00  0.00    -0.084 N 
HETATM    6  N   UNL     1      42.599 -17.812   6.759  1.00  0.00    -0.149 NA
HETATM    7  C   UNL     1      43.778 -18.406   6.979  1.00  0.00     0.275 A 
HETATM    8  N   UNL     1      44.604 -18.518   5.889  1.00  0.00    -0.054 NA
HETATM    9  C   UNL     1      41.681 -16.839   4.654  1.00  0.00     0.202 C 
HETATM   10  C   UNL     1      41.979 -16.954   3.159  1.00  0.00     0.062 C 
HETATM   11  H   UNL     1      44.965 -18.301   3.244  1.00  0.00     0.184 HD
ENDROOT
BRANCH  10  12
HETATM   12  C   UNL     1      40.817 -16.621   2.290  1.00  0.00     0.256 C 
HETATM   13  N   UNL     1      40.754 -15.301   1.909  1.00  0.00    -0.322 N 
HETATM   14  H   UNL     1      41.438 -14.666   2.301  1.00  0.00     0.169 HD
HETATM   15  O   UNL     1      40.009 -17.501   2.022  1.00  0.00    -0.267 OA
BRANCH  13  16
HETATM   16  C   UNL     1      39.855 -14.745   0.970  1.00  0.00     0.052 A 
HETATM   17  C   UNL     1      40.179 -14.390  -0.337  1.00  0.00     0.145 A 
HETATM   18  N   UNL     1      39.309 -13.816  -1.209  1.00  0.00    -0.271 NA
HETATM   19  C   UNL     1      38.059 -13.584  -0.761  1.00  0.00     0.116 A 
HETATM   20  C   UNL     1      37.635 -13.903   0.516  1.00  0.00     0.021 A 
HETATM   21  C   UNL     1      38.547 -14.495   1.390  1.00  0.00     0.032 A 
ENDBRANCH  13  16
ENDBRANCH  10  12
BRANCH   9  22
HETATM   22  C   UNL     1      41.543 -15.385   5.094  1.00  0.00    -0.025 A 
HETATM   23  C   UNL     1      42.614 -14.482   5.038  1.00  0.00     0.029 A 
HETATM   24  C   UNL     1      42.410 -13.176   5.455  1.00  0.00     0.117 A 
HETATM   25  N   UNL     1      41.227 -12.706   5.899  1.00  0.00    -0.273 NA
HETATM   26  C   UNL     1      40.203 -13.583   5.942  1.00  0.00     0.117 A 
HETATM   27  C   UNL     1      40.307 -14.910   5.553  1.00  0.00     0.029 A 
ENDBRANCH   9  22
TORSDOF 3
ENDMDL
MODEL 4
REMARK VINA RESULT:      -7.3      1.491      1.713
REMARK  3 active torsions:
REMARK  status: ('A' for Active; 'I' for Inactive)
REMARK    1  A    between atoms: C_9  and  C_10 
REMARK    2  A    between atoms: C_16  and  C_17 
REMARK       I    between atoms: C_17  and  N_18 
REMARK    3  A    between atoms: N_18  and  C_19 
ROOT
HETATM    1  C   UNL     1      40.624 -17.759   0.579  1.00  0.00     0.070 C 
HETATM    2  C   UNL     1      41.144 -16.446   1.113  1.00  0.00     0.037 C 
HETATM    3  N   UNL     1      40.340 -15.339   0.856  1.00  0.00    -0.192 N 
HETATM    4  C   UNL     1      40.784 -14.071   0.974  1.00  0.00     0.725 A 
HETATM    5  N   UNL     1      41.997 -13.839   1.560  1.00  0.00    -0.084 N 
HETATM    6  N   UNL     1      42.323 -12.530   1.514  1.00  0.00    -0.149 NA
HETATM    7  C   UNL     1      41.234 -12.028   0.921  1.00  0.00     0.275 A 
HETATM    8  N   UNL     1      40.265 -12.937   0.581  1.00  0.00    -0.054 NA
HETATM    9  C   UNL     1      42.850 -14.891   2.126  1.00  0.00     0.202 C 
HETATM   10  C   UNL     1      42.341 -16.277   1.731  1.00  0.00     0.062 C 
HETATM   11  H   UNL     1      39.500 -15.489   0.300  1.00  0.00     0.184 HD
ENDROOT
BRANCH  10  12
HETATM   12  C   UNL     1      43.335 -17.363   1.949  1.00  0.00     0.256 C 
HETATM   13  N   UNL     1      42.891 -18.386   2.754  1.00  0.00    -0.322 N 
HETATM   14  H   UNL     1      41.979 -18.283   3.184  1.00  0.00     0.169 HD
HETATM   15  O   UNL     1      44.448 -17.254   1.450  1.00  0.00    -0.267 OA
BRANCH  13  16
HETATM   16  C   UNL     1      43.561 -19.606   3.000  1.00  0.00     0.052 A 
HETATM   17  C   UNL     1      44.317 -19.891   4.134  1.00  0.00     0.145 A 
HETATM   18  N   UNL     1      44.989 -21.057   4.329  1.00  0.00    -0.271 NA
HETATM   19  C   UNL     1      44.906 -21.980   3.351  1.00  0.00     0.116 A 
HETATM   20  C   UNL     1      44.178 -21.798   2.189  1.00  0.00     0.021 A 
HETATM   21  C   UNL     1      43.494 -20.595   2.017  1.00  0.00     0.032 A 
ENDBRANCH  13  16
ENDBRANCH  10  12
BRANCH   9  22
HETATM   22  C   UNL     1      42.951 -14.735   3.641  1.00  0.00    -0.025 A 
HETATM   23  C   UNL     1      41.994 -15.273   4.514  1.00  0.00     0.029 A 
HETATM   24  C   UNL     1      42.157 -15.090   5.879  1.00  0.00     0.117 A 
HETATM   25  N   UNL     1      43.200 -14.438   6.429  1.00  0.00    -0.273 NA
HETATM   26  C   UNL     1      44.117 -13.932   5.579  1.00  0.00     0.117 A 
HETATM   27  C   UNL     1      44.042 -14.056   4.200  1.00  0.00     0.029 A 
ENDBRANCH   9  22
TORSDOF 3
ENDMDL
MODEL 5
REMARK VINA RESULT:      -7.1      7.852     10.120
REMARK  3 active torsions:
REMARK  status: ('A' for Active; 'I' for Inactive)
REMARK    1  A    between atoms: C_9  and  C_10 
REMARK    2  A    between atoms: C_16  and  C_17 
REMARK       I    between atoms: C_17  and  N_18 
REMARK    3  A    between atoms: N_18  and  C_19 
ROOT
HETATM    1  C   UNL     1      39.466 -11.647   8.144  1.00  0.00     0.070 C 
HETATM    2  C   UNL     1      39.574 -10.640   9.261  1.00  0.00     0.037 C 
HETATM    3  N   UNL     1      38.373 -10.311   9.885  1.00  0.00    -0.192 N 
HETATM    4  C   UNL     1      38.231  -9.223  10.668  1.00  0.00     0.725 A 
HETATM    5  N   UNL     1      39.340  -8.518  11.042  1.00  0.00    -0.084 N 
HETATM    6  N   UNL     1      39.009  -7.416  11.747  1.00  0.00    -0.149 NA
HETATM    7  C   UNL     1      37.678  -7.547  11.793  1.00  0.00     0.275 A 
HETATM    8  N   UNL     1      37.162  -8.644  11.151  1.00  0.00    -0.054 NA
HETATM    9  C   UNL     1      40.712  -8.896  10.684  1.00  0.00     0.202 C 
HETATM   10  C   UNL     1      40.715  -9.999   9.625  1.00  0.00     0.062 C 
HETATM   11  H   UNL     1      37.524 -10.735   9.516  1.00  0.00     0.184 HD
ENDROOT
BRANCH  10  12
HETATM   12  C   UNL     1      42.030 -10.177   8.950  1.00  0.00     0.256 C 
HETATM   13  N   UNL     1      42.883 -11.045   9.591  1.00  0.00    -0.322 N 
HETATM   14  H   UNL     1      42.587 -11.422  10.483  1.00  0.00     0.169 HD
HETATM   15  O   UNL     1      42.266  -9.532   7.937  1.00  0.00    -0.267 OA
BRANCH  13  16
HETATM   16  C   UNL     1      44.121 -11.515   9.097  1.00  0.00     0.052 A 
HETATM   17  C   UNL     1      45.346 -10.873   9.259  1.00  0.00     0.145 A 
HETATM   18  N   UNL     1      46.518 -11.322   8.737  1.00  0.00    -0.271 NA
HETATM   19  C   UNL     1      46.469 -12.462   8.020  1.00  0.00     0.116 A 
HETATM   20  C   UNL     1      45.306 -13.178   7.803  1.00  0.00     0.021 A 
HETATM   21  C   UNL     1      44.119 -12.697   8.354  1.00  0.00     0.032 A 
ENDBRANCH  13  16
ENDBRANCH  10  12
BRANCH   9  22
HETATM   22  C   UNL     1      41.495  -9.304  11.928  1.00  0.00    -0.025 A 
HETATM   23  C   UNL     1      42.704  -8.689  12.286  1.00  0.00     0.029 A 
HETATM   24  C   UNL     1      43.356  -9.114  13.433  1.00  0.00     0.117 A 
HETATM   25  N   UNL     1      42.888 -10.079  14.249  1.00  0.00    -0.273 NA
HETATM   26  C   UNL     1      41.720 -10.657  13.897  1.00  0.00     0.117 A 
HETATM   27  C   UNL     1      40.996 -10.308  12.768  1.00  0.00     0.029 A 
ENDBRANCH   9  22
TORSDOF 3
ENDMDL
MODEL 6
REMARK VINA RESULT:      -7.0      3.055      6.822
REMARK  3 active torsions:
REMARK  status: ('A' for Active; 'I' for Inactive)
REMARK    1  A    between atoms: C_9  and  C_10 
REMARK    2  A    between atoms: C_16  and  C_17 
REMARK       I    between atoms: C_17  and  N_18 
REMARK    3  A    between atoms: N_18  and  C_19 
ROOT
HETATM    1  C   UNL     1      42.488 -17.392   7.257  1.00  0.00     0.070 C 
HETATM    2  C   UNL     1      42.690 -17.099   5.791  1.00  0.00     0.037 C 
HETATM    3  N   UNL     1      42.591 -18.201   4.944  1.00  0.00    -0.192 N 
HETATM    4  C   UNL     1      43.044 -18.189   3.675  1.00  0.00     0.725 A 
HETATM    5  N   UNL     1      43.432 -17.004   3.113  1.00  0.00    -0.084 N 
HETATM    6  N   UNL     1      43.939 -17.188   1.876  1.00  0.00    -0.149 NA
HETATM    7  C   UNL     1      43.784 -18.511   1.743  1.00  0.00     0.275 A 
HETATM    8  N   UNL     1      43.233 -19.160   2.819  1.00  0.00    -0.054 NA
HETATM    9  C   UNL     1      43.343 -15.706   3.793  1.00  0.00     0.202 C 
HETATM   10  C   UNL     1      43.031 -15.888   5.278  1.00  0.00     0.062 C 
HETATM   11  H   UNL     1      42.437 -19.110   5.376  1.00  0.00     0.184 HD
ENDROOT
BRANCH  10  12
HETATM   12  C   UNL     1      43.285 -14.671   6.096  1.00  0.00     0.256 C 
HETATM   13  N   UNL     1      44.467 -14.697   6.800  1.00  0.00    -0.322 N 
HETATM   14  H   UNL     1      45.015 -15.548   6.766  1.00  0.00     0.169 HD
HETATM   15  O   UNL     1      42.438 -13.787   6.117  1.00  0.00    -0.267 OA
BRANCH  13  16
HETATM   16  C   UNL     1      45.029 -13.623   7.526  1.00  0.00     0.052 A 
HETATM   17  C   UNL     1      44.407 -12.952   8.576  1.00  0.00     0.145 A 
HETATM   18  N   UNL     1      44.950 -11.892   9.232  1.00  0.00    -0.271 NA
HETATM   19  C   UNL     1      46.166 -11.480   8.824  1.00  0.00     0.116 A 
HETATM   20  C   UNL     1      46.870 -12.080   7.795  1.00  0.00     0.021 A 
HETATM   21  C   UNL     1      46.292 -13.168   7.142  1.00  0.00     0.032 A 
ENDBRANCH  13  16
ENDBRANCH  10  12
BRANCH   9  22
HETATM   22  C   UNL     1      42.316 -14.813   3.103  1.00  0.00    -0.025 A 
HETATM   23  C   UNL     1      42.660 -13.578   2.535  1.00  0.00     0.029 A 
HETATM   24  C   UNL     1      41.670 -12.823   1.924  1.00  0.00     0.117 A 
HETATM   25  N   UNL     1      40.385 -13.215   1.821  1.00  0.00    -0.273 NA
HETATM   26  C   UNL     1      40.068 -14.409   2.365  1.00  0.00     0.117 A 
HETATM   27  C   UNL     1      40.983 -15.233   3.002  1.00  0.00     0.029 A 
ENDBRANCH   9  22
TORSDOF 3
ENDMDL
MODEL 7
REMARK VINA RESULT:      -7.0      2.168      6.288
REMARK  3 active torsions:
REMARK  status: ('A' for Active; 'I' for Inactive)
REMARK    1  A    between atoms: C_9  and  C_10 
REMARK    2  A    between atoms: C_16  and  C_17 
REMARK       I    between atoms: C_17  and  N_18 
REMARK    3  A    between atoms: N_18  and  C_19 
ROOT
HETATM    1  C   UNL     1      39.827 -14.261   5.431  1.00  0.00     0.070 C 
HETATM    2  C   UNL     1      41.045 -15.150   5.388  1.00  0.00     0.037 C 
HETATM    3  N   UNL     1      41.188 -16.017   6.469  1.00  0.00    -0.192 N 
HETATM    4  C   UNL     1      42.348 -16.643   6.754  1.00  0.00     0.725 A 
HETATM    5  N   UNL     1      43.372 -16.600   5.849  1.00  0.00    -0.084 N 
HETATM    6  N   UNL     1      44.481 -17.198   6.333  1.00  0.00    -0.149 NA
HETATM    7  C   UNL     1      44.033 -17.618   7.522  1.00  0.00     0.275 A 
HETATM    8  N   UNL     1      42.731 -17.304   7.815  1.00  0.00    -0.054 NA
HETATM    9  C   UNL     1      43.282 -15.946   4.538  1.00  0.00     0.202 C 
HETATM   10  C   UNL     1      42.014 -15.098   4.438  1.00  0.00     0.062 C 
HETATM   11  H   UNL     1      40.497 -15.955   7.213  1.00  0.00     0.184 HD
ENDROOT
BRANCH  10  12
HETATM   12  C   UNL     1      42.031 -14.130   3.308  1.00  0.00     0.256 C 
HETATM   13  N   UNL     1      41.261 -14.503   2.230  1.00  0.00    -0.322 N 
HETATM   14  H   UNL     1      40.820 -15.414   2.261  1.00  0.00     0.169 HD
HETATM   15  O   UNL     1      42.734 -13.131   3.396  1.00  0.00    -0.267 OA
BRANCH  13  16
HETATM   16  C   UNL     1      40.972 -13.709   1.096  1.00  0.00     0.052 A 
HETATM   17  C   UNL     1      40.112 -12.614   1.081  1.00  0.00     0.145 A 
HETATM   18  N   UNL     1      39.816 -11.893  -0.032  1.00  0.00    -0.271 NA
HETATM   19  C   UNL     1      40.401 -12.278  -1.183  1.00  0.00     0.116 A 
HETATM   20  C   UNL     1      41.273 -13.348  -1.275  1.00  0.00     0.021 A 
HETATM   21  C   UNL     1      41.563 -14.068  -0.117  1.00  0.00     0.032 A 
ENDBRANCH  13  16
ENDBRANCH  10  12
BRANCH   9  22
HETATM   22  C   UNL     1      43.361 -16.982   3.421  1.00  0.00    -0.025 A 
HETATM   23  C   UNL     1      43.980 -16.711   2.192  1.00  0.00     0.029 A 
HETATM   24  C   UNL     1      44.013 -17.704   1.226  1.00  0.00     0.117 A 
HETATM   25  N   UNL     1      43.500 -18.938   1.401  1.00  0.00    -0.273 NA
HETATM   26  C   UNL     1      42.913 -19.189   2.590  1.00  0.00     0.117 A 
HETATM   27  C   UNL     1      42.824 -18.261   3.617  1.00  0.00     0.029 A 
ENDBRANCH   9  22
TORSDOF 3
ENDMDL
MODEL 8
REMARK VINA RESULT:      -6.8      2.222      4.042
REMARK  3 active torsions:
REMARK  status: ('A' for Active; 'I' for Inactive)
REMARK    1  A    between atoms: C_9  and  C_10 
REMARK    2  A    between atoms: C_16  and  C_17 
REMARK       I    between atoms: C_17  and  N_18 
REMARK    3  A    between atoms: N_18  and  C_19 
ROOT
HETATM    1  C   UNL     1      44.982 -14.277   6.984  1.00  0.00     0.070 C 
HETATM    2  C   UNL     1      43.671 -14.472   6.262  1.00  0.00     0.037 C 
HETATM    3  N   UNL     1      42.866 -13.339   6.173  1.00  0.00    -0.192 N 
HETATM    4  C   UNL     1      41.557 -13.397   5.854  1.00  0.00     0.725 A 
HETATM    5  N   UNL     1      41.030 -14.574   5.399  1.00  0.00    -0.084 N 
HETATM    6  N   UNL     1      39.697 -14.477   5.214  1.00  0.00    -0.149 NA
HETATM    7  C   UNL     1      39.498 -13.194   5.538  1.00  0.00     0.275 A 
HETATM    8  N   UNL     1      40.612 -12.496   5.929  1.00  0.00    -0.054 NA
HETATM    9  C   UNL     1      41.815 -15.795   5.183  1.00  0.00     0.202 C 
HETATM   10  C   UNL     1      43.213 -15.659   5.788  1.00  0.00     0.062 C 
HETATM   11  H   UNL     1      43.197 -12.493   6.631  1.00  0.00     0.184 HD
ENDROOT
BRANCH  10  12
HETATM   12  C   UNL     1      43.928 -16.956   5.935  1.00  0.00     0.256 C 
HETATM   13  N   UNL     1      43.327 -18.012   5.291  1.00  0.00    -0.322 N 
HETATM   14  H   UNL     1      42.433 -17.844   4.847  1.00  0.00     0.169 HD
HETATM   15  O   UNL     1      44.938 -16.998   6.626  1.00  0.00    -0.267 OA
BRANCH  13  16
HETATM   16  C   UNL     1      43.865 -19.310   5.135  1.00  0.00     0.052 A 
HETATM   17  C   UNL     1      44.390 -19.824   3.952  1.00  0.00     0.145 A 
HETATM   18  N   UNL     1      44.862 -21.092   3.815  1.00  0.00    -0.271 NA
HETATM   19  C   UNL     1      44.808 -21.884   4.903  1.00  0.00     0.116 A 
HETATM   20  C   UNL     1      44.311 -21.470   6.126  1.00  0.00     0.021 A 
HETATM   21  C   UNL     1      43.837 -20.163   6.240  1.00  0.00     0.032 A 
ENDBRANCH  13  16
ENDBRANCH  10  12
BRANCH   9  22
HETATM   22  C   UNL     1      41.871 -16.135   3.697  1.00  0.00    -0.025 A 
HETATM   23  C   UNL     1      42.813 -15.558   2.832  1.00  0.00     0.029 A 
HETATM   24  C   UNL     1      42.801 -15.919   1.493  1.00  0.00     0.117 A 
HETATM   25  N   UNL     1      41.945 -16.817   0.966  1.00  0.00    -0.273 NA
HETATM   26  C   UNL     1      41.049 -17.370   1.810  1.00  0.00     0.117 A 
HETATM   27  C   UNL     1      40.976 -17.071   3.162  1.00  0.00     0.029 A 
ENDBRANCH   9  22
TORSDOF 3
ENDMDL
MODEL 9
REMARK VINA RESULT:      -6.8      2.875      6.857
REMARK  3 active torsions:
REMARK  status: ('A' for Active; 'I' for Inactive)
REMARK    1  A    between atoms: C_9  and  C_10 
REMARK    2  A    between atoms: C_16  and  C_17 
REMARK       I    between atoms: C_17  and  N_18 
REMARK    3  A    between atoms: N_18  and  C_19 
ROOT
HETATM    1  C   UNL     1      40.958 -15.268  -1.102  1.00  0.00     0.070 C 
HETATM    2  C   UNL     1      41.430 -15.802   0.228  1.00  0.00     0.037 C 
HETATM    3  N   UNL     1      42.551 -16.627   0.174  1.00  0.00    -0.192 N 
HETATM    4  C   UNL     1      42.915 -17.430   1.193  1.00  0.00     0.725 A 
HETATM    5  N   UNL     1      42.297 -17.296   2.406  1.00  0.00    -0.084 N 
HETATM    6  N   UNL     1      42.719 -18.233   3.280  1.00  0.00    -0.149 NA
HETATM    7  C   UNL     1      43.627 -18.873   2.533  1.00  0.00     0.275 A 
HETATM    8  N   UNL     1      43.782 -18.408   1.251  1.00  0.00    -0.054 NA
HETATM    9  C   UNL     1      41.275 -16.284   2.698  1.00  0.00     0.202 C 
HETATM   10  C   UNL     1      40.802 -15.600   1.415  1.00  0.00     0.062 C 
HETATM   11  H   UNL     1      42.932 -16.838  -0.746  1.00  0.00     0.184 HD
ENDROOT
BRANCH  10  12
HETATM   12  C   UNL     1      39.532 -14.841   1.576  1.00  0.00     0.256 C 
HETATM   13  N   UNL     1      39.663 -13.479   1.438  1.00  0.00    -0.322 N 
HETATM   14  H   UNL     1      40.598 -13.107   1.320  1.00  0.00     0.169 HD
HETATM   15  O   UNL     1      38.508 -15.455   1.849  1.00  0.00    -0.267 OA
BRANCH  13  16
HETATM   16  C   UNL     1      38.609 -12.539   1.388  1.00  0.00     0.052 A 
HETATM   17  C   UNL     1      38.433 -11.481   2.276  1.00  0.00     0.145 A 
HETATM   18  N   UNL     1      37.386 -10.616   2.234  1.00  0.00    -0.271 NA
HETATM   19  C   UNL     1      36.471 -10.811   1.264  1.00  0.00     0.116 A 
HETATM   20  C   UNL     1      36.555 -11.828   0.330  1.00  0.00     0.021 A 
HETATM   21  C   UNL     1      37.642 -12.700   0.394  1.00  0.00     0.032 A 
ENDBRANCH  13  16
ENDBRANCH  10  12
BRANCH   9  22
HETATM   22  C   UNL     1      41.799 -15.277   3.717  1.00  0.00    -0.025 A 
HETATM   23  C   UNL     1      42.977 -14.545   3.508  1.00  0.00     0.029 A 
HETATM   24  C   UNL     1      43.388 -13.647   4.481  1.00  0.00     0.117 A 
HETATM   25  N   UNL     1      42.709 -13.414   5.622  1.00  0.00    -0.273 NA
HETATM   26  C   UNL     1      41.574 -14.119   5.808  1.00  0.00     0.117 A 
HETATM   27  C   UNL     1      41.083 -15.044   4.898  1.00  0.00     0.029 A 
ENDBRANCH   9  22
TORSDOF 3
ENDMDL
MODEL 10
REMARK VINA RESULT:      -6.7      6.672      9.147
REMARK  3 active torsions:
REMARK  status: ('A' for Active; 'I' for Inactive)
REMARK    1  A    between atoms: C_9  and  C_10 
REMARK    2  A    between atoms: C_16  and  C_17 
REMARK       I    between atoms: C_17  and  N_18 
REMARK    3  A    between atoms: N_18  and  C_19 
ROOT
HETATM    1  C   UNL     1      38.808 -10.897   8.911  1.00  0.00     0.070 C 
HETATM    2  C   UNL     1      39.946 -10.470   9.805  1.00  0.00     0.037 C 
HETATM    3  N   UNL     1      39.597 -10.195  11.124  1.00  0.00    -0.192 N 
HETATM    4  C   UNL     1      40.400  -9.513  11.965  1.00  0.00     0.725 A 
HETATM    5  N   UNL     1      41.689  -9.249  11.593  1.00  0.00    -0.084 N 
HETATM    6  N   UNL     1      42.319  -8.485  12.510  1.00  0.00    -0.149 NA
HETATM    7  C   UNL     1      41.355  -8.363  13.430  1.00  0.00     0.275 A 
HETATM    8  N   UNL     1      40.167  -8.984  13.138  1.00  0.00    -0.054 NA
HETATM    9  C   UNL     1      42.290  -9.708  10.336  1.00  0.00     0.202 C 
HETATM   10  C   UNL     1      41.224 -10.266   9.393  1.00  0.00     0.062 C 
HETATM   11  H   UNL     1      38.611 -10.260  11.370  1.00  0.00     0.184 HD
ENDROOT
BRANCH  10  12
HETATM   12  C   UNL     1      41.686 -10.406   7.985  1.00  0.00     0.256 C 
HETATM   13  N   UNL     1      41.641 -11.693   7.499  1.00  0.00    -0.322 N 
HETATM   14  H   UNL     1      41.378 -12.429   8.143  1.00  0.00     0.169 HD
HETATM   15  O   UNL     1      42.097  -9.415   7.396  1.00  0.00    -0.267 OA
BRANCH  13  16
HETATM   16  C   UNL     1      41.870 -12.089   6.162  1.00  0.00     0.052 A 
HETATM   17  C   UNL     1      41.233 -11.552   5.046  1.00  0.00     0.145 A 
HETATM   18  N   UNL     1      41.438 -11.979   3.772  1.00  0.00    -0.271 NA
HETATM   19  C   UNL     1      42.316 -12.987   3.599  1.00  0.00     0.116 A 
HETATM   20  C   UNL     1      43.005 -13.585   4.640  1.00  0.00     0.021 A 
HETATM   21  C   UNL     1      42.779 -13.124   5.936  1.00  0.00     0.032 A 
ENDBRANCH  13  16
ENDBRANCH  10  12
BRANCH   9  22
HETATM   22  C   UNL     1      43.391 -10.728  10.613  1.00  0.00    -0.025 A 
HETATM   23  C   UNL     1      43.195 -11.830  11.459  1.00  0.00     0.029 A 
HETATM   24  C   UNL     1      44.243 -12.714  11.660  1.00  0.00     0.117 A 
HETATM   25  N   UNL     1      45.450 -12.593  11.072  1.00  0.00    -0.273 NA
HETATM   26  C   UNL     1      45.624 -11.533  10.255  1.00  0.00     0.117 A 
HETATM   27  C   UNL     1      44.640 -10.591   9.994  1.00  0.00     0.029 A 
ENDBRANCH   9  22
TORSDOF 3
ENDMDL
