MODEL 1
REMARK VINA RESULT:      -8.8      0.000      0.000
REMARK  2 active torsions:
REMARK  status: ('A' for Active; 'I' for Inactive)
REMARK    1  A    between atoms: C_4  and  N_5 
REMARK    2  A    between atoms: C_12  and  C_13 
ROOT
HETATM    1  N   UNL     1      42.931 -18.390   2.338  1.00  0.00    -0.236 N 
HETATM    2  N   UNL     1      43.260 -17.765   1.114  1.00  0.00    -0.179 NA
HETATM    3  C   UNL     1      42.469 -16.635   1.036  1.00  0.00     0.119 A 
HETATM    4  C   UNL     1      41.712 -16.470   2.134  1.00  0.00     0.123 A 
HETATM    5  C   UNL     1      41.985 -17.610   3.021  1.00  0.00     0.280 A 
HETATM    6  O   UNL     1      41.458 -17.796   4.104  1.00  0.00    -0.265 OA
HETATM    7  N   UNL     1      42.376 -15.769  -0.018  1.00  0.00    -0.344 N 
HETATM    8  C   UNL     1      41.498 -14.705  -0.017  1.00  0.00     0.049 A 
HETATM    9  C   UNL     1      40.695 -14.454   1.035  1.00  0.00     0.086 A 
HETATM   10  C   UNL     1      40.768 -15.353   2.226  1.00  0.00     0.193 A 
HETATM   11  O   UNL     1      40.059 -15.134   3.200  1.00  0.00    -0.287 OA
HETATM   12  H   UNL     1      43.089 -18.374   0.313  1.00  0.00     0.155 HD
HETATM   13  H   UNL     1      42.976 -15.915  -0.822  1.00  0.00     0.167 HD
ENDROOT
BRANCH   8  14
HETATM   14  C   UNL     1      41.452 -13.836  -1.213  1.00  0.00     0.012 A 
HETATM   15  C   UNL     1      41.062 -14.294  -2.485  1.00  0.00     0.046 A 
HETATM   16 CL   UNL     1      40.574 -15.932  -2.768  1.00  0.00    -0.083 Cl
HETATM   17  C   UNL     1      41.043 -13.424  -3.581  1.00  0.00     0.025 A 
HETATM   18  C   UNL     1      41.411 -12.089  -3.426  1.00  0.00     0.002 A 
HETATM   19  C   UNL     1      41.802 -11.620  -2.174  1.00  0.00     0.001 A 
HETATM   20  C   UNL     1      41.826 -12.486  -1.079  1.00  0.00     0.015 A 
ENDBRANCH   8  14
BRANCH   1  21
HETATM   21  C   UNL     1      43.551 -19.601   2.719  1.00  0.00     0.055 A 
HETATM   22  C   UNL     1      44.226 -19.720   3.940  1.00  0.00     0.031 A 
HETATM   23  C   UNL     1      44.823 -20.928   4.318  1.00  0.00     0.002 A 
HETATM   24  C   UNL     1      44.756 -22.035   3.479  1.00  0.00     0.000 A 
HETATM   25  C   UNL     1      44.098 -21.935   2.258  1.00  0.00     0.002 A 
HETATM   26  C   UNL     1      43.501 -20.727   1.880  1.00  0.00     0.031 A 
ENDBRANCH   1  21
TORSDOF 2
ENDMDL
MODEL 2
REMARK VINA RESULT:      -8.6      2.039      7.766
REMARK  2 active torsions:
REMARK  status: ('A' for Active; 'I' for Inactive)
REMARK    1  A    between atoms: C_4  and  N_5 
REMARK    2  A    between atoms: C_12  and  C_13 
ROOT
HETATM    1  N   UNL     1      41.274 -14.689  -0.413  1.00  0.00    -0.236 N 
HETATM    2  N   UNL     1      41.971 -15.911  -0.547  1.00  0.00    -0.179 NA
HETATM    3  C   UNL     1      41.955 -16.501   0.702  1.00  0.00     0.119 A 
HETATM    4  C   UNL     1      41.260 -15.777   1.595  1.00  0.00     0.123 A 
HETATM    5  C   UNL     1      40.793 -14.569   0.900  1.00  0.00     0.280 A 
HETATM    6  O   UNL     1      40.142 -13.674   1.411  1.00  0.00    -0.265 OA
HETATM    7  N   UNL     1      42.589 -17.654   1.074  1.00  0.00    -0.344 N 
HETATM    8  C   UNL     1      42.563 -18.119   2.373  1.00  0.00     0.049 A 
HETATM    9  C   UNL     1      41.894 -17.465   3.342  1.00  0.00     0.086 A 
HETATM   10  C   UNL     1      41.163 -16.210   2.992  1.00  0.00     0.193 A 
HETATM   11  O   UNL     1      40.536 -15.609   3.853  1.00  0.00    -0.287 OA
HETATM   12  H   UNL     1      42.931 -15.774  -0.863  1.00  0.00     0.155 HD
HETATM   13  H   UNL     1      43.089 -18.184   0.369  1.00  0.00     0.167 HD
ENDROOT
BRANCH   8  14
HETATM   14  C   UNL     1      43.298 -19.364   2.684  1.00  0.00     0.012 A 
HETATM   15  C   UNL     1      44.139 -19.504   3.803  1.00  0.00     0.046 A 
HETATM   16 CL   UNL     1      44.379 -18.224   4.945  1.00  0.00    -0.083 Cl
HETATM   17  C   UNL     1      44.811 -20.707   4.043  1.00  0.00     0.025 A 
HETATM   18  C   UNL     1      44.656 -21.786   3.174  1.00  0.00     0.002 A 
HETATM   19  C   UNL     1      43.829 -21.663   2.060  1.00  0.00     0.001 A 
HETATM   20  C   UNL     1      43.159 -20.463   1.815  1.00  0.00     0.015 A 
ENDBRANCH   8  14
BRANCH   1  21
HETATM   21  C   UNL     1      41.127 -13.819  -1.515  1.00  0.00     0.055 A 
HETATM   22  C   UNL     1      42.209 -13.075  -2.004  1.00  0.00     0.031 A 
HETATM   23  C   UNL     1      42.060 -12.227  -3.107  1.00  0.00     0.002 A 
HETATM   24  C   UNL     1      40.826 -12.108  -3.738  1.00  0.00     0.000 A 
HETATM   25  C   UNL     1      39.737 -12.832  -3.262  1.00  0.00     0.002 A 
HETATM   26  C   UNL     1      39.886 -13.679  -2.159  1.00  0.00     0.031 A 
ENDBRANCH   1  21
TORSDOF 2
ENDMDL
MODEL 3
REMARK VINA RESULT:      -8.6      5.803      8.977
REMARK  2 active torsions:
REMARK  status: ('A' for Active; 'I' for Inactive)
REMARK    1  A    between atoms: C_4  and  N_5 
REMARK    2  A    between atoms: C_12  and  C_13 
ROOT
HETATM    1  N   UNL     1      44.273 -13.913   7.241  1.00  0.00    -0.236 N 
HETATM    2  N   UNL     1      44.935 -15.161   7.266  1.00  0.00    -0.179 NA
HETATM    3  C   UNL     1      44.288 -15.957   6.339  1.00  0.00     0.119 A 
HETATM    4  C   UNL     1      43.312 -15.294   5.696  1.00  0.00     0.123 A 
HETATM    5  C   UNL     1      43.266 -13.938   6.263  1.00  0.00     0.280 A 
HETATM    6  O   UNL     1      42.484 -13.065   5.928  1.00  0.00    -0.265 OA
HETATM    7  N   UNL     1      44.524 -17.280   6.086  1.00  0.00    -0.344 N 
HETATM    8  C   UNL     1      43.769 -17.999   5.183  1.00  0.00     0.049 A 
HETATM    9  C   UNL     1      42.767 -17.426   4.487  1.00  0.00     0.086 A 
HETATM   10  C   UNL     1      42.477 -15.977   4.705  1.00  0.00     0.193 A 
HETATM   11  O   UNL     1      41.581 -15.433   4.073  1.00  0.00    -0.287 OA
HETATM   12  H   UNL     1      44.904 -15.595   8.189  1.00  0.00     0.155 HD
HETATM   13  H   UNL     1      45.281 -17.742   6.577  1.00  0.00     0.167 HD
ENDROOT
BRANCH   8  14
HETATM   14  C   UNL     1      44.084 -19.431   4.993  1.00  0.00     0.012 A 
HETATM   15  C   UNL     1      44.099 -20.364   6.047  1.00  0.00     0.046 A 
HETATM   16 CL   UNL     1      43.726 -19.919   7.679  1.00  0.00    -0.083 Cl
HETATM   17  C   UNL     1      44.408 -21.707   5.806  1.00  0.00     0.025 A 
HETATM   18  C   UNL     1      44.706 -22.139   4.515  1.00  0.00     0.002 A 
HETATM   19  C   UNL     1      44.698 -21.229   3.461  1.00  0.00     0.001 A 
HETATM   20  C   UNL     1      44.393 -19.887   3.698  1.00  0.00     0.015 A 
ENDBRANCH   8  14
BRANCH   1  21
HETATM   21  C   UNL     1      44.676 -12.866   8.100  1.00  0.00     0.055 A 
HETATM   22  C   UNL     1      43.759 -12.222   8.940  1.00  0.00     0.031 A 
HETATM   23  C   UNL     1      44.168 -11.198   9.801  1.00  0.00     0.002 A 
HETATM   24  C   UNL     1      45.501 -10.799   9.833  1.00  0.00     0.000 A 
HETATM   25  C   UNL     1      46.425 -11.421   9.000  1.00  0.00     0.002 A 
HETATM   26  C   UNL     1      46.016 -12.446   8.139  1.00  0.00     0.031 A 
ENDBRANCH   1  21
TORSDOF 2
ENDMDL
MODEL 4
REMARK VINA RESULT:      -8.6      2.553      7.853
REMARK  2 active torsions:
REMARK  status: ('A' for Active; 'I' for Inactive)
REMARK    1  A    between atoms: C_4  and  N_5 
REMARK    2  A    between atoms: C_12  and  C_13 
ROOT
HETATM    1  N   UNL     1      40.999 -15.175  -0.191  1.00  0.00    -0.236 N 
HETATM    2  N   UNL     1      41.082 -16.581  -0.084  1.00  0.00    -0.179 NA
HETATM    3  C   UNL     1      41.946 -16.835   0.965  1.00  0.00     0.119 A 
HETATM    4  C   UNL     1      42.368 -15.706   1.558  1.00  0.00     0.123 A 
HETATM    5  C   UNL     1      41.767 -14.583   0.823  1.00  0.00     0.280 A 
HETATM    6  O   UNL     1      41.947 -13.405   1.077  1.00  0.00    -0.265 OA
HETATM    7  N   UNL     1      42.402 -18.058   1.375  1.00  0.00    -0.344 N 
HETATM    8  C   UNL     1      43.321 -18.192   2.396  1.00  0.00     0.049 A 
HETATM    9  C   UNL     1      43.806 -17.121   3.054  1.00  0.00     0.086 A 
HETATM   10  C   UNL     1      43.328 -15.760   2.664  1.00  0.00     0.193 A 
HETATM   11  O   UNL     1      43.744 -14.774   3.258  1.00  0.00    -0.287 OA
HETATM   12  H   UNL     1      41.428 -17.013  -0.941  1.00  0.00     0.155 HD
HETATM   13  H   UNL     1      42.047 -18.888   0.917  1.00  0.00     0.167 HD
ENDROOT
BRANCH   8  14
HETATM   14  C   UNL     1      43.772 -19.554   2.755  1.00  0.00     0.012 A 
HETATM   15  C   UNL     1      44.384 -19.865   3.983  1.00  0.00     0.046 A 
HETATM   16 CL   UNL     1      44.652 -18.672   5.210  1.00  0.00    -0.083 Cl
HETATM   17  C   UNL     1      44.794 -21.173   4.264  1.00  0.00     0.025 A 
HETATM   18  C   UNL     1      44.599 -22.187   3.328  1.00  0.00     0.002 A 
HETATM   19  C   UNL     1      43.997 -21.896   2.107  1.00  0.00     0.001 A 
HETATM   20  C   UNL     1      43.590 -20.591   1.821  1.00  0.00     0.015 A 
ENDBRANCH   8  14
BRANCH   1  21
HETATM   21  C   UNL     1      40.206 -14.575  -1.194  1.00  0.00     0.055 A 
HETATM   22  C   UNL     1      39.027 -13.890  -0.877  1.00  0.00     0.031 A 
HETATM   23  C   UNL     1      38.255 -13.283  -1.874  1.00  0.00     0.002 A 
HETATM   24  C   UNL     1      38.651 -13.353  -3.205  1.00  0.00     0.000 A 
HETATM   25  C   UNL     1      39.816 -14.035  -3.543  1.00  0.00     0.002 A 
HETATM   26  C   UNL     1      40.586 -14.642  -2.545  1.00  0.00     0.031 A 
ENDBRANCH   1  21
TORSDOF 2
ENDMDL
MODEL 5
REMARK VINA RESULT:      -8.5      1.207      1.823
REMARK  2 active torsions:
REMARK  status: ('A' for Active; 'I' for Inactive)
REMARK    1  A    between atoms: C_4  and  N_5 
REMARK    2  A    between atoms: C_12  and  C_13 
ROOT
HETATM    1  N   UNL     1      42.673 -18.081   2.240  1.00  0.00    -0.236 N 
HETATM    2  N   UNL     1      42.915 -17.492   0.979  1.00  0.00    -0.179 NA
HETATM    3  C   UNL     1      42.068 -16.403   0.895  1.00  0.00     0.119 A 
HETATM    4  C   UNL     1      41.355 -16.229   2.021  1.00  0.00     0.123 A 
HETATM    5  C   UNL     1      41.723 -17.318   2.937  1.00  0.00     0.280 A 
HETATM    6  O   UNL     1      41.256 -17.485   4.050  1.00  0.00    -0.265 OA
HETATM    7  N   UNL     1      41.886 -15.586  -0.186  1.00  0.00    -0.344 N 
HETATM    8  C   UNL     1      40.959 -14.563  -0.183  1.00  0.00     0.049 A 
HETATM    9  C   UNL     1      40.195 -14.307   0.896  1.00  0.00     0.086 A 
HETATM   10  C   UNL     1      40.365 -15.153   2.116  1.00  0.00     0.193 A 
HETATM   11  O   UNL     1      39.692 -14.928   3.113  1.00  0.00    -0.287 OA
HETATM   12  H   UNL     1      42.737 -18.139   0.211  1.00  0.00     0.155 HD
HETATM   13  H   UNL     1      42.454 -15.736  -1.011  1.00  0.00     0.167 HD
ENDROOT
BRANCH   8  14
HETATM   14  C   UNL     1      40.817 -13.747  -1.408  1.00  0.00     0.012 A 
HETATM   15  C   UNL     1      41.468 -12.513  -1.591  1.00  0.00     0.046 A 
HETATM   16 CL   UNL     1      42.523 -11.837  -0.395  1.00  0.00    -0.083 Cl
HETATM   17  C   UNL     1      41.291 -11.782  -2.772  1.00  0.00     0.025 A 
HETATM   18  C   UNL     1      40.466 -12.270  -3.784  1.00  0.00     0.002 A 
HETATM   19  C   UNL     1      39.813 -13.488  -3.617  1.00  0.00     0.001 A 
HETATM   20  C   UNL     1      39.984 -14.219  -2.439  1.00  0.00     0.015 A 
ENDBRANCH   8  14
BRANCH   1  21
HETATM   21  C   UNL     1      43.367 -19.245   2.637  1.00  0.00     0.055 A 
HETATM   22  C   UNL     1      43.340 -20.409   1.858  1.00  0.00     0.031 A 
HETATM   23  C   UNL     1      44.043 -21.554   2.248  1.00  0.00     0.002 A 
HETATM   24  C   UNL     1      44.784 -21.553   3.426  1.00  0.00     0.000 A 
HETATM   25  C   UNL     1      44.818 -20.410   4.218  1.00  0.00     0.002 A 
HETATM   26  C   UNL     1      44.114 -19.266   3.827  1.00  0.00     0.031 A 
ENDBRANCH   1  21
TORSDOF 2
ENDMDL
MODEL 6
REMARK VINA RESULT:      -8.5      3.605      8.232
REMARK  2 active torsions:
REMARK  status: ('A' for Active; 'I' for Inactive)
REMARK    1  A    between atoms: C_4  and  N_5 
REMARK    2  A    between atoms: C_12  and  C_13 
ROOT
HETATM    1  N   UNL     1      40.330 -14.802   3.237  1.00  0.00    -0.236 N 
HETATM    2  N   UNL     1      40.493 -16.201   3.128  1.00  0.00    -0.179 NA
HETATM    3  C   UNL     1      41.523 -16.536   3.986  1.00  0.00     0.119 A 
HETATM    4  C   UNL     1      41.983 -15.471   4.664  1.00  0.00     0.123 A 
HETATM    5  C   UNL     1      41.223 -14.303   4.198  1.00  0.00     0.280 A 
HETATM    6  O   UNL     1      41.388 -13.160   4.588  1.00  0.00    -0.265 OA
HETATM    7  N   UNL     1      42.092 -17.770   4.143  1.00  0.00    -0.344 N 
HETATM    8  C   UNL     1      43.167 -17.979   4.982  1.00  0.00     0.049 A 
HETATM    9  C   UNL     1      43.702 -16.976   5.706  1.00  0.00     0.086 A 
HETATM   10  C   UNL     1      43.108 -15.610   5.593  1.00  0.00     0.193 A 
HETATM   11  O   UNL     1      43.569 -14.688   6.252  1.00  0.00    -0.287 OA
HETATM   12  H   UNL     1      40.716 -16.490   2.175  1.00  0.00     0.155 HD
HETATM   13  H   UNL     1      41.707 -18.553   3.629  1.00  0.00     0.167 HD
ENDROOT
BRANCH   8  14
HETATM   14  C   UNL     1      43.730 -19.343   5.069  1.00  0.00     0.012 A 
HETATM   15  C   UNL     1      44.304 -20.013   3.973  1.00  0.00     0.046 A 
HETATM   16 CL   UNL     1      44.424 -19.284   2.405  1.00  0.00    -0.083 Cl
HETATM   17  C   UNL     1      44.817 -21.306   4.116  1.00  0.00     0.025 A 
HETATM   18  C   UNL     1      44.767 -21.950   5.351  1.00  0.00     0.002 A 
HETATM   19  C   UNL     1      44.200 -21.303   6.446  1.00  0.00     0.001 A 
HETATM   20  C   UNL     1      43.684 -20.013   6.306  1.00  0.00     0.015 A 
ENDBRANCH   8  14
BRANCH   1  21
HETATM   21  C   UNL     1      39.362 -14.126   2.463  1.00  0.00     0.055 A 
HETATM   22  C   UNL     1      38.542 -14.815   1.560  1.00  0.00     0.031 A 
HETATM   23  C   UNL     1      37.573 -14.141   0.809  1.00  0.00     0.002 A 
HETATM   24  C   UNL     1      37.410 -12.766   0.946  1.00  0.00     0.000 A 
HETATM   25  C   UNL     1      38.221 -12.063   1.832  1.00  0.00     0.002 A 
HETATM   26  C   UNL     1      39.190 -12.737   2.582  1.00  0.00     0.031 A 
ENDBRANCH   1  21
TORSDOF 2
ENDMDL
MODEL 7
REMARK VINA RESULT:      -8.4      5.631      8.830
REMARK  2 active torsions:
REMARK  status: ('A' for Active; 'I' for Inactive)
REMARK    1  A    between atoms: C_4  and  N_5 
REMARK    2  A    between atoms: C_12  and  C_13 
ROOT
HETATM    1  N   UNL     1      44.105 -13.604   7.421  1.00  0.00    -0.236 N 
HETATM    2  N   UNL     1      44.764 -14.853   7.450  1.00  0.00    -0.179 NA
HETATM    3  C   UNL     1      44.174 -15.621   6.463  1.00  0.00     0.119 A 
HETATM    4  C   UNL     1      43.239 -14.937   5.782  1.00  0.00     0.123 A 
HETATM    5  C   UNL     1      43.159 -13.599   6.384  1.00  0.00     0.280 A 
HETATM    6  O   UNL     1      42.399 -12.715   6.028  1.00  0.00    -0.265 OA
HETATM    7  N   UNL     1      44.424 -16.936   6.187  1.00  0.00    -0.344 N 
HETATM    8  C   UNL     1      43.725 -17.628   5.220  1.00  0.00     0.049 A 
HETATM    9  C   UNL     1      42.767 -17.033   4.482  1.00  0.00     0.086 A 
HETATM   10  C   UNL     1      42.464 -15.590   4.723  1.00  0.00     0.193 A 
HETATM   11  O   UNL     1      41.609 -15.026   4.054  1.00  0.00    -0.287 OA
HETATM   12  H   UNL     1      44.677 -15.313   8.357  1.00  0.00     0.155 HD
HETATM   13  H   UNL     1      45.150 -17.414   6.709  1.00  0.00     0.167 HD
ENDROOT
BRANCH   8  14
HETATM   14  C   UNL     1      44.050 -19.055   5.008  1.00  0.00     0.012 A 
HETATM   15  C   UNL     1      44.313 -19.606   3.741  1.00  0.00     0.046 A 
HETATM   16 CL   UNL     1      44.300 -18.650   2.296  1.00  0.00    -0.083 Cl
HETATM   17  C   UNL     1      44.611 -20.966   3.603  1.00  0.00     0.025 A 
HETATM   18  C   UNL     1      44.652 -21.795   4.724  1.00  0.00     0.002 A 
HETATM   19  C   UNL     1      44.392 -21.265   5.985  1.00  0.00     0.001 A 
HETATM   20  C   UNL     1      44.090 -19.908   6.126  1.00  0.00     0.015 A 
ENDBRANCH   8  14
BRANCH   1  21
HETATM   21  C   UNL     1      44.456 -12.583   8.332  1.00  0.00     0.055 A 
HETATM   22  C   UNL     1      45.795 -12.287   8.614  1.00  0.00     0.031 A 
HETATM   23  C   UNL     1      46.135 -11.263   9.505  1.00  0.00     0.002 A 
HETATM   24  C   UNL     1      45.139 -10.520  10.130  1.00  0.00     0.000 A 
HETATM   25  C   UNL     1      43.802 -10.804   9.871  1.00  0.00     0.002 A 
HETATM   26  C   UNL     1      43.463 -11.828   8.980  1.00  0.00     0.031 A 
ENDBRANCH   1  21
TORSDOF 2
ENDMDL
MODEL 8
REMARK VINA RESULT:      -8.2      2.689      7.697
REMARK  2 active torsions:
REMARK  status: ('A' for Active; 'I' for Inactive)
REMARK    1  A    between atoms: C_4  and  N_5 
REMARK    2  A    between atoms: C_12  and  C_13 
ROOT
HETATM    1  N   UNL     1      40.939 -15.017   0.004  1.00  0.00    -0.236 N 
HETATM    2  N   UNL     1      40.941 -16.281   0.634  1.00  0.00    -0.179 NA
HETATM    3  C   UNL     1      41.764 -16.159   1.738  1.00  0.00     0.119 A 
HETATM    4  C   UNL     1      42.233 -14.908   1.883  1.00  0.00     0.123 A 
HETATM    5  C   UNL     1      41.713 -14.119   0.756  1.00  0.00     0.280 A 
HETATM    6  O   UNL     1      41.952 -12.941   0.558  1.00  0.00    -0.265 OA
HETATM    7  N   UNL     1      42.141 -17.155   2.596  1.00  0.00    -0.344 N 
HETATM    8  C   UNL     1      43.026 -16.934   3.632  1.00  0.00     0.049 A 
HETATM    9  C   UNL     1      43.553 -15.715   3.861  1.00  0.00     0.086 A 
HETATM   10  C   UNL     1      43.160 -14.582   2.970  1.00  0.00     0.193 A 
HETATM   11  O   UNL     1      43.616 -13.464   3.169  1.00  0.00    -0.287 OA
HETATM   12  H   UNL     1      41.283 -17.018   0.017  1.00  0.00     0.155 HD
HETATM   13  H   UNL     1      41.752 -18.081   2.467  1.00  0.00     0.167 HD
ENDROOT
BRANCH   8  14
HETATM   14  C   UNL     1      43.392 -18.078   4.493  1.00  0.00     0.012 A 
HETATM   15  C   UNL     1      44.011 -19.244   4.006  1.00  0.00     0.046 A 
HETATM   16 CL   UNL     1      44.424 -19.441   2.336  1.00  0.00    -0.083 Cl
HETATM   17  C   UNL     1      44.329 -20.296   4.871  1.00  0.00     0.025 A 
HETATM   18  C   UNL     1      44.038 -20.203   6.231  1.00  0.00     0.002 A 
HETATM   19  C   UNL     1      43.423 -19.057   6.729  1.00  0.00     0.001 A 
HETATM   20  C   UNL     1      43.100 -18.006   5.868  1.00  0.00     0.015 A 
ENDBRANCH   8  14
BRANCH   1  21
HETATM   21  C   UNL     1      40.205 -14.805  -1.184  1.00  0.00     0.055 A 
HETATM   22  C   UNL     1      39.050 -14.014  -1.194  1.00  0.00     0.031 A 
HETATM   23  C   UNL     1      38.338 -13.794  -2.379  1.00  0.00     0.002 A 
HETATM   24  C   UNL     1      38.770 -14.365  -3.572  1.00  0.00     0.000 A 
HETATM   25  C   UNL     1      39.911 -15.160  -3.581  1.00  0.00     0.002 A 
HETATM   26  C   UNL     1      40.622 -15.380  -2.396  1.00  0.00     0.031 A 
ENDBRANCH   1  21
TORSDOF 2
ENDMDL
MODEL 9
REMARK VINA RESULT:      -8.1      6.119      8.223
REMARK  2 active torsions:
REMARK  status: ('A' for Active; 'I' for Inactive)
REMARK    1  A    between atoms: C_4  and  N_5 
REMARK    2  A    between atoms: C_12  and  C_13 
ROOT
HETATM    1  N   UNL     1      43.243 -12.297   7.571  1.00  0.00    -0.236 N 
HETATM    2  N   UNL     1      43.911 -13.448   7.097  1.00  0.00    -0.179 NA
HETATM    3  C   UNL     1      43.253 -13.825   5.941  1.00  0.00     0.119 A 
HETATM    4  C   UNL     1      42.263 -12.973   5.622  1.00  0.00     0.123 A 
HETATM    5  C   UNL     1      42.220 -11.949   6.675  1.00  0.00     0.280 A 
HETATM    6  O   UNL     1      41.429 -11.023   6.719  1.00  0.00    -0.265 OA
HETATM    7  N   UNL     1      43.491 -14.940   5.187  1.00  0.00    -0.344 N 
HETATM    8  C   UNL     1      42.725 -15.256   4.084  1.00  0.00     0.049 A 
HETATM    9  C   UNL     1      41.709 -14.468   3.682  1.00  0.00     0.086 A 
HETATM   10  C   UNL     1      41.415 -13.223   4.453  1.00  0.00     0.193 A 
HETATM   11  O   UNL     1      40.507 -12.485   4.096  1.00  0.00    -0.287 OA
HETATM   12  H   UNL     1      43.897 -14.209   7.776  1.00  0.00     0.155 HD
HETATM   13  H   UNL     1      44.258 -15.549   5.448  1.00  0.00     0.167 HD
ENDROOT
BRANCH   8  14
HETATM   14  C   UNL     1      43.044 -16.497   3.344  1.00  0.00     0.012 A 
HETATM   15  C   UNL     1      42.682 -17.779   3.797  1.00  0.00     0.046 A 
HETATM   16 CL   UNL     1      41.804 -18.026   5.269  1.00  0.00    -0.083 Cl
HETATM   17  C   UNL     1      43.016 -18.917   3.055  1.00  0.00     0.025 A 
HETATM   18  C   UNL     1      43.712 -18.794   1.853  1.00  0.00     0.002 A 
HETATM   19  C   UNL     1      44.078 -17.533   1.392  1.00  0.00     0.001 A 
HETATM   20  C   UNL     1      43.751 -16.395   2.132  1.00  0.00     0.015 A 
ENDBRANCH   8  14
BRANCH   1  21
HETATM   21  C   UNL     1      43.654 -11.666   8.766  1.00  0.00     0.055 A 
HETATM   22  C   UNL     1      42.745 -10.968   9.570  1.00  0.00     0.031 A 
HETATM   23  C   UNL     1      43.155 -10.360  10.761  1.00  0.00     0.002 A 
HETATM   24  C   UNL     1      44.484 -10.439  11.166  1.00  0.00     0.000 A 
HETATM   25  C   UNL     1      45.405 -11.121  10.377  1.00  0.00     0.002 A 
HETATM   26  C   UNL     1      44.993 -11.729   9.186  1.00  0.00     0.031 A 
ENDBRANCH   1  21
TORSDOF 2
ENDMDL
MODEL 10
REMARK VINA RESULT:      -8.1      1.747      2.149
REMARK  2 active torsions:
REMARK  status: ('A' for Active; 'I' for Inactive)
REMARK    1  A    between atoms: C_4  and  N_5 
REMARK    2  A    between atoms: C_12  and  C_13 
ROOT
HETATM    1  N   UNL     1      42.614 -18.409   2.623  1.00  0.00    -0.236 N 
HETATM    2  N   UNL     1      42.399 -17.778   1.378  1.00  0.00    -0.179 NA
HETATM    3  C   UNL     1      41.663 -16.640   1.645  1.00  0.00     0.119 A 
HETATM    4  C   UNL     1      41.446 -16.476   2.962  1.00  0.00     0.123 A 
HETATM    5  C   UNL     1      42.056 -17.625   3.646  1.00  0.00     0.280 A 
HETATM    6  O   UNL     1      42.036 -17.814   4.849  1.00  0.00    -0.265 OA
HETATM    7  N   UNL     1      41.141 -15.766   0.732  1.00  0.00    -0.344 N 
HETATM    8  C   UNL     1      40.359 -14.693   1.109  1.00  0.00     0.049 A 
HETATM    9  C   UNL     1      40.083 -14.442   2.403  1.00  0.00     0.086 A 
HETATM   10  C   UNL     1      40.644 -15.350   3.448  1.00  0.00     0.193 A 
HETATM   11  O   UNL     1      40.417 -15.132   4.631  1.00  0.00    -0.287 OA
HETATM   12  H   UNL     1      41.897 -18.380   0.723  1.00  0.00     0.155 HD
HETATM   13  H   UNL     1      41.342 -15.911  -0.250  1.00  0.00     0.167 HD
ENDROOT
BRANCH   8  14
HETATM   14  C   UNL     1      39.821 -13.815   0.048  1.00  0.00     0.012 A 
HETATM   15  C   UNL     1      38.444 -13.602  -0.152  1.00  0.00     0.046 A 
HETATM   16 CL   UNL     1      37.240 -14.341   0.850  1.00  0.00    -0.083 Cl
HETATM   17  C   UNL     1      37.995 -12.762  -1.177  1.00  0.00     0.025 A 
HETATM   18  C   UNL     1      38.907 -12.123  -2.015  1.00  0.00     0.002 A 
HETATM   19  C   UNL     1      40.273 -12.325  -1.831  1.00  0.00     0.001 A 
HETATM   20  C   UNL     1      40.726 -13.166  -0.812  1.00  0.00     0.015 A 
ENDBRANCH   8  14
BRANCH   1  21
HETATM   21  C   UNL     1      43.322 -19.628   2.702  1.00  0.00     0.055 A 
HETATM   22  C   UNL     1      43.189 -20.612   1.714  1.00  0.00     0.031 A 
HETATM   23  C   UNL     1      43.907 -21.810   1.789  1.00  0.00     0.002 A 
HETATM   24  C   UNL     1      44.769 -22.045   2.856  1.00  0.00     0.000 A 
HETATM   25  C   UNL     1      44.909 -21.084   3.852  1.00  0.00     0.002 A 
HETATM   26  C   UNL     1      44.190 -19.886   3.776  1.00  0.00     0.031 A 
ENDBRANCH   1  21
TORSDOF 2
ENDMDL
