MODEL 1
REMARK VINA RESULT:      -9.0      0.000      0.000
REMARK  3 active torsions:
REMARK  status: ('A' for Active; 'I' for Inactive)
REMARK    1  A    between atoms: C_6  and  N_7 
REMARK       I    between atoms: N_7  and  C_8 
REMARK    2  A    between atoms: C_8  and  C_9 
REMARK    3  A    between atoms: C_9  and  C_10 
ROOT
HETATM    1  C   UNL     1      43.424 -17.790   1.112  1.00  0.00     0.165 C 
ENDROOT
BRANCH   1   2
HETATM    2  C   UNL     1      42.084 -17.155   0.784  1.00  0.00     0.227 C 
HETATM    3  N   UNL     1      42.121 -15.978   0.073  1.00  0.00    -0.327 N 
HETATM    4  H   UNL     1      43.046 -15.558  -0.028  1.00  0.00     0.169 HD
HETATM    5  O   UNL     1      41.061 -17.749   1.121  1.00  0.00    -0.273 OA
BRANCH   3   6
HETATM    6  C   UNL     1      41.043 -15.239  -0.451  1.00  0.00     0.036 A 
HETATM    7  C   UNL     1      40.097 -14.572   0.328  1.00  0.00     0.053 A 
HETATM    8  C   UNL     1      39.045 -13.874  -0.278  1.00  0.00     0.042 A 
HETATM    9  C   UNL     1      38.918 -13.828  -1.675  1.00  0.00    -0.040 A 
HETATM   10 CL   UNL     1      37.904 -13.080   0.752  1.00  0.00    -0.084 Cl
HETATM   11  C   UNL     1      37.792 -13.097  -2.350  1.00  0.00     0.050 C 
HETATM   12  C   UNL     1      39.868 -14.504  -2.450  1.00  0.00     0.011 A 
HETATM   13  C   UNL     1      40.917 -15.201  -1.844  1.00  0.00     0.030 A 
ENDBRANCH   3   6
ENDBRANCH   1   2
BRANCH   1  14
HETATM   14  C   UNL     1      43.765 -18.245   2.518  1.00  0.00     0.074 A 
HETATM   15  N   UNL     1      43.812 -17.371   3.482  1.00  0.00    -0.175 NA
HETATM   16  N   UNL     1      44.120 -17.798   4.735  1.00  0.00    -0.243 N 
HETATM   17  C   UNL     1      44.398 -19.091   5.106  1.00  0.00     0.272 A 
HETATM   18  H   UNL     1      44.134 -17.101   5.473  1.00  0.00     0.192 HD
HETATM   19  O   UNL     1      44.671 -19.396   6.262  1.00  0.00    -0.266 OA
HETATM   20  C   UNL     1      44.354 -20.096   4.034  1.00  0.00     0.046 A 
HETATM   21  C   UNL     1      44.034 -19.692   2.739  1.00  0.00     0.006 A 
HETATM   22  C   UNL     1      44.626 -21.440   4.317  1.00  0.00     0.018 A 
HETATM   23  C   UNL     1      43.981 -20.648   1.717  1.00  0.00     0.014 A 
HETATM   24  C   UNL     1      44.253 -21.991   1.997  1.00  0.00     0.001 A 
HETATM   25  C   UNL     1      44.576 -22.386   3.295  1.00  0.00     0.001 A 
ENDBRANCH   1  14
TORSDOF 3
ENDMDL
MODEL 2
REMARK VINA RESULT:      -8.9      1.169      1.530
REMARK  3 active torsions:
REMARK  status: ('A' for Active; 'I' for Inactive)
REMARK    1  A    between atoms: C_6  and  N_7 
REMARK       I    between atoms: N_7  and  C_8 
REMARK    2  A    between atoms: C_8  and  C_9 
REMARK    3  A    between atoms: C_9  and  C_10 
ROOT
HETATM    1  C   UNL     1      43.599 -17.917   1.401  1.00  0.00     0.165 C 
ENDROOT
BRANCH   1   2
HETATM    2  C   UNL     1      42.276 -17.299   0.986  1.00  0.00     0.227 C 
HETATM    3  N   UNL     1      42.345 -16.157   0.224  1.00  0.00    -0.327 N 
HETATM    4  H   UNL     1      43.273 -15.740   0.145  1.00  0.00     0.169 HD
HETATM    5  O   UNL     1      41.238 -17.879   1.304  1.00  0.00    -0.273 OA
BRANCH   3   6
HETATM    6  C   UNL     1      41.290 -15.443  -0.380  1.00  0.00     0.036 A 
HETATM    7  C   UNL     1      40.929 -15.564  -1.721  1.00  0.00     0.053 A 
HETATM    8  C   UNL     1      39.876 -14.801  -2.243  1.00  0.00     0.042 A 
HETATM    9  C   UNL     1      39.164 -13.904  -1.433  1.00  0.00    -0.040 A 
HETATM   10 CL   UNL     1      39.492 -14.995  -3.919  1.00  0.00    -0.084 Cl
HETATM   11  C   UNL     1      38.039 -13.065  -1.971  1.00  0.00     0.050 C 
HETATM   12  C   UNL     1      39.534 -13.785  -0.088  1.00  0.00     0.011 A 
HETATM   13  C   UNL     1      40.586 -14.546   0.431  1.00  0.00     0.030 A 
ENDBRANCH   3   6
ENDBRANCH   1   2
BRANCH   1  14
HETATM   14  C   UNL     1      43.867 -18.331   2.836  1.00  0.00     0.074 A 
HETATM   15  N   UNL     1      43.855 -17.432   3.776  1.00  0.00    -0.175 NA
HETATM   16  N   UNL     1      44.098 -17.824   5.055  1.00  0.00    -0.243 N 
HETATM   17  C   UNL     1      44.367 -19.104   5.475  1.00  0.00     0.272 A 
HETATM   18  H   UNL     1      44.066 -17.107   5.775  1.00  0.00     0.192 HD
HETATM   19  O   UNL     1      44.579 -19.375   6.651  1.00  0.00    -0.266 OA
HETATM   20  C   UNL     1      44.388 -20.137   4.429  1.00  0.00     0.046 A 
HETATM   21  C   UNL     1      44.135 -19.770   3.109  1.00  0.00     0.006 A 
HETATM   22  C   UNL     1      44.657 -21.470   4.762  1.00  0.00     0.018 A 
HETATM   23  C   UNL     1      44.146 -20.753   2.111  1.00  0.00     0.014 A 
HETATM   24  C   UNL     1      44.414 -22.085   2.441  1.00  0.00     0.001 A 
HETATM   25  C   UNL     1      44.669 -22.443   3.765  1.00  0.00     0.001 A 
ENDBRANCH   1  14
TORSDOF 3
ENDMDL
MODEL 3
REMARK VINA RESULT:      -8.5      2.059      2.510
REMARK  3 active torsions:
REMARK  status: ('A' for Active; 'I' for Inactive)
REMARK    1  A    between atoms: C_6  and  N_7 
REMARK       I    between atoms: N_7  and  C_8 
REMARK    2  A    between atoms: C_8  and  C_9 
REMARK    3  A    between atoms: C_9  and  C_10 
ROOT
HETATM    1  C   UNL     1      41.515 -17.751   1.517  1.00  0.00     0.165 C 
ENDROOT
BRANCH   1   2
HETATM    2  C   UNL     1      40.972 -16.374   1.177  1.00  0.00     0.227 C 
HETATM    3  N   UNL     1      39.969 -15.894   1.985  1.00  0.00    -0.327 N 
HETATM    4  H   UNL     1      39.571 -16.571   2.637  1.00  0.00     0.169 HD
HETATM    5  O   UNL     1      41.492 -15.758   0.248  1.00  0.00    -0.273 OA
BRANCH   3   6
HETATM    6  C   UNL     1      39.364 -14.622   1.965  1.00  0.00     0.036 A 
HETATM    7  C   UNL     1      39.726 -13.567   2.803  1.00  0.00     0.053 A 
HETATM    8  C   UNL     1      39.057 -12.339   2.726  1.00  0.00     0.042 A 
HETATM    9  C   UNL     1      38.013 -12.141   1.809  1.00  0.00    -0.040 A 
HETATM   10 CL   UNL     1      39.552 -11.080   3.805  1.00  0.00    -0.084 Cl
HETATM   11  C   UNL     1      37.271 -10.838   1.715  1.00  0.00     0.050 C 
HETATM   12  C   UNL     1      37.652 -13.206   0.974  1.00  0.00     0.011 A 
HETATM   13  C   UNL     1      38.320 -14.431   1.053  1.00  0.00     0.030 A 
ENDBRANCH   3   6
ENDBRANCH   1   2
BRANCH   1  14
HETATM   14  C   UNL     1      42.482 -17.963   2.666  1.00  0.00     0.074 A 
HETATM   15  N   UNL     1      42.635 -17.027   3.557  1.00  0.00    -0.175 NA
HETATM   16  N   UNL     1      43.507 -17.236   4.579  1.00  0.00    -0.243 N 
HETATM   17  C   UNL     1      44.270 -18.361   4.778  1.00  0.00     0.272 A 
HETATM   18  H   UNL     1      43.597 -16.498   5.272  1.00  0.00     0.192 HD
HETATM   19  O   UNL     1      45.038 -18.471   5.727  1.00  0.00    -0.266 OA
HETATM   20  C   UNL     1      44.116 -19.431   3.782  1.00  0.00     0.046 A 
HETATM   21  C   UNL     1      43.225 -19.252   2.726  1.00  0.00     0.006 A 
HETATM   22  C   UNL     1      44.855 -20.615   3.901  1.00  0.00     0.018 A 
HETATM   23  C   UNL     1      43.068 -20.274   1.781  1.00  0.00     0.014 A 
HETATM   24  C   UNL     1      43.805 -21.456   1.897  1.00  0.00     0.001 A 
HETATM   25  C   UNL     1      44.699 -21.626   2.955  1.00  0.00     0.001 A 
ENDBRANCH   1  14
TORSDOF 3
ENDMDL
MODEL 4
REMARK VINA RESULT:      -8.5      1.868      2.300
REMARK  3 active torsions:
REMARK  status: ('A' for Active; 'I' for Inactive)
REMARK    1  A    between atoms: C_6  and  N_7 
REMARK       I    between atoms: N_7  and  C_8 
REMARK    2  A    between atoms: C_8  and  C_9 
REMARK    3  A    between atoms: C_9  and  C_10 
ROOT
HETATM    1  C   UNL     1      43.376 -17.857   1.254  1.00  0.00     0.165 C 
ENDROOT
BRANCH   1   2
HETATM    2  C   UNL     1      42.309 -16.809   0.999  1.00  0.00     0.227 C 
HETATM    3  N   UNL     1      41.754 -16.216   2.109  1.00  0.00    -0.327 N 
HETATM    4  H   UNL     1      41.993 -16.649   3.002  1.00  0.00     0.169 HD
HETATM    5  O   UNL     1      42.047 -16.517  -0.167  1.00  0.00    -0.273 OA
BRANCH   3   6
HETATM    6  C   UNL     1      40.832 -15.152   2.163  1.00  0.00     0.036 A 
HETATM    7  C   UNL     1      39.584 -15.162   1.539  1.00  0.00     0.053 A 
HETATM    8  C   UNL     1      38.736 -14.051   1.632  1.00  0.00     0.042 A 
HETATM    9  C   UNL     1      39.119 -12.908   2.351  1.00  0.00    -0.040 A 
HETATM   10 CL   UNL     1      37.209 -14.131   0.823  1.00  0.00    -0.084 Cl
HETATM   11  C   UNL     1      38.234 -11.699   2.455  1.00  0.00     0.050 C 
HETATM   12  C   UNL     1      40.374 -12.903   2.971  1.00  0.00     0.011 A 
HETATM   13  C   UNL     1      41.220 -14.013   2.877  1.00  0.00     0.030 A 
ENDBRANCH   3   6
ENDBRANCH   1   2
BRANCH   1  14
HETATM   14  C   UNL     1      43.745 -18.291   2.661  1.00  0.00     0.074 A 
HETATM   15  N   UNL     1      43.798 -17.405   3.612  1.00  0.00    -0.175 NA
HETATM   16  N   UNL     1      44.131 -17.814   4.865  1.00  0.00    -0.243 N 
HETATM   17  C   UNL     1      44.428 -19.099   5.248  1.00  0.00     0.272 A 
HETATM   18  H   UNL     1      44.150 -17.107   5.595  1.00  0.00     0.192 HD
HETATM   19  O   UNL     1      44.722 -19.387   6.402  1.00  0.00    -0.266 OA
HETATM   20  C   UNL     1      44.376 -20.118   4.189  1.00  0.00     0.046 A 
HETATM   21  C   UNL     1      44.031 -19.733   2.895  1.00  0.00     0.006 A 
HETATM   22  C   UNL     1      44.666 -21.455   4.484  1.00  0.00     0.018 A 
HETATM   23  C   UNL     1      43.971 -20.702   1.885  1.00  0.00     0.014 A 
HETATM   24  C   UNL     1      44.261 -22.038   2.177  1.00  0.00     0.001 A 
HETATM   25  C   UNL     1      44.609 -22.414   3.475  1.00  0.00     0.001 A 
ENDBRANCH   1  14
TORSDOF 3
ENDMDL
MODEL 5
REMARK VINA RESULT:      -8.4      3.306      8.515
REMARK  3 active torsions:
REMARK  status: ('A' for Active; 'I' for Inactive)
REMARK    1  A    between atoms: C_6  and  N_7 
REMARK       I    between atoms: N_7  and  C_8 
REMARK    2  A    between atoms: C_8  and  C_9 
REMARK    3  A    between atoms: C_9  and  C_10 
ROOT
HETATM    1  C   UNL     1      41.765 -14.512   1.455  1.00  0.00     0.165 C 
ENDROOT
BRANCH   1   2
HETATM    2  C   UNL     1      42.664 -15.480   2.205  1.00  0.00     0.227 C 
HETATM    3  N   UNL     1      42.277 -16.799   2.207  1.00  0.00    -0.327 N 
HETATM    4  H   UNL     1      41.340 -16.981   1.843  1.00  0.00     0.169 HD
HETATM    5  O   UNL     1      43.696 -15.042   2.711  1.00  0.00    -0.273 OA
BRANCH   3   6
HETATM    6  C   UNL     1      42.967 -17.912   2.726  1.00  0.00     0.036 A 
HETATM    7  C   UNL     1      43.219 -19.083   2.011  1.00  0.00     0.053 A 
HETATM    8  C   UNL     1      43.899 -20.149   2.614  1.00  0.00     0.042 A 
HETATM    9  C   UNL     1      44.342 -20.064   3.943  1.00  0.00    -0.040 A 
HETATM   10 CL   UNL     1      44.166 -21.574   1.669  1.00  0.00    -0.084 Cl
HETATM   11  C   UNL     1      45.063 -21.197   4.616  1.00  0.00     0.050 C 
HETATM   12  C   UNL     1      44.082 -18.888   4.656  1.00  0.00     0.011 A 
HETATM   13  C   UNL     1      43.402 -17.825   4.053  1.00  0.00     0.030 A 
ENDBRANCH   3   6
ENDBRANCH   1   2
BRANCH   1  14
HETATM   14  C   UNL     1      41.511 -14.655  -0.034  1.00  0.00     0.074 A 
HETATM   15  N   UNL     1      40.985 -15.753  -0.493  1.00  0.00    -0.175 NA
HETATM   16  N   UNL     1      40.765 -15.861  -1.830  1.00  0.00    -0.243 N 
HETATM   17  C   UNL     1      41.049 -14.909  -2.779  1.00  0.00     0.272 A 
HETATM   18  H   UNL     1      40.338 -16.721  -2.163  1.00  0.00     0.192 HD
HETATM   19  O   UNL     1      40.821 -15.085  -3.970  1.00  0.00    -0.266 OA
HETATM   20  C   UNL     1      41.646 -13.660  -2.284  1.00  0.00     0.046 A 
HETATM   21  C   UNL     1      41.877 -13.514  -0.918  1.00  0.00     0.006 A 
HETATM   22  C   UNL     1      41.972 -12.633  -3.178  1.00  0.00     0.018 A 
HETATM   23  C   UNL     1      42.437 -12.322  -0.441  1.00  0.00     0.014 A 
HETATM   24  C   UNL     1      42.763 -11.295  -1.332  1.00  0.00     0.001 A 
HETATM   25  C   UNL     1      42.532 -11.451  -2.699  1.00  0.00     0.001 A 
ENDBRANCH   1  14
TORSDOF 3
ENDMDL
MODEL 6
REMARK VINA RESULT:      -8.2      8.474     10.827
REMARK  3 active torsions:
REMARK  status: ('A' for Active; 'I' for Inactive)
REMARK    1  A    between atoms: C_6  and  N_7 
REMARK       I    between atoms: N_7  and  C_8 
REMARK    2  A    between atoms: C_8  and  C_9 
REMARK    3  A    between atoms: C_9  and  C_10 
ROOT
HETATM    1  C   UNL     1      44.888 -11.949   9.194  1.00  0.00     0.165 C 
ENDROOT
BRANCH   1   2
HETATM    2  C   UNL     1      45.087 -13.013   8.128  1.00  0.00     0.227 C 
HETATM    3  N   UNL     1      44.022 -13.850   7.892  1.00  0.00    -0.327 N 
HETATM    4  H   UNL     1      43.256 -13.784   8.563  1.00  0.00     0.169 HD
HETATM    5  O   UNL     1      46.152 -13.027   7.513  1.00  0.00    -0.273 OA
BRANCH   3   6
HETATM    6  C   UNL     1      43.894 -14.843   6.901  1.00  0.00     0.036 A 
HETATM    7  C   UNL     1      44.309 -16.166   7.057  1.00  0.00     0.053 A 
HETATM    8  C   UNL     1      44.159 -17.084   6.010  1.00  0.00     0.042 A 
HETATM    9  C   UNL     1      43.590 -16.698   4.787  1.00  0.00    -0.040 A 
HETATM   10 CL   UNL     1      44.706 -18.704   6.272  1.00  0.00    -0.084 Cl
HETATM   11  C   UNL     1      43.428 -17.660   3.644  1.00  0.00     0.050 C 
HETATM   12  C   UNL     1      43.179 -15.368   4.635  1.00  0.00     0.011 A 
HETATM   13  C   UNL     1      43.331 -14.452   5.681  1.00  0.00     0.030 A 
ENDBRANCH   3   6
ENDBRANCH   1   2
BRANCH   1  14
HETATM   14  C   UNL     1      43.641 -11.086   9.232  1.00  0.00     0.074 A 
HETATM   15  N   UNL     1      42.907 -10.971   8.163  1.00  0.00    -0.175 NA
HETATM   16  N   UNL     1      41.794 -10.192   8.218  1.00  0.00    -0.243 N 
HETATM   17  C   UNL     1      41.347  -9.490   9.311  1.00  0.00     0.272 A 
HETATM   18  H   UNL     1      41.227 -10.131   7.377  1.00  0.00     0.192 HD
HETATM   19  O   UNL     1      40.330  -8.807   9.279  1.00  0.00    -0.266 OA
HETATM   20  C   UNL     1      42.161  -9.604  10.530  1.00  0.00     0.046 A 
HETATM   21  C   UNL     1      43.305 -10.400  10.510  1.00  0.00     0.006 A 
HETATM   22  C   UNL     1      41.786  -8.921  11.694  1.00  0.00     0.018 A 
HETATM   23  C   UNL     1      44.078 -10.518  11.672  1.00  0.00     0.014 A 
HETATM   24  C   UNL     1      43.705  -9.837  12.835  1.00  0.00     0.001 A 
HETATM   25  C   UNL     1      42.561  -9.039  12.845  1.00  0.00     0.001 A 
ENDBRANCH   1  14
TORSDOF 3
ENDMDL
MODEL 7
REMARK VINA RESULT:      -8.0      3.379      8.015
REMARK  3 active torsions:
REMARK  status: ('A' for Active; 'I' for Inactive)
REMARK    1  A    between atoms: C_6  and  N_7 
REMARK       I    between atoms: N_7  and  C_8 
REMARK    2  A    between atoms: C_8  and  C_9 
REMARK    3  A    between atoms: C_9  and  C_10 
ROOT
HETATM    1  C   UNL     1      40.002 -14.865   0.913  1.00  0.00     0.165 C 
ENDROOT
BRANCH   1   2
HETATM    2  C   UNL     1      40.522 -16.121   1.590  1.00  0.00     0.227 C 
HETATM    3  N   UNL     1      41.888 -16.277   1.626  1.00  0.00    -0.327 N 
HETATM    4  H   UNL     1      42.418 -15.619   1.055  1.00  0.00     0.169 HD
HETATM    5  O   UNL     1      39.706 -16.884   2.106  1.00  0.00    -0.273 OA
BRANCH   3   6
HETATM    6  C   UNL     1      42.636 -17.280   2.274  1.00  0.00     0.036 A 
HETATM    7  C   UNL     1      42.855 -18.556   1.753  1.00  0.00     0.053 A 
HETATM    8  C   UNL     1      43.598 -19.498   2.475  1.00  0.00     0.042 A 
HETATM    9  C   UNL     1      44.138 -19.182   3.731  1.00  0.00    -0.040 A 
HETATM   10 CL   UNL     1      43.819 -21.063   1.772  1.00  0.00    -0.084 Cl
HETATM   11  C   UNL     1      44.929 -20.178   4.532  1.00  0.00     0.050 C 
HETATM   12  C   UNL     1      43.911 -17.902   4.250  1.00  0.00     0.011 A 
HETATM   13  C   UNL     1      43.168 -16.963   3.528  1.00  0.00     0.030 A 
ENDBRANCH   3   6
ENDBRANCH   1   2
BRANCH   1  14
HETATM   14  C   UNL     1      40.922 -13.708   0.570  1.00  0.00     0.074 A 
HETATM   15  N   UNL     1      41.339 -12.918   1.516  1.00  0.00    -0.175 NA
HETATM   16  N   UNL     1      42.162 -11.887   1.188  1.00  0.00    -0.243 N 
HETATM   17  C   UNL     1      42.613 -11.577  -0.073  1.00  0.00     0.272 A 
HETATM   18  H   UNL     1      42.489 -11.294   1.945  1.00  0.00     0.192 HD
HETATM   19  O   UNL     1      43.355 -10.625  -0.287  1.00  0.00    -0.266 OA
HETATM   20  C   UNL     1      42.153 -12.456  -1.158  1.00  0.00     0.046 A 
HETATM   21  C   UNL     1      41.314 -13.526  -0.855  1.00  0.00     0.006 A 
HETATM   22  C   UNL     1      42.558 -12.216  -2.477  1.00  0.00     0.018 A 
HETATM   23  C   UNL     1      40.881 -14.371  -1.885  1.00  0.00     0.014 A 
HETATM   24  C   UNL     1      41.284 -14.134  -3.202  1.00  0.00     0.001 A 
HETATM   25  C   UNL     1      42.121 -13.058  -3.498  1.00  0.00     0.001 A 
ENDBRANCH   1  14
TORSDOF 3
ENDMDL
MODEL 8
REMARK VINA RESULT:      -7.9      2.984      8.731
REMARK  3 active torsions:
REMARK  status: ('A' for Active; 'I' for Inactive)
REMARK    1  A    between atoms: C_6  and  N_7 
REMARK       I    between atoms: N_7  and  C_8 
REMARK    2  A    between atoms: C_8  and  C_9 
REMARK    3  A    between atoms: C_9  and  C_10 
ROOT
HETATM    1  C   UNL     1      41.636 -15.036   1.383  1.00  0.00     0.165 C 
ENDROOT
BRANCH   1   2
HETATM    2  C   UNL     1      41.816 -16.422   1.978  1.00  0.00     0.227 C 
HETATM    3  N   UNL     1      43.101 -16.909   2.021  1.00  0.00    -0.327 N 
HETATM    4  H   UNL     1      43.792 -16.364   1.504  1.00  0.00     0.169 HD
HETATM    5  O   UNL     1      40.824 -16.994   2.429  1.00  0.00    -0.273 OA
BRANCH   3   6
HETATM    6  C   UNL     1      43.564 -18.103   2.608  1.00  0.00     0.036 A 
HETATM    7  C   UNL     1      43.678 -19.317   1.931  1.00  0.00     0.053 A 
HETATM    8  C   UNL     1      44.132 -20.461   2.599  1.00  0.00     0.042 A 
HETATM    9  C   UNL     1      44.484 -20.413   3.957  1.00  0.00    -0.040 A 
HETATM   10 CL   UNL     1      44.236 -21.935   1.698  1.00  0.00    -0.084 Cl
HETATM   11  C   UNL     1      44.963 -21.628   4.700  1.00  0.00     0.050 C 
HETATM   12  C   UNL     1      44.364 -19.192   4.631  1.00  0.00     0.011 A 
HETATM   13  C   UNL     1      43.909 -18.051   3.963  1.00  0.00     0.030 A 
ENDBRANCH   3   6
ENDBRANCH   1   2
BRANCH   1  14
HETATM   14  C   UNL     1      40.739 -14.797   0.184  1.00  0.00     0.074 A 
HETATM   15  N   UNL     1      41.019 -15.368  -0.952  1.00  0.00    -0.175 NA
HETATM   16  N   UNL     1      40.202 -15.140  -2.014  1.00  0.00    -0.243 N 
HETATM   17  C   UNL     1      39.081 -14.346  -2.021  1.00  0.00     0.272 A 
HETATM   18  H   UNL     1      40.431 -15.610  -2.885  1.00  0.00     0.192 HD
HETATM   19  O   UNL     1      38.396 -14.190  -3.026  1.00  0.00    -0.266 OA
HETATM   20  C   UNL     1      38.746 -13.689  -0.749  1.00  0.00     0.046 A 
HETATM   21  C   UNL     1      39.558 -13.907   0.361  1.00  0.00     0.006 A 
HETATM   22  C   UNL     1      37.622 -12.858  -0.661  1.00  0.00     0.018 A 
HETATM   23  C   UNL     1      39.236 -13.290   1.577  1.00  0.00     0.014 A 
HETATM   24  C   UNL     1      38.115 -12.461   1.668  1.00  0.00     0.001 A 
HETATM   25  C   UNL     1      37.309 -12.244   0.550  1.00  0.00     0.001 A 
ENDBRANCH   1  14
TORSDOF 3
ENDMDL
MODEL 9
REMARK VINA RESULT:      -7.9      1.892      3.047
REMARK  3 active torsions:
REMARK  status: ('A' for Active; 'I' for Inactive)
REMARK    1  A    between atoms: C_6  and  N_7 
REMARK       I    between atoms: N_7  and  C_8 
REMARK    2  A    between atoms: C_8  and  C_9 
REMARK    3  A    between atoms: C_9  and  C_10 
ROOT
HETATM    1  C   UNL     1      43.870 -17.958   1.988  1.00  0.00     0.165 C 
ENDROOT
BRANCH   1   2
HETATM    2  C   UNL     1      42.456 -17.512   1.664  1.00  0.00     0.227 C 
HETATM    3  N   UNL     1      42.230 -16.155   1.644  1.00  0.00    -0.327 N 
HETATM    4  H   UNL     1      42.992 -15.580   2.007  1.00  0.00     0.169 HD
HETATM    5  O   UNL     1      41.622 -18.374   1.388  1.00  0.00    -0.273 OA
BRANCH   3   6
HETATM    6  C   UNL     1      41.057 -15.469   1.275  1.00  0.00     0.036 A 
HETATM    7  C   UNL     1      40.904 -14.759   0.084  1.00  0.00     0.053 A 
HETATM    8  C   UNL     1      39.705 -14.090  -0.194  1.00  0.00     0.042 A 
HETATM    9  C   UNL     1      38.635 -14.120   0.713  1.00  0.00    -0.040 A 
HETATM   10 CL   UNL     1      39.593 -13.221  -1.685  1.00  0.00    -0.084 Cl
HETATM   11  C   UNL     1      37.343 -13.401   0.445  1.00  0.00     0.050 C 
HETATM   12  C   UNL     1      38.796 -14.831   1.908  1.00  0.00     0.011 A 
HETATM   13  C   UNL     1      39.993 -15.497   2.184  1.00  0.00     0.030 A 
ENDBRANCH   3   6
ENDBRANCH   1   2
BRANCH   1  14
HETATM   14  C   UNL     1      44.144 -19.074   2.979  1.00  0.00     0.074 A 
HETATM   15  N   UNL     1      44.556 -20.230   2.547  1.00  0.00    -0.175 NA
HETATM   16  N   UNL     1      44.795 -21.216   3.452  1.00  0.00    -0.243 N 
HETATM   17  C   UNL     1      44.642 -21.123   4.814  1.00  0.00     0.272 A 
HETATM   18  H   UNL     1      45.132 -22.104   3.092  1.00  0.00     0.192 HD
HETATM   19  O   UNL     1      44.877 -22.063   5.564  1.00  0.00    -0.266 OA
HETATM   20  C   UNL     1      44.175 -19.826   5.325  1.00  0.00     0.046 A 
HETATM   21  C   UNL     1      43.928 -18.792   4.425  1.00  0.00     0.006 A 
HETATM   22  C   UNL     1      43.987 -19.638   6.700  1.00  0.00     0.018 A 
HETATM   23  C   UNL     1      43.492 -17.552   4.910  1.00  0.00     0.014 A 
HETATM   24  C   UNL     1      43.303 -17.362   6.282  1.00  0.00     0.001 A 
HETATM   25  C   UNL     1      43.550 -18.404   7.176  1.00  0.00     0.001 A 
ENDBRANCH   1  14
TORSDOF 3
ENDMDL
MODEL 10
REMARK VINA RESULT:      -7.9      3.156      8.561
REMARK  3 active torsions:
REMARK  status: ('A' for Active; 'I' for Inactive)
REMARK    1  A    between atoms: C_6  and  N_7 
REMARK       I    between atoms: N_7  and  C_8 
REMARK    2  A    between atoms: C_8  and  C_9 
REMARK    3  A    between atoms: C_9  and  C_10 
ROOT
HETATM    1  C   UNL     1      41.726 -15.351  -0.668  1.00  0.00     0.165 C 
ENDROOT
BRANCH   1   2
HETATM    2  C   UNL     1      41.806 -16.391   0.435  1.00  0.00     0.227 C 
HETATM    3  N   UNL     1      43.051 -16.914   0.696  1.00  0.00    -0.327 N 
HETATM    4  H   UNL     1      43.776 -16.675   0.019  1.00  0.00     0.169 HD
HETATM    5  O   UNL     1      40.778 -16.659   1.056  1.00  0.00    -0.273 OA
BRANCH   3   6
HETATM    6  C   UNL     1      43.428 -17.803   1.722  1.00  0.00     0.036 A 
HETATM    7  C   UNL     1      43.607 -19.175   1.544  1.00  0.00     0.053 A 
HETATM    8  C   UNL     1      43.966 -19.989   2.625  1.00  0.00     0.042 A 
HETATM    9  C   UNL     1      44.154 -19.447   3.906  1.00  0.00    -0.040 A 
HETATM   10 CL   UNL     1      44.160 -21.683   2.332  1.00  0.00    -0.084 Cl
HETATM   11  C   UNL     1      44.528 -20.300   5.086  1.00  0.00     0.050 C 
HETATM   12  C   UNL     1      43.969 -18.070   4.079  1.00  0.00     0.011 A 
HETATM   13  C   UNL     1      43.609 -17.259   2.998  1.00  0.00     0.030 A 
ENDBRANCH   3   6
ENDBRANCH   1   2
BRANCH   1  14
HETATM   14  C   UNL     1      40.478 -14.517  -0.886  1.00  0.00     0.074 A 
HETATM   15  N   UNL     1      40.180 -13.575  -0.039  1.00  0.00    -0.175 NA
HETATM   16  N   UNL     1      39.057 -12.839  -0.252  1.00  0.00    -0.243 N 
HETATM   17  C   UNL     1      38.174 -12.988  -1.293  1.00  0.00     0.272 A 
HETATM   18  H   UNL     1      38.854 -12.098   0.413  1.00  0.00     0.192 HD
HETATM   19  O   UNL     1      37.178 -12.283  -1.413  1.00  0.00    -0.266 OA
HETATM   20  C   UNL     1      38.489 -14.049  -2.262  1.00  0.00     0.046 A 
HETATM   21  C   UNL     1      39.636 -14.816  -2.077  1.00  0.00     0.006 A 
HETATM   22  C   UNL     1      37.644 -14.277  -3.355  1.00  0.00     0.018 A 
HETATM   23  C   UNL     1      39.945 -15.822  -3.003  1.00  0.00     0.014 A 
HETATM   24  C   UNL     1      39.103 -16.051  -4.095  1.00  0.00     0.001 A 
HETATM   25  C   UNL     1      37.953 -15.281  -4.270  1.00  0.00     0.001 A 
ENDBRANCH   1  14
TORSDOF 3
ENDMDL
