MODEL 1
REMARK VINA RESULT:     -10.1      0.000      0.000
REMARK  6 active torsions:
REMARK  status: ('A' for Active; 'I' for Inactive)
REMARK    1  A    between atoms: C_2  and  O_3 
REMARK    2  A    between atoms: C_2  and  C_10 
REMARK    3  A    between atoms: O_3  and  C_4 
REMARK       I    between atoms: C_10  and  N_11 
REMARK    4  A    between atoms: N_11  and  C_12 
REMARK    5  A    between atoms: N_13  and  C_14 
REMARK    6  A    between atoms: C_26  and  C_27 
ROOT
HETATM    1  C   UNL     1      44.154 -15.736   6.472  1.00  0.00     0.152 A 
HETATM    2  N   UNL     1      43.747 -14.744   5.591  1.00  0.00    -0.044 N 
HETATM    3  N   UNL     1      43.858 -13.492   6.123  1.00  0.00    -0.150 NA
HETATM    4  C   UNL     1      44.325 -13.702   7.361  1.00  0.00     0.099 A 
HETATM    5  C   UNL     1      44.521 -15.076   7.623  1.00  0.00     0.086 A 
ENDROOT
BRANCH   1   6
HETATM    6  N   UNL     1      44.130 -17.084   6.134  1.00  0.00    -0.309 N 
HETATM    7  C   UNL     1      43.357 -18.022   6.806  1.00  0.00     0.252 C 
HETATM    8  O   UNL     1      42.618 -17.753   7.752  1.00  0.00    -0.270 OA
HETATM    9  H   UNL     1      44.620 -17.342   5.278  1.00  0.00     0.170 HD
BRANCH   7  10
HETATM   10  C   UNL     1      43.533 -19.473   6.274  1.00  0.00     0.217 C 
HETATM   11  C   UNL     1      43.683 -20.477   7.418  1.00  0.00     0.050 C 
BRANCH  10  12
HETATM   12  O   UNL     1      44.716 -19.635   5.483  1.00  0.00    -0.337 OA
BRANCH  12  13
HETATM   13  C   UNL     1      44.553 -20.298   4.299  1.00  0.00     0.070 A 
HETATM   14  C   UNL     1      44.797 -21.671   4.323  1.00  0.00     0.037 A 
HETATM   15  C   UNL     1      44.603 -22.439   3.176  1.00  0.00     0.003 A 
HETATM   16  C   UNL     1      44.143 -21.836   2.006  1.00  0.00     0.000 A 
HETATM   17  C   UNL     1      43.873 -20.466   1.990  1.00  0.00     0.003 A 
HETATM   18  C   UNL     1      44.068 -19.697   3.139  1.00  0.00     0.037 A 
ENDBRANCH  12  13
ENDBRANCH  10  12
ENDBRANCH   7  10
ENDBRANCH   1   6
BRANCH   2  19
HETATM   19  C   UNL     1      43.214 -14.903   4.296  1.00  0.00     0.732 A 
HETATM   20  N   UNL     1      42.802 -16.042   3.830  1.00  0.00    -0.067 NA
HETATM   21  C   UNL     1      42.271 -16.017   2.558  1.00  0.00     0.065 A 
HETATM   22  C   UNL     1      42.163 -14.907   1.802  1.00  0.00     0.036 A 
HETATM   23  C   UNL     1      41.766 -17.350   2.050  1.00  0.00     0.060 C 
HETATM   24  C   UNL     1      41.579 -14.870   0.419  1.00  0.00     0.046 C 
HETATM   25  C   UNL     1      42.649 -13.626   2.370  1.00  0.00     0.268 A 
HETATM   26  C   UNL     1      41.395 -16.262  -0.189  1.00  0.00     0.005 C 
HETATM   27  C   UNL     1      40.837 -17.239   0.839  1.00  0.00     0.006 C 
HETATM   28  O   UNL     1      42.575 -12.566   1.761  1.00  0.00    -0.267 OA
HETATM   29  N   UNL     1      43.172 -13.717   3.620  1.00  0.00    -0.152 N 
HETATM   30  H   UNL     1      43.509 -12.875   4.077  1.00  0.00     0.188 HD
ENDBRANCH   2  19
BRANCH   4  31
HETATM   31  C   UNL     1      44.585 -12.568   8.310  1.00  0.00     0.035 A 
HETATM   32  S   UNL     1      43.380 -11.519   8.917  1.00  0.00    -0.100 SA
HETATM   33  C   UNL     1      44.520 -10.630   9.831  1.00  0.00     0.050 A 
HETATM   34  C   UNL     1      45.798 -11.120   9.678  1.00  0.00     0.008 A 
HETATM   35  C   UNL     1      45.835 -12.243   8.799  1.00  0.00     0.022 A 
ENDBRANCH   4  31
TORSDOF 6
ENDMDL
MODEL 2
REMARK VINA RESULT:      -9.4      2.989      7.793
REMARK  6 active torsions:
REMARK  status: ('A' for Active; 'I' for Inactive)
REMARK    1  A    between atoms: C_2  and  O_3 
REMARK    2  A    between atoms: C_2  and  C_10 
REMARK    3  A    between atoms: O_3  and  C_4 
REMARK       I    between atoms: C_10  and  N_11 
REMARK    4  A    between atoms: N_11  and  C_12 
REMARK    5  A    between atoms: N_13  and  C_14 
REMARK    6  A    between atoms: C_26  and  C_27 
ROOT
HETATM    1  C   UNL     1      43.905 -15.820   6.891  1.00  0.00     0.152 A 
HETATM    2  N   UNL     1      43.094 -15.879   5.767  1.00  0.00    -0.044 N 
HETATM    3  N   UNL     1      43.094 -17.113   5.183  1.00  0.00    -0.150 NA
HETATM    4  C   UNL     1      43.931 -17.834   5.941  1.00  0.00     0.099 A 
HETATM    5  C   UNL     1      44.459 -17.075   7.010  1.00  0.00     0.086 A 
ENDROOT
BRANCH   1   6
HETATM    6  N   UNL     1      44.049 -14.660   7.643  1.00  0.00    -0.309 N 
HETATM    7  C   UNL     1      44.945 -13.650   7.319  1.00  0.00     0.252 C 
HETATM    8  O   UNL     1      45.688 -13.679   6.339  1.00  0.00    -0.270 OA
HETATM    9  H   UNL     1      43.369 -14.522   8.391  1.00  0.00     0.170 HD
BRANCH   7  10
HETATM   10  C   UNL     1      44.956 -12.474   8.336  1.00  0.00     0.217 C 
HETATM   11  C   UNL     1      46.357 -11.881   8.496  1.00  0.00     0.050 C 
BRANCH  10  12
HETATM   12  O   UNL     1      44.572 -12.877   9.656  1.00  0.00    -0.337 OA
BRANCH  12  13
HETATM   13  C   UNL     1      43.857 -11.960  10.373  1.00  0.00     0.070 A 
HETATM   14  C   UNL     1      43.860 -12.124  11.758  1.00  0.00     0.037 A 
HETATM   15  C   UNL     1      43.204 -11.204  12.576  1.00  0.00     0.003 A 
HETATM   16  C   UNL     1      42.558 -10.107  12.007  1.00  0.00     0.000 A 
HETATM   17  C   UNL     1      42.577  -9.929  10.623  1.00  0.00     0.003 A 
HETATM   18  C   UNL     1      43.235 -10.850   9.804  1.00  0.00     0.037 A 
ENDBRANCH  12  13
ENDBRANCH  10  12
ENDBRANCH   7  10
ENDBRANCH   1   6
BRANCH   2  19
HETATM   19  C   UNL     1      42.355 -14.833   5.178  1.00  0.00     0.732 A 
HETATM   20  N   UNL     1      41.307 -14.303   5.729  1.00  0.00    -0.067 NA
HETATM   21  C   UNL     1      40.724 -13.261   5.039  1.00  0.00     0.065 A 
HETATM   22  C   UNL     1      41.175 -12.784   3.862  1.00  0.00     0.036 A 
HETATM   23  C   UNL     1      39.525 -12.637   5.718  1.00  0.00     0.060 C 
HETATM   24  C   UNL     1      40.549 -11.647   3.108  1.00  0.00     0.046 C 
HETATM   25  C   UNL     1      42.373 -13.421   3.263  1.00  0.00     0.268 A 
HETATM   26  C   UNL     1      39.165 -11.267   3.637  1.00  0.00     0.005 C 
HETATM   27  C   UNL     1      39.144 -11.263   5.161  1.00  0.00     0.006 C 
HETATM   28  O   UNL     1      42.860 -13.041   2.205  1.00  0.00    -0.267 OA
HETATM   29  N   UNL     1      42.894 -14.448   3.983  1.00  0.00    -0.152 N 
HETATM   30  H   UNL     1      43.726 -14.919   3.640  1.00  0.00     0.188 HD
ENDBRANCH   2  19
BRANCH   4  31
HETATM   31  C   UNL     1      44.231 -19.273   5.638  1.00  0.00     0.035 A 
HETATM   32  S   UNL     1      43.899 -20.575   6.695  1.00  0.00    -0.100 SA
HETATM   33  C   UNL     1      44.531 -21.719   5.592  1.00  0.00     0.050 A 
HETATM   34  C   UNL     1      44.989 -21.124   4.438  1.00  0.00     0.008 A 
HETATM   35  C   UNL     1      44.813 -19.709   4.463  1.00  0.00     0.022 A 
ENDBRANCH   4  31
TORSDOF 6
ENDMDL
MODEL 3
REMARK VINA RESULT:      -9.1      1.892      6.174
REMARK  6 active torsions:
REMARK  status: ('A' for Active; 'I' for Inactive)
REMARK    1  A    between atoms: C_2  and  O_3 
REMARK    2  A    between atoms: C_2  and  C_10 
REMARK    3  A    between atoms: O_3  and  C_4 
REMARK       I    between atoms: C_10  and  N_11 
REMARK    4  A    between atoms: N_11  and  C_12 
REMARK    5  A    between atoms: N_13  and  C_14 
REMARK    6  A    between atoms: C_26  and  C_27 
ROOT
HETATM    1  C   UNL     1      43.027 -15.279   5.365  1.00  0.00     0.152 A 
HETATM    2  N   UNL     1      43.838 -16.175   6.048  1.00  0.00    -0.044 N 
HETATM    3  N   UNL     1      44.625 -15.563   6.981  1.00  0.00    -0.150 NA
HETATM    4  C   UNL     1      44.317 -14.264   6.869  1.00  0.00     0.099 A 
HETATM    5  C   UNL     1      43.333 -14.040   5.880  1.00  0.00     0.086 A 
ENDROOT
BRANCH   1   6
HETATM    6  N   UNL     1      42.141 -15.687   4.374  1.00  0.00    -0.309 N 
HETATM    7  C   UNL     1      42.432 -15.616   3.018  1.00  0.00     0.252 C 
HETATM    8  O   UNL     1      43.496 -15.196   2.565  1.00  0.00    -0.270 OA
HETATM    9  H   UNL     1      41.298 -16.164   4.693  1.00  0.00     0.170 HD
BRANCH   7  10
HETATM   10  C   UNL     1      41.266 -16.088   2.103  1.00  0.00     0.217 C 
HETATM   11  C   UNL     1      41.401 -17.567   1.741  1.00  0.00     0.050 C 
BRANCH  10  12
HETATM   12  O   UNL     1      41.232 -15.401   0.848  1.00  0.00    -0.337 OA
BRANCH  12  13
HETATM   13  C   UNL     1      40.062 -14.760   0.552  1.00  0.00     0.070 A 
HETATM   14  C   UNL     1      39.973 -14.197  -0.721  1.00  0.00     0.037 A 
HETATM   15  C   UNL     1      38.796 -13.572  -1.132  1.00  0.00     0.003 A 
HETATM   16  C   UNL     1      37.697 -13.528  -0.274  1.00  0.00     0.000 A 
HETATM   17  C   UNL     1      37.777 -14.116   0.989  1.00  0.00     0.003 A 
HETATM   18  C   UNL     1      38.956 -14.741   1.401  1.00  0.00     0.037 A 
ENDBRANCH  12  13
ENDBRANCH  10  12
ENDBRANCH   7  10
ENDBRANCH   1   6
BRANCH   2  19
HETATM   19  C   UNL     1      43.954 -17.565   5.846  1.00  0.00     0.732 A 
HETATM   20  N   UNL     1      44.161 -18.100   4.683  1.00  0.00    -0.067 NA
HETATM   21  C   UNL     1      44.290 -19.473   4.664  1.00  0.00     0.065 A 
HETATM   22  C   UNL     1      44.213 -20.257   5.758  1.00  0.00     0.036 A 
HETATM   23  C   UNL     1      44.566 -20.070   3.302  1.00  0.00     0.060 C 
HETATM   24  C   UNL     1      44.359 -21.751   5.747  1.00  0.00     0.046 C 
HETATM   25  C   UNL     1      43.971 -19.606   7.068  1.00  0.00     0.268 A 
HETATM   26  C   UNL     1      44.297 -22.348   4.340  1.00  0.00     0.005 C 
HETATM   27  C   UNL     1      45.096 -21.505   3.352  1.00  0.00     0.006 C 
HETATM   28  O   UNL     1      43.903 -20.239   8.114  1.00  0.00    -0.267 OA
HETATM   29  N   UNL     1      43.840 -18.254   7.019  1.00  0.00    -0.152 N 
HETATM   30  H   UNL     1      43.689 -17.742   7.883  1.00  0.00     0.188 HD
ENDBRANCH   2  19
BRANCH   4  31
HETATM   31  C   UNL     1      44.975 -13.220   7.723  1.00  0.00     0.035 A 
HETATM   32  S   UNL     1      44.220 -12.425   9.034  1.00  0.00    -0.100 SA
HETATM   33  C   UNL     1      45.618 -11.494   9.362  1.00  0.00     0.050 A 
HETATM   34  C   UNL     1      46.643 -11.781   8.489  1.00  0.00     0.008 A 
HETATM   35  C   UNL     1      46.272 -12.781   7.542  1.00  0.00     0.022 A 
ENDBRANCH   4  31
TORSDOF 6
ENDMDL
MODEL 4
REMARK VINA RESULT:      -9.0      4.289      8.012
REMARK  6 active torsions:
REMARK  status: ('A' for Active; 'I' for Inactive)
REMARK    1  A    between atoms: C_2  and  O_3 
REMARK    2  A    between atoms: C_2  and  C_10 
REMARK    3  A    between atoms: O_3  and  C_4 
REMARK       I    between atoms: C_10  and  N_11 
REMARK    4  A    between atoms: N_11  and  C_12 
REMARK    5  A    between atoms: N_13  and  C_14 
REMARK    6  A    between atoms: C_26  and  C_27 
ROOT
HETATM    1  C   UNL     1      41.356 -16.134   2.492  1.00  0.00     0.152 A 
HETATM    2  N   UNL     1      41.843 -16.342   1.209  1.00  0.00    -0.044 N 
HETATM    3  N   UNL     1      42.608 -17.468   1.114  1.00  0.00    -0.150 NA
HETATM    4  C   UNL     1      42.617 -17.964   2.359  1.00  0.00     0.099 A 
HETATM    5  C   UNL     1      41.857 -17.171   3.247  1.00  0.00     0.086 A 
ENDROOT
BRANCH   1   6
HETATM    6  N   UNL     1      40.549 -15.049   2.813  1.00  0.00    -0.309 N 
HETATM    7  C   UNL     1      41.052 -13.832   3.256  1.00  0.00     0.252 C 
HETATM    8  O   UNL     1      42.250 -13.595   3.399  1.00  0.00    -0.270 OA
HETATM    9  H   UNL     1      39.558 -15.143   2.590  1.00  0.00     0.170 HD
BRANCH   7  10
HETATM   10  C   UNL     1      39.950 -12.788   3.595  1.00  0.00     0.217 C 
HETATM   11  C   UNL     1      39.568 -12.835   5.075  1.00  0.00     0.050 C 
BRANCH  10  12
HETATM   12  O   UNL     1      38.727 -13.021   2.889  1.00  0.00    -0.337 OA
BRANCH  12  13
HETATM   13  C   UNL     1      38.711 -12.627   1.581  1.00  0.00     0.070 A 
HETATM   14  C   UNL     1      38.209 -13.552   0.665  1.00  0.00     0.037 A 
HETATM   15  C   UNL     1      38.101 -13.217  -0.684  1.00  0.00     0.003 A 
HETATM   16  C   UNL     1      38.479 -11.947  -1.117  1.00  0.00     0.000 A 
HETATM   17  C   UNL     1      38.956 -11.012  -0.196  1.00  0.00     0.003 A 
HETATM   18  C   UNL     1      39.063 -11.347   1.155  1.00  0.00     0.037 A 
ENDBRANCH  12  13
ENDBRANCH  10  12
ENDBRANCH   7  10
ENDBRANCH   1   6
BRANCH   2  19
HETATM   19  C   UNL     1      41.672 -15.521   0.076  1.00  0.00     0.732 A 
HETATM   20  N   UNL     1      42.038 -14.276   0.036  1.00  0.00    -0.067 NA
HETATM   21  C   UNL     1      41.836 -13.626  -1.163  1.00  0.00     0.065 A 
HETATM   22  C   UNL     1      41.297 -14.200  -2.256  1.00  0.00     0.036 A 
HETATM   23  C   UNL     1      42.302 -12.187  -1.194  1.00  0.00     0.060 C 
HETATM   24  C   UNL     1      41.081 -13.500  -3.566  1.00  0.00     0.046 C 
HETATM   25  C   UNL     1      40.888 -15.623  -2.168  1.00  0.00     0.268 A 
HETATM   26  C   UNL     1      41.242 -11.982  -3.468  1.00  0.00     0.005 C 
HETATM   27  C   UNL     1      42.444 -11.614  -2.606  1.00  0.00     0.006 C 
HETATM   28  O   UNL     1      40.406 -16.228  -3.117  1.00  0.00    -0.267 OA
HETATM   29  N   UNL     1      41.100 -16.204  -0.959  1.00  0.00    -0.152 N 
HETATM   30  H   UNL     1      40.860 -17.183  -0.833  1.00  0.00     0.188 HD
ENDBRANCH   2  19
BRANCH   4  31
HETATM   31  C   UNL     1      43.366 -19.218   2.703  1.00  0.00     0.035 A 
HETATM   32  S   UNL     1      44.235 -19.457   4.156  1.00  0.00    -0.100 SA
HETATM   33  C   UNL     1      44.711 -21.033   3.691  1.00  0.00     0.050 A 
HETATM   34  C   UNL     1      44.220 -21.374   2.450  1.00  0.00     0.008 A 
HETATM   35  C   UNL     1      43.440 -20.324   1.880  1.00  0.00     0.022 A 
ENDBRANCH   4  31
TORSDOF 6
ENDMDL
MODEL 5
REMARK VINA RESULT:      -8.9      3.213      5.676
REMARK  6 active torsions:
REMARK  status: ('A' for Active; 'I' for Inactive)
REMARK    1  A    between atoms: C_2  and  O_3 
REMARK    2  A    between atoms: C_2  and  C_10 
REMARK    3  A    between atoms: O_3  and  C_4 
REMARK       I    between atoms: C_10  and  N_11 
REMARK    4  A    between atoms: N_11  and  C_12 
REMARK    5  A    between atoms: N_13  and  C_14 
REMARK    6  A    between atoms: C_26  and  C_27 
ROOT
HETATM    1  C   UNL     1      40.445 -12.918   4.093  1.00  0.00     0.152 A 
HETATM    2  N   UNL     1      41.030 -13.212   5.316  1.00  0.00    -0.044 N 
HETATM    3  N   UNL     1      40.766 -12.266   6.265  1.00  0.00    -0.150 NA
HETATM    4  C   UNL     1      40.019 -11.358   5.623  1.00  0.00     0.099 A 
HETATM    5  C   UNL     1      39.796 -11.717   4.275  1.00  0.00     0.086 A 
ENDROOT
BRANCH   1   6
HETATM    6  N   UNL     1      40.580 -13.749   2.987  1.00  0.00    -0.309 N 
HETATM    7  C   UNL     1      41.607 -13.620   2.060  1.00  0.00     0.252 C 
HETATM    8  O   UNL     1      42.493 -12.770   2.131  1.00  0.00    -0.270 OA
HETATM    9  H   UNL     1      39.952 -14.552   2.947  1.00  0.00     0.170 HD
BRANCH   7  10
HETATM   10  C   UNL     1      41.520 -14.636   0.886  1.00  0.00     0.217 C 
HETATM   11  C   UNL     1      40.494 -14.200  -0.160  1.00  0.00     0.050 C 
BRANCH  10  12
HETATM   12  O   UNL     1      41.091 -15.936   1.306  1.00  0.00    -0.337 OA
BRANCH  12  13
HETATM   13  C   UNL     1      42.084 -16.846   1.534  1.00  0.00     0.070 A 
HETATM   14  C   UNL     1      41.685 -18.178   1.646  1.00  0.00     0.037 A 
HETATM   15  C   UNL     1      42.635 -19.183   1.822  1.00  0.00     0.003 A 
HETATM   16  C   UNL     1      43.990 -18.858   1.866  1.00  0.00     0.000 A 
HETATM   17  C   UNL     1      44.391 -17.529   1.726  1.00  0.00     0.003 A 
HETATM   18  C   UNL     1      43.440 -16.522   1.550  1.00  0.00     0.037 A 
ENDBRANCH  12  13
ENDBRANCH  10  12
ENDBRANCH   7  10
ENDBRANCH   1   6
BRANCH   2  19
HETATM   19  C   UNL     1      41.863 -14.302   5.637  1.00  0.00     0.732 A 
HETATM   20  N   UNL     1      41.561 -15.534   5.364  1.00  0.00    -0.067 NA
HETATM   21  C   UNL     1      42.505 -16.478   5.709  1.00  0.00     0.065 A 
HETATM   22  C   UNL     1      43.684 -16.192   6.296  1.00  0.00     0.036 A 
HETATM   23  C   UNL     1      42.146 -17.902   5.349  1.00  0.00     0.060 C 
HETATM   24  C   UNL     1      44.719 -17.213   6.669  1.00  0.00     0.046 C 
HETATM   25  C   UNL     1      43.989 -14.772   6.596  1.00  0.00     0.268 A 
HETATM   26  C   UNL     1      44.194 -18.649   6.607  1.00  0.00     0.005 C 
HETATM   27  C   UNL     1      43.336 -18.864   5.366  1.00  0.00     0.006 C 
HETATM   28  O   UNL     1      45.042 -14.421   7.113  1.00  0.00    -0.267 OA
HETATM   29  N   UNL     1      43.016 -13.892   6.244  1.00  0.00    -0.152 N 
HETATM   30  H   UNL     1      43.166 -12.901   6.405  1.00  0.00     0.188 HD
ENDBRANCH   2  19
BRANCH   4  31
HETATM   31  C   UNL     1      39.511 -10.124   6.311  1.00  0.00     0.035 A 
HETATM   32  S   UNL     1      39.501  -9.896   8.005  1.00  0.00    -0.100 SA
HETATM   33  C   UNL     1      38.804  -8.341   7.859  1.00  0.00     0.050 A 
HETATM   34  C   UNL     1      38.580  -7.998   6.544  1.00  0.00     0.008 A 
HETATM   35  C   UNL     1      38.992  -9.029   5.648  1.00  0.00     0.022 A 
ENDBRANCH   4  31
TORSDOF 6
ENDMDL
MODEL 6
REMARK VINA RESULT:      -8.8      2.773      7.929
REMARK  6 active torsions:
REMARK  status: ('A' for Active; 'I' for Inactive)
REMARK    1  A    between atoms: C_2  and  O_3 
REMARK    2  A    between atoms: C_2  and  C_10 
REMARK    3  A    between atoms: O_3  and  C_4 
REMARK       I    between atoms: C_10  and  N_11 
REMARK    4  A    between atoms: N_11  and  C_12 
REMARK    5  A    between atoms: N_13  and  C_14 
REMARK    6  A    between atoms: C_26  and  C_27 
ROOT
HETATM    1  C   UNL     1      41.753 -15.073   3.891  1.00  0.00     0.152 A 
HETATM    2  N   UNL     1      41.816 -16.222   3.116  1.00  0.00    -0.044 N 
HETATM    3  N   UNL     1      41.025 -16.149   2.005  1.00  0.00    -0.150 NA
HETATM    4  C   UNL     1      40.445 -14.944   2.094  1.00  0.00     0.099 A 
HETATM    5  C   UNL     1      40.864 -14.243   3.247  1.00  0.00     0.086 A 
ENDROOT
BRANCH   1   6
HETATM    6  N   UNL     1      42.484 -14.930   5.065  1.00  0.00    -0.309 N 
HETATM    7  C   UNL     1      43.672 -14.213   5.139  1.00  0.00     0.252 C 
HETATM    8  O   UNL     1      44.185 -13.633   4.183  1.00  0.00    -0.270 OA
HETATM    9  H   UNL     1      42.041 -15.277   5.916  1.00  0.00     0.170 HD
BRANCH   7  10
HETATM   10  C   UNL     1      44.328 -14.234   6.549  1.00  0.00     0.217 C 
HETATM   11  C   UNL     1      44.278 -15.631   7.171  1.00  0.00     0.050 C 
BRANCH  10  12
HETATM   12  O   UNL     1      43.656 -13.387   7.487  1.00  0.00    -0.337 OA
BRANCH  12  13
HETATM   13  C   UNL     1      44.453 -12.530   8.192  1.00  0.00     0.070 A 
HETATM   14  C   UNL     1      43.814 -11.737   9.145  1.00  0.00     0.037 A 
HETATM   15  C   UNL     1      44.554 -10.873   9.951  1.00  0.00     0.003 A 
HETATM   16  C   UNL     1      45.941 -10.816   9.816  1.00  0.00     0.000 A 
HETATM   17  C   UNL     1      46.584 -11.629   8.881  1.00  0.00     0.003 A 
HETATM   18  C   UNL     1      45.842 -12.494   8.074  1.00  0.00     0.037 A 
ENDBRANCH  12  13
ENDBRANCH  10  12
ENDBRANCH   7  10
ENDBRANCH   1   6
BRANCH   2  19
HETATM   19  C   UNL     1      42.536 -17.405   3.378  1.00  0.00     0.732 A 
HETATM   20  N   UNL     1      42.808 -17.823   4.576  1.00  0.00    -0.067 NA
HETATM   21  C   UNL     1      43.486 -19.020   4.659  1.00  0.00     0.065 A 
HETATM   22  C   UNL     1      43.866 -19.751   3.593  1.00  0.00     0.036 A 
HETATM   23  C   UNL     1      43.760 -19.503   6.066  1.00  0.00     0.060 C 
HETATM   24  C   UNL     1      44.599 -21.059   3.674  1.00  0.00     0.046 C 
HETATM   25  C   UNL     1      43.541 -19.237   2.241  1.00  0.00     0.268 A 
HETATM   26  C   UNL     1      45.154 -21.347   5.071  1.00  0.00     0.005 C 
HETATM   27  C   UNL     1      44.140 -20.983   6.149  1.00  0.00     0.006 C 
HETATM   28  O   UNL     1      43.834 -19.844   1.218  1.00  0.00    -0.267 OA
HETATM   29  N   UNL     1      42.884 -18.048   2.225  1.00  0.00    -0.152 N 
HETATM   30  H   UNL     1      42.613 -17.645   1.332  1.00  0.00     0.188 HD
ENDBRANCH   2  19
BRANCH   4  31
HETATM   31  C   UNL     1      39.472 -14.458   1.060  1.00  0.00     0.035 A 
HETATM   32  S   UNL     1      39.904 -13.978  -0.523  1.00  0.00    -0.100 SA
HETATM   33  C   UNL     1      38.282 -13.613  -0.926  1.00  0.00     0.050 A 
HETATM   34  C   UNL     1      37.424 -13.849   0.125  1.00  0.00     0.008 A 
HETATM   35  C   UNL     1      38.113 -14.340   1.274  1.00  0.00     0.022 A 
ENDBRANCH   4  31
TORSDOF 6
ENDMDL
MODEL 7
REMARK VINA RESULT:      -8.6      2.809      3.837
REMARK  6 active torsions:
REMARK  status: ('A' for Active; 'I' for Inactive)
REMARK    1  A    between atoms: C_2  and  O_3 
REMARK    2  A    between atoms: C_2  and  C_10 
REMARK    3  A    between atoms: O_3  and  C_4 
REMARK       I    between atoms: C_10  and  N_11 
REMARK    4  A    between atoms: N_11  and  C_12 
REMARK    5  A    between atoms: N_13  and  C_14 
REMARK    6  A    between atoms: C_26  and  C_27 
ROOT
HETATM    1  C   UNL     1      42.600 -13.766   3.835  1.00  0.00     0.152 A 
HETATM    2  N   UNL     1      42.056 -12.842   2.954  1.00  0.00    -0.044 N 
HETATM    3  N   UNL     1      41.513 -11.764   3.593  1.00  0.00    -0.150 NA
HETATM    4  C   UNL     1      41.703 -12.024   4.894  1.00  0.00     0.099 A 
HETATM    5  C   UNL     1      42.370 -13.254   5.093  1.00  0.00     0.086 A 
ENDROOT
BRANCH   1   6
HETATM    6  N   UNL     1      43.210 -14.936   3.399  1.00  0.00    -0.309 N 
HETATM    7  C   UNL     1      42.567 -16.167   3.381  1.00  0.00     0.252 C 
HETATM    8  O   UNL     1      41.403 -16.339   3.737  1.00  0.00    -0.270 OA
HETATM    9  H   UNL     1      44.130 -14.831   2.971  1.00  0.00     0.170 HD
BRANCH   7  10
HETATM   10  C   UNL     1      43.470 -17.336   2.895  1.00  0.00     0.217 C 
HETATM   11  C   UNL     1      44.186 -16.988   1.589  1.00  0.00     0.050 C 
BRANCH  10  12
HETATM   12  O   UNL     1      42.730 -18.527   2.605  1.00  0.00    -0.337 OA
BRANCH  12  13
HETATM   13  C   UNL     1      43.383 -19.705   2.837  1.00  0.00     0.070 A 
HETATM   14  C   UNL     1      43.307 -20.661   1.825  1.00  0.00     0.037 A 
HETATM   15  C   UNL     1      43.989 -21.871   1.948  1.00  0.00     0.003 A 
HETATM   16  C   UNL     1      44.766 -22.118   3.079  1.00  0.00     0.000 A 
HETATM   17  C   UNL     1      44.864 -21.150   4.080  1.00  0.00     0.003 A 
HETATM   18  C   UNL     1      44.181 -19.938   3.956  1.00  0.00     0.037 A 
ENDBRANCH  12  13
ENDBRANCH  10  12
ENDBRANCH   7  10
ENDBRANCH   1   6
BRANCH   2  19
HETATM   19  C   UNL     1      41.971 -12.931   1.550  1.00  0.00     0.732 A 
HETATM   20  N   UNL     1      41.619 -14.012   0.925  1.00  0.00    -0.067 NA
HETATM   21  C   UNL     1      41.548 -13.919  -0.449  1.00  0.00     0.065 A 
HETATM   22  C   UNL     1      41.817 -12.799  -1.148  1.00  0.00     0.036 A 
HETATM   23  C   UNL     1      41.103 -15.181  -1.152  1.00  0.00     0.060 C 
HETATM   24  C   UNL     1      41.736 -12.687  -2.643  1.00  0.00     0.046 C 
HETATM   25  C   UNL     1      42.220 -11.586  -0.396  1.00  0.00     0.268 A 
HETATM   26  C   UNL     1      41.618 -14.045  -3.338  1.00  0.00     0.005 C 
HETATM   27  C   UNL     1      40.648 -14.957  -2.596  1.00  0.00     0.006 C 
HETATM   28  O   UNL     1      42.467 -10.521  -0.949  1.00  0.00    -0.267 OA
HETATM   29  N   UNL     1      42.284 -11.744   0.952  1.00  0.00    -0.152 N 
HETATM   30  H   UNL     1      42.537 -10.948   1.531  1.00  0.00     0.188 HD
ENDBRANCH   2  19
BRANCH   4  31
HETATM   31  C   UNL     1      41.237 -11.081   5.964  1.00  0.00     0.035 A 
HETATM   32  S   UNL     1      39.954  -9.966   5.780  1.00  0.00    -0.100 SA
HETATM   33  C   UNL     1      40.143  -9.382   7.377  1.00  0.00     0.050 A 
HETATM   34  C   UNL     1      41.166 -10.021   8.041  1.00  0.00     0.008 A 
HETATM   35  C   UNL     1      41.798 -11.006   7.224  1.00  0.00     0.022 A 
ENDBRANCH   4  31
TORSDOF 6
ENDMDL
MODEL 8
REMARK VINA RESULT:      -8.6      2.436      7.793
REMARK  6 active torsions:
REMARK  status: ('A' for Active; 'I' for Inactive)
REMARK    1  A    between atoms: C_2  and  O_3 
REMARK    2  A    between atoms: C_2  and  C_10 
REMARK    3  A    between atoms: O_3  and  C_4 
REMARK       I    between atoms: C_10  and  N_11 
REMARK    4  A    between atoms: N_11  and  C_12 
REMARK    5  A    between atoms: N_13  and  C_14 
REMARK    6  A    between atoms: C_26  and  C_27 
ROOT
HETATM    1  C   UNL     1      42.185 -15.491   3.519  1.00  0.00     0.152 A 
HETATM    2  N   UNL     1      42.295 -16.612   2.708  1.00  0.00    -0.044 N 
HETATM    3  N   UNL     1      41.654 -16.460   1.513  1.00  0.00    -0.150 NA
HETATM    4  C   UNL     1      41.119 -15.233   1.581  1.00  0.00     0.099 A 
HETATM    5  C   UNL     1      41.420 -14.596   2.806  1.00  0.00     0.086 A 
ENDROOT
BRANCH   1   6
HETATM    6  N   UNL     1      42.768 -15.427   4.779  1.00  0.00    -0.309 N 
HETATM    7  C   UNL     1      43.716 -14.474   5.130  1.00  0.00     0.252 C 
HETATM    8  O   UNL     1      44.123 -13.597   4.371  1.00  0.00    -0.270 OA
HETATM    9  H   UNL     1      42.375 -16.045   5.489  1.00  0.00     0.170 HD
BRANCH   7  10
HETATM   10  C   UNL     1      44.255 -14.634   6.581  1.00  0.00     0.217 C 
HETATM   11  C   UNL     1      43.838 -15.973   7.190  1.00  0.00     0.050 C 
BRANCH  10  12
HETATM   12  O   UNL     1      43.740 -13.644   7.477  1.00  0.00    -0.337 OA
BRANCH  12  13
HETATM   13  C   UNL     1      44.671 -12.846   8.080  1.00  0.00     0.070 A 
HETATM   14  C   UNL     1      45.945 -12.849   7.513  1.00  0.00     0.037 A 
HETATM   15  C   UNL     1      46.945 -12.024   8.027  1.00  0.00     0.003 A 
HETATM   16  C   UNL     1      46.664 -11.177   9.098  1.00  0.00     0.000 A 
HETATM   17  C   UNL     1      45.381 -11.154   9.648  1.00  0.00     0.003 A 
HETATM   18  C   UNL     1      44.380 -11.981   9.134  1.00  0.00     0.037 A 
ENDBRANCH  12  13
ENDBRANCH  10  12
ENDBRANCH   7  10
ENDBRANCH   1   6
BRANCH   2  19
HETATM   19  C   UNL     1      42.926 -17.837   3.007  1.00  0.00     0.732 A 
HETATM   20  N   UNL     1      42.843 -18.885   2.247  1.00  0.00    -0.067 NA
HETATM   21  C   UNL     1      43.552 -19.991   2.663  1.00  0.00     0.065 A 
HETATM   22  C   UNL     1      44.301 -20.034   3.782  1.00  0.00     0.036 A 
HETATM   23  C   UNL     1      43.467 -21.188   1.743  1.00  0.00     0.060 C 
HETATM   24  C   UNL     1      45.082 -21.232   4.240  1.00  0.00     0.046 C 
HETATM   25  C   UNL     1      44.367 -18.816   4.627  1.00  0.00     0.268 A 
HETATM   26  C   UNL     1      44.711 -22.511   3.486  1.00  0.00     0.005 C 
HETATM   27  C   UNL     1      44.550 -22.240   1.995  1.00  0.00     0.006 C 
HETATM   28  O   UNL     1      45.036 -18.762   5.651  1.00  0.00    -0.267 OA
HETATM   29  N   UNL     1      43.637 -17.765   4.170  1.00  0.00    -0.152 N 
HETATM   30  H   UNL     1      43.650 -16.893   4.690  1.00  0.00     0.188 HD
ENDBRANCH   2  19
BRANCH   4  31
HETATM   31  C   UNL     1      40.306 -14.662   0.457  1.00  0.00     0.035 A 
HETATM   32  S   UNL     1      38.741 -13.997   0.635  1.00  0.00    -0.100 SA
HETATM   33  C   UNL     1      38.629 -13.642  -1.034  1.00  0.00     0.050 A 
HETATM   34  C   UNL     1      39.761 -14.024  -1.720  1.00  0.00     0.008 A 
HETATM   35  C   UNL     1      40.732 -14.612  -0.856  1.00  0.00     0.022 A 
ENDBRANCH   4  31
TORSDOF 6
ENDMDL
MODEL 9
REMARK VINA RESULT:      -8.5      2.787      5.588
REMARK  6 active torsions:
REMARK  status: ('A' for Active; 'I' for Inactive)
REMARK    1  A    between atoms: C_2  and  O_3 
REMARK    2  A    between atoms: C_2  and  C_10 
REMARK    3  A    between atoms: O_3  and  C_4 
REMARK       I    between atoms: C_10  and  N_11 
REMARK    4  A    between atoms: N_11  and  C_12 
REMARK    5  A    between atoms: N_13  and  C_14 
REMARK    6  A    between atoms: C_26  and  C_27 
ROOT
HETATM    1  C   UNL     1      41.044 -12.665   4.237  1.00  0.00     0.152 A 
HETATM    2  N   UNL     1      41.563 -13.115   5.442  1.00  0.00    -0.044 N 
HETATM    3  N   UNL     1      41.703 -12.115   6.360  1.00  0.00    -0.150 NA
HETATM    4  C   UNL     1      41.283 -11.017   5.715  1.00  0.00     0.099 A 
HETATM    5  C   UNL     1      40.867 -11.309   4.397  1.00  0.00     0.086 A 
ENDROOT
BRANCH   1   6
HETATM    6  N   UNL     1      40.813 -13.517   3.163  1.00  0.00    -0.309 N 
HETATM    7  C   UNL     1      41.748 -13.749   2.162  1.00  0.00     0.252 C 
HETATM    8  O   UNL     1      42.864 -13.234   2.132  1.00  0.00    -0.270 OA
HETATM    9  H   UNL     1      39.958 -14.071   3.204  1.00  0.00     0.170 HD
BRANCH   7  10
HETATM   10  C   UNL     1      41.242 -14.705   1.044  1.00  0.00     0.217 C 
HETATM   11  C   UNL     1      40.021 -14.131   0.325  1.00  0.00     0.050 C 
BRANCH  10  12
HETATM   12  O   UNL     1      40.811 -15.973   1.551  1.00  0.00    -0.337 OA
BRANCH  12  13
HETATM   13  C   UNL     1      41.801 -16.878   1.810  1.00  0.00     0.070 A 
HETATM   14  C   UNL     1      42.800 -16.992   0.843  1.00  0.00     0.037 A 
HETATM   15  C   UNL     1      43.881 -17.848   1.046  1.00  0.00     0.003 A 
HETATM   16  C   UNL     1      43.974 -18.580   2.230  1.00  0.00     0.000 A 
HETATM   17  C   UNL     1      42.988 -18.446   3.209  1.00  0.00     0.003 A 
HETATM   18  C   UNL     1      41.906 -17.587   3.005  1.00  0.00     0.037 A 
ENDBRANCH  12  13
ENDBRANCH  10  12
ENDBRANCH   7  10
ENDBRANCH   1   6
BRANCH   2  19
HETATM   19  C   UNL     1      41.980 -14.421   5.770  1.00  0.00     0.732 A 
HETATM   20  N   UNL     1      43.220 -14.803   5.734  1.00  0.00    -0.067 NA
HETATM   21  C   UNL     1      43.463 -16.103   6.123  1.00  0.00     0.065 A 
HETATM   22  C   UNL     1      42.508 -16.965   6.525  1.00  0.00     0.036 A 
HETATM   23  C   UNL     1      44.918 -16.513   6.106  1.00  0.00     0.060 C 
HETATM   24  C   UNL     1      42.765 -18.380   6.956  1.00  0.00     0.046 C 
HETATM   25  C   UNL     1      41.103 -16.491   6.547  1.00  0.00     0.268 A 
HETATM   26  C   UNL     1      44.174 -18.865   6.609  1.00  0.00     0.005 C 
HETATM   27  C   UNL     1      45.211 -17.787   6.903  1.00  0.00     0.006 C 
HETATM   28  O   UNL     1      40.176 -17.202   6.913  1.00  0.00    -0.267 OA
HETATM   29  N   UNL     1      40.927 -15.207   6.141  1.00  0.00    -0.152 N 
HETATM   30  H   UNL     1      39.992 -14.811   6.148  1.00  0.00     0.188 HD
ENDBRANCH   2  19
BRANCH   4  31
HETATM   31  C   UNL     1      41.282  -9.668   6.372  1.00  0.00     0.035 A 
HETATM   32  S   UNL     1      41.505  -8.189   5.544  1.00  0.00    -0.100 SA
HETATM   33  C   UNL     1      41.362  -7.282   6.988  1.00  0.00     0.050 A 
HETATM   34  C   UNL     1      41.150  -8.089   8.084  1.00  0.00     0.008 A 
HETATM   35  C   UNL     1      41.101  -9.469   7.727  1.00  0.00     0.022 A 
ENDBRANCH   4  31
TORSDOF 6
ENDMDL
MODEL 10
REMARK VINA RESULT:      -8.4      3.578      7.967
REMARK  6 active torsions:
REMARK  status: ('A' for Active; 'I' for Inactive)
REMARK    1  A    between atoms: C_2  and  O_3 
REMARK    2  A    between atoms: C_2  and  C_10 
REMARK    3  A    between atoms: O_3  and  C_4 
REMARK       I    between atoms: C_10  and  N_11 
REMARK    4  A    between atoms: N_11  and  C_12 
REMARK    5  A    between atoms: N_13  and  C_14 
REMARK    6  A    between atoms: C_26  and  C_27 
ROOT
HETATM    1  C   UNL     1      42.089 -16.051   3.080  1.00  0.00     0.152 A 
HETATM    2  N   UNL     1      41.705 -16.475   1.816  1.00  0.00    -0.044 N 
HETATM    3  N   UNL     1      42.138 -17.738   1.532  1.00  0.00    -0.150 NA
HETATM    4  C   UNL     1      42.817 -18.106   2.627  1.00  0.00     0.099 A 
HETATM    5  C   UNL     1      42.816 -17.092   3.612  1.00  0.00     0.086 A 
ENDROOT
BRANCH   1   6
HETATM    6  N   UNL     1      41.750 -14.798   3.577  1.00  0.00    -0.309 N 
HETATM    7  C   UNL     1      42.622 -13.716   3.568  1.00  0.00     0.252 C 
HETATM    8  O   UNL     1      43.765 -13.758   3.118  1.00  0.00    -0.270 OA
HETATM    9  H   UNL     1      40.774 -14.667   3.843  1.00  0.00     0.170 HD
BRANCH   7  10
HETATM   10  C   UNL     1      42.031 -12.433   4.220  1.00  0.00     0.217 C 
HETATM   11  C   UNL     1      41.929 -12.571   5.740  1.00  0.00     0.050 C 
BRANCH  10  12
HETATM   12  O   UNL     1      40.697 -12.152   3.783  1.00  0.00    -0.337 OA
BRANCH  12  13
HETATM   13  C   UNL     1      40.585 -11.283   2.735  1.00  0.00     0.070 A 
HETATM   14  C   UNL     1      41.364 -11.568   1.613  1.00  0.00     0.037 A 
HETATM   15  C   UNL     1      41.273 -10.770   0.474  1.00  0.00     0.003 A 
HETATM   16  C   UNL     1      40.386  -9.694   0.448  1.00  0.00     0.000 A 
HETATM   17  C   UNL     1      39.587  -9.425   1.561  1.00  0.00     0.003 A 
HETATM   18  C   UNL     1      39.678 -10.225   2.702  1.00  0.00     0.037 A 
ENDBRANCH  12  13
ENDBRANCH  10  12
ENDBRANCH   7  10
ENDBRANCH   1   6
BRANCH   2  19
HETATM   19  C   UNL     1      40.998 -15.748   0.837  1.00  0.00     0.732 A 
HETATM   20  N   UNL     1      40.021 -14.941   1.116  1.00  0.00    -0.067 NA
HETATM   21  C   UNL     1      39.462 -14.277   0.045  1.00  0.00     0.065 A 
HETATM   22  C   UNL     1      39.867 -14.420  -1.231  1.00  0.00     0.036 A 
HETATM   23  C   UNL     1      38.349 -13.316   0.401  1.00  0.00     0.060 C 
HETATM   24  C   UNL     1      39.268 -13.695  -2.402  1.00  0.00     0.046 C 
HETATM   25  C   UNL     1      40.984 -15.355  -1.509  1.00  0.00     0.268 A 
HETATM   26  C   UNL     1      37.946 -13.004  -2.064  1.00  0.00     0.005 C 
HETATM   27  C   UNL     1      38.020 -12.313  -0.707  1.00  0.00     0.006 C 
HETATM   28  O   UNL     1      41.427 -15.533  -2.637  1.00  0.00    -0.267 OA
HETATM   29  N   UNL     1      41.484 -15.988  -0.416  1.00  0.00    -0.152 N 
HETATM   30  H   UNL     1      42.263 -16.630  -0.531  1.00  0.00     0.188 HD
ENDBRANCH   2  19
BRANCH   4  31
HETATM   31  C   UNL     1      43.480 -19.448   2.732  1.00  0.00     0.035 A 
HETATM   32  S   UNL     1      44.451 -19.948   4.048  1.00  0.00    -0.100 SA
HETATM   33  C   UNL     1      44.741 -21.477   3.340  1.00  0.00     0.050 A 
HETATM   34  C   UNL     1      44.113 -21.609   2.121  1.00  0.00     0.008 A 
HETATM   35  C   UNL     1      43.381 -20.435   1.771  1.00  0.00     0.022 A 
ENDBRANCH   4  31
TORSDOF 6
ENDMDL
