MODEL 1
REMARK VINA RESULT:      -8.9      0.000      0.000
REMARK  7 active torsions:
REMARK  status: ('A' for Active; 'I' for Inactive)
REMARK    1  A    between atoms: C_4  and  C_5 
REMARK    2  A    between atoms: C_5  and  N_6 
REMARK       I    between atoms: N_6  and  C_7 
REMARK    3  A    between atoms: N_6  and  C_22 
REMARK    4  A    between atoms: C_7  and  C_8 
REMARK    5  A    between atoms: C_13  and  C_14 
REMARK    6  A    between atoms: C_15  and  O_16 
REMARK    7  A    between atoms: C_22  and  C_23 
ROOT
HETATM    1  N   UNL     1      42.184 -15.957   2.519  1.00  0.00    -0.343 N 
HETATM    2  C   UNL     1      42.506 -14.712   3.077  1.00  0.00     0.235 C 
HETATM    3  O   UNL     1      43.671 -14.301   3.092  1.00  0.00    -0.272 OA
ENDROOT
BRANCH   2   4
HETATM    4  C   UNL     1      41.404 -13.885   3.715  1.00  0.00     0.195 C 
HETATM    5  C   UNL     1      41.490 -12.441   3.311  1.00  0.00     0.247 C 
HETATM    6  O   UNL     1      41.253 -11.986   2.202  1.00  0.00    -0.271 OA
HETATM    7  N   UNL     1      41.873 -11.701   4.409  1.00  0.00    -0.290 N 
HETATM    8  N   UNL     1      42.103 -12.467   5.547  1.00  0.00    -0.228 NA
HETATM    9  H   UNL     1      42.120 -10.720   4.319  1.00  0.00     0.183 HD
HETATM   10  C   UNL     1      41.489 -13.787   5.249  1.00  0.00     0.134 C 
HETATM   11  H   UNL     1      41.631 -12.060   6.359  1.00  0.00     0.147 HD
BRANCH  10  12
HETATM   12  C   UNL     1      42.155 -14.928   5.986  1.00  0.00    -0.004 A 
HETATM   13  C   UNL     1      41.445 -16.088   6.319  1.00  0.00     0.073 A 
HETATM   14  C   UNL     1      42.059 -17.148   6.991  1.00  0.00     0.037 A 
HETATM   15  C   UNL     1      43.411 -17.069   7.319  1.00  0.00     0.003 A 
HETATM   16  C   UNL     1      44.143 -15.934   6.982  1.00  0.00     0.001 A 
HETATM   17  C   UNL     1      43.519 -14.872   6.324  1.00  0.00     0.012 A 
BRANCH  13  18
HETATM   18  O   UNL     1      40.129 -16.183   5.960  1.00  0.00    -0.360 OA
HETATM   19  H   UNL     1      39.946 -17.098   5.687  1.00  0.00     0.217 HD
ENDBRANCH  13  18
ENDBRANCH  10  12
ENDBRANCH   2   4
BRANCH   1  20
HETATM   20  C   UNL     1      43.277 -16.683   1.857  1.00  0.00     0.164 C 
BRANCH  20  21
HETATM   21  C   UNL     1      43.640 -17.994   2.516  1.00  0.00    -0.040 A 
HETATM   22  C   UNL     1      43.711 -19.180   1.772  1.00  0.00     0.009 A 
HETATM   23  C   UNL     1      44.083 -20.379   2.381  1.00  0.00     0.001 A 
HETATM   24  C   UNL     1      44.392 -20.407   3.740  1.00  0.00     0.000 A 
HETATM   25  C   UNL     1      44.330 -19.236   4.490  1.00  0.00     0.001 A 
HETATM   26  C   UNL     1      43.961 -18.035   3.881  1.00  0.00     0.009 A 
ENDBRANCH  20  21
ENDBRANCH   1  20
BRANCH   1  27
HETATM   27  C   UNL     1      40.799 -16.358   2.239  1.00  0.00     0.164 C 
BRANCH  27  28
HETATM   28  C   UNL     1      39.985 -15.452   1.347  1.00  0.00    -0.040 A 
HETATM   29  C   UNL     1      38.711 -15.012   1.737  1.00  0.00     0.009 A 
HETATM   30  C   UNL     1      37.976 -14.152   0.920  1.00  0.00     0.001 A 
HETATM   31  C   UNL     1      38.509 -13.715  -0.291  1.00  0.00     0.000 A 
HETATM   32  C   UNL     1      39.777 -14.136  -0.686  1.00  0.00     0.001 A 
HETATM   33  C   UNL     1      40.513 -14.997   0.130  1.00  0.00     0.009 A 
ENDBRANCH  27  28
ENDBRANCH   1  27
TORSDOF 7
ENDMDL
MODEL 2
REMARK VINA RESULT:      -8.8      2.153      5.943
REMARK  7 active torsions:
REMARK  status: ('A' for Active; 'I' for Inactive)
REMARK    1  A    between atoms: C_4  and  C_5 
REMARK    2  A    between atoms: C_5  and  N_6 
REMARK       I    between atoms: N_6  and  C_7 
REMARK    3  A    between atoms: N_6  and  C_22 
REMARK    4  A    between atoms: C_7  and  C_8 
REMARK    5  A    between atoms: C_13  and  C_14 
REMARK    6  A    between atoms: C_15  and  O_16 
REMARK    7  A    between atoms: C_22  and  C_23 
ROOT
HETATM    1  N   UNL     1      42.426 -17.863   3.278  1.00  0.00    -0.343 N 
HETATM    2  C   UNL     1      42.160 -17.642   4.636  1.00  0.00     0.235 C 
HETATM    3  O   UNL     1      41.001 -17.542   5.052  1.00  0.00    -0.272 OA
ENDROOT
BRANCH   2   4
HETATM    4  C   UNL     1      43.325 -17.478   5.596  1.00  0.00     0.195 C 
HETATM    5  C   UNL     1      43.141 -18.304   6.837  1.00  0.00     0.247 C 
HETATM    6  O   UNL     1      43.193 -19.523   6.909  1.00  0.00    -0.271 OA
HETATM    7  N   UNL     1      42.911 -17.454   7.898  1.00  0.00    -0.290 N 
HETATM    8  N   UNL     1      42.878 -16.110   7.541  1.00  0.00    -0.228 NA
HETATM    9  H   UNL     1      42.628 -17.814   8.805  1.00  0.00     0.183 HD
HETATM   10  C   UNL     1      43.473 -16.062   6.180  1.00  0.00     0.134 C 
HETATM   11  H   UNL     1      43.458 -15.554   8.174  1.00  0.00     0.147 HD
BRANCH  10  12
HETATM   12  C   UNL     1      42.958 -14.907   5.351  1.00  0.00    -0.004 A 
HETATM   13  C   UNL     1      41.685 -14.367   5.572  1.00  0.00     0.073 A 
HETATM   14  C   UNL     1      41.209 -13.294   4.816  1.00  0.00     0.037 A 
HETATM   15  C   UNL     1      42.019 -12.726   3.834  1.00  0.00     0.003 A 
HETATM   16  C   UNL     1      43.295 -13.233   3.607  1.00  0.00     0.001 A 
HETATM   17  C   UNL     1      43.759 -14.316   4.357  1.00  0.00     0.012 A 
BRANCH  13  18
HETATM   18  O   UNL     1      40.907 -14.896   6.564  1.00  0.00    -0.360 OA
HETATM   19  H   UNL     1      40.102 -14.357   6.649  1.00  0.00     0.217 HD
ENDBRANCH  13  18
ENDBRANCH  10  12
ENDBRANCH   2   4
BRANCH   1  20
HETATM   20  C   UNL     1      41.262 -18.080   2.407  1.00  0.00     0.164 C 
BRANCH  20  21
HETATM   21  C   UNL     1      40.875 -16.879   1.576  1.00  0.00    -0.040 A 
HETATM   22  C   UNL     1      39.947 -15.941   2.051  1.00  0.00     0.009 A 
HETATM   23  C   UNL     1      39.623 -14.815   1.294  1.00  0.00     0.001 A 
HETATM   24  C   UNL     1      40.226 -14.609   0.054  1.00  0.00     0.000 A 
HETATM   25  C   UNL     1      41.153 -15.529  -0.429  1.00  0.00     0.001 A 
HETATM   26  C   UNL     1      41.480 -16.655   0.330  1.00  0.00     0.009 A 
ENDBRANCH  20  21
ENDBRANCH   1  20
BRANCH   1  27
HETATM   27  C   UNL     1      43.755 -18.255   2.790  1.00  0.00     0.164 C 
BRANCH  27  28
HETATM   28  C   UNL     1      44.089 -19.727   2.807  1.00  0.00    -0.040 A 
HETATM   29  C   UNL     1      44.689 -20.317   3.929  1.00  0.00     0.009 A 
HETATM   30  C   UNL     1      44.969 -21.684   3.948  1.00  0.00     0.001 A 
HETATM   31  C   UNL     1      44.645 -22.478   2.850  1.00  0.00     0.000 A 
HETATM   32  C   UNL     1      44.040 -21.907   1.733  1.00  0.00     0.001 A 
HETATM   33  C   UNL     1      43.759 -20.540   1.712  1.00  0.00     0.009 A 
ENDBRANCH  27  28
ENDBRANCH   1  27
TORSDOF 7
ENDMDL
MODEL 3
REMARK VINA RESULT:      -8.6      2.631      5.691
REMARK  7 active torsions:
REMARK  status: ('A' for Active; 'I' for Inactive)
REMARK    1  A    between atoms: C_4  and  C_5 
REMARK    2  A    between atoms: C_5  and  N_6 
REMARK       I    between atoms: N_6  and  C_7 
REMARK    3  A    between atoms: N_6  and  C_22 
REMARK    4  A    between atoms: C_7  and  C_8 
REMARK    5  A    between atoms: C_13  and  C_14 
REMARK    6  A    between atoms: C_15  and  O_16 
REMARK    7  A    between atoms: C_22  and  C_23 
ROOT
HETATM    1  N   UNL     1      43.604 -15.619   6.244  1.00  0.00    -0.343 N 
HETATM    2  C   UNL     1      42.225 -15.503   6.019  1.00  0.00     0.235 C 
HETATM    3  O   UNL     1      41.424 -16.273   6.559  1.00  0.00    -0.272 OA
ENDROOT
BRANCH   2   4
HETATM    4  C   UNL     1      41.724 -14.440   5.058  1.00  0.00     0.195 C 
HETATM    5  C   UNL     1      40.385 -13.902   5.475  1.00  0.00     0.247 C 
HETATM    6  O   UNL     1      40.160 -13.196   6.446  1.00  0.00    -0.271 OA
HETATM    7  N   UNL     1      39.440 -14.332   4.567  1.00  0.00    -0.290 N 
HETATM    8  N   UNL     1      39.956 -15.146   3.565  1.00  0.00    -0.228 NA
HETATM    9  H   UNL     1      38.449 -14.192   4.739  1.00  0.00     0.183 HD
HETATM   10  C   UNL     1      41.428 -14.955   3.638  1.00  0.00     0.134 C 
HETATM   11  H   UNL     1      39.629 -14.840   2.645  1.00  0.00     0.147 HD
BRANCH  10  12
HETATM   12  C   UNL     1      42.205 -16.161   3.156  1.00  0.00    -0.004 A 
HETATM   13  C   UNL     1      41.759 -17.462   3.419  1.00  0.00     0.073 A 
HETATM   14  C   UNL     1      42.468 -18.577   2.967  1.00  0.00     0.037 A 
HETATM   15  C   UNL     1      43.631 -18.403   2.219  1.00  0.00     0.003 A 
HETATM   16  C   UNL     1      44.084 -17.119   1.929  1.00  0.00     0.001 A 
HETATM   17  C   UNL     1      43.379 -16.008   2.396  1.00  0.00     0.012 A 
BRANCH  13  18
HETATM   18  O   UNL     1      40.596 -17.633   4.117  1.00  0.00    -0.360 OA
HETATM   19  H   UNL     1      40.392 -18.583   4.153  1.00  0.00     0.217 HD
ENDBRANCH  13  18
ENDBRANCH  10  12
ENDBRANCH   2   4
BRANCH   1  20
HETATM   20  C   UNL     1      44.027 -16.620   7.234  1.00  0.00     0.164 C 
BRANCH  20  21
HETATM   21  C   UNL     1      44.174 -18.018   6.680  1.00  0.00    -0.040 A 
HETATM   22  C   UNL     1      45.038 -18.281   5.606  1.00  0.00     0.009 A 
HETATM   23  C   UNL     1      45.195 -19.581   5.125  1.00  0.00     0.001 A 
HETATM   24  C   UNL     1      44.496 -20.634   5.711  1.00  0.00     0.000 A 
HETATM   25  C   UNL     1      43.638 -20.388   6.780  1.00  0.00     0.001 A 
HETATM   26  C   UNL     1      43.482 -19.088   7.265  1.00  0.00     0.009 A 
ENDBRANCH  20  21
ENDBRANCH   1  20
BRANCH   1  27
HETATM   27  C   UNL     1      44.556 -14.573   5.848  1.00  0.00     0.164 C 
BRANCH  27  28
HETATM   28  C   UNL     1      45.043 -13.637   6.928  1.00  0.00    -0.040 A 
HETATM   29  C   UNL     1      46.367 -13.175   6.937  1.00  0.00     0.009 A 
HETATM   30  C   UNL     1      46.803 -12.288   7.922  1.00  0.00     0.001 A 
HETATM   31  C   UNL     1      45.919 -11.846   8.904  1.00  0.00     0.000 A 
HETATM   32  C   UNL     1      44.598 -12.289   8.901  1.00  0.00     0.001 A 
HETATM   33  C   UNL     1      44.161 -13.176   7.916  1.00  0.00     0.009 A 
ENDBRANCH  27  28
ENDBRANCH   1  27
TORSDOF 7
ENDMDL
MODEL 4
REMARK VINA RESULT:      -8.2      2.036      6.123
REMARK  7 active torsions:
REMARK  status: ('A' for Active; 'I' for Inactive)
REMARK    1  A    between atoms: C_4  and  C_5 
REMARK    2  A    between atoms: C_5  and  N_6 
REMARK       I    between atoms: N_6  and  C_7 
REMARK    3  A    between atoms: N_6  and  C_22 
REMARK    4  A    between atoms: C_7  and  C_8 
REMARK    5  A    between atoms: C_13  and  C_14 
REMARK    6  A    between atoms: C_15  and  O_16 
REMARK    7  A    between atoms: C_22  and  C_23 
ROOT
HETATM    1  N   UNL     1      41.841 -16.331   1.586  1.00  0.00    -0.343 N 
HETATM    2  C   UNL     1      40.906 -16.066   2.597  1.00  0.00     0.235 C 
HETATM    3  O   UNL     1      39.693 -16.066   2.361  1.00  0.00    -0.272 OA
ENDROOT
BRANCH   2   4
HETATM    4  C   UNL     1      41.406 -15.728   3.990  1.00  0.00     0.195 C 
HETATM    5  C   UNL     1      40.836 -16.657   5.024  1.00  0.00     0.247 C 
HETATM    6  O   UNL     1      41.108 -17.840   5.162  1.00  0.00    -0.271 OA
HETATM    7  N   UNL     1      39.951 -15.948   5.808  1.00  0.00    -0.290 N 
HETATM    8  N   UNL     1      39.803 -14.619   5.424  1.00  0.00    -0.228 NA
HETATM    9  H   UNL     1      39.355 -16.420   6.482  1.00  0.00     0.183 HD
HETATM   10  C   UNL     1      40.949 -14.355   4.515  1.00  0.00     0.134 C 
HETATM   11  H   UNL     1      39.876 -13.998   6.234  1.00  0.00     0.147 HD
BRANCH  10  12
HETATM   12  C   UNL     1      40.656 -13.279   3.492  1.00  0.00    -0.004 A 
HETATM   13  C   UNL     1      41.690 -12.618   2.820  1.00  0.00     0.073 A 
HETATM   14  C   UNL     1      41.424 -11.631   1.868  1.00  0.00     0.037 A 
HETATM   15  C   UNL     1      40.104 -11.308   1.556  1.00  0.00     0.003 A 
HETATM   16  C   UNL     1      39.058 -11.965   2.198  1.00  0.00     0.001 A 
HETATM   17  C   UNL     1      39.332 -12.940   3.160  1.00  0.00     0.012 A 
BRANCH  13  18
HETATM   18  O   UNL     1      42.984 -12.965   3.094  1.00  0.00    -0.360 OA
HETATM   19  H   UNL     1      43.146 -12.836   4.044  1.00  0.00     0.217 HD
ENDBRANCH  13  18
ENDBRANCH  10  12
ENDBRANCH   2   4
BRANCH   1  20
HETATM   20  C   UNL     1      41.300 -16.717   0.275  1.00  0.00     0.164 C 
BRANCH  20  21
HETATM   21  C   UNL     1      41.325 -15.613  -0.756  1.00  0.00    -0.040 A 
HETATM   22  C   UNL     1      41.707 -14.309  -0.408  1.00  0.00     0.009 A 
HETATM   23  C   UNL     1      41.764 -13.304  -1.375  1.00  0.00     0.001 A 
HETATM   24  C   UNL     1      41.444 -13.590  -2.701  1.00  0.00     0.000 A 
HETATM   25  C   UNL     1      41.068 -14.881  -3.062  1.00  0.00     0.001 A 
HETATM   26  C   UNL     1      41.014 -15.888  -2.096  1.00  0.00     0.009 A 
ENDBRANCH  20  21
ENDBRANCH   1  20
BRANCH   1  27
HETATM   27  C   UNL     1      43.254 -16.607   1.875  1.00  0.00     0.164 C 
BRANCH  27  28
HETATM   28  C   UNL     1      43.597 -17.982   2.395  1.00  0.00    -0.040 A 
HETATM   29  C   UNL     1      43.466 -19.114   1.577  1.00  0.00     0.009 A 
HETATM   30  C   UNL     1      43.813 -20.378   2.054  1.00  0.00     0.001 A 
HETATM   31  C   UNL     1      44.301 -20.525   3.351  1.00  0.00     0.000 A 
HETATM   32  C   UNL     1      44.445 -19.408   4.170  1.00  0.00     0.001 A 
HETATM   33  C   UNL     1      44.100 -18.143   3.694  1.00  0.00     0.009 A 
ENDBRANCH  27  28
ENDBRANCH   1  27
TORSDOF 7
ENDMDL
MODEL 5
REMARK VINA RESULT:      -8.0      1.920      4.620
REMARK  7 active torsions:
REMARK  status: ('A' for Active; 'I' for Inactive)
REMARK    1  A    between atoms: C_4  and  C_5 
REMARK    2  A    between atoms: C_5  and  N_6 
REMARK       I    between atoms: N_6  and  C_7 
REMARK    3  A    between atoms: N_6  and  C_22 
REMARK    4  A    between atoms: C_7  and  C_8 
REMARK    5  A    between atoms: C_13  and  C_14 
REMARK    6  A    between atoms: C_15  and  O_16 
REMARK    7  A    between atoms: C_22  and  C_23 
ROOT
HETATM    1  N   UNL     1      41.732 -13.464   2.880  1.00  0.00    -0.343 N 
HETATM    2  C   UNL     1      42.782 -13.968   3.660  1.00  0.00     0.235 C 
HETATM    3  O   UNL     1      43.956 -13.877   3.285  1.00  0.00    -0.272 OA
ENDROOT
BRANCH   2   4
HETATM    4  C   UNL     1      42.456 -14.678   4.962  1.00  0.00     0.195 C 
HETATM    5  C   UNL     1      43.318 -14.188   6.091  1.00  0.00     0.247 C 
HETATM    6  O   UNL     1      43.259 -13.089   6.621  1.00  0.00    -0.271 OA
HETATM    7  N   UNL     1      44.191 -15.196   6.443  1.00  0.00    -0.290 N 
HETATM    8  N   UNL     1      44.067 -16.342   5.665  1.00  0.00    -0.228 NA
HETATM    9  H   UNL     1      44.950 -15.025   7.096  1.00  0.00     0.183 HD
HETATM   10  C   UNL     1      42.768 -16.186   4.960  1.00  0.00     0.134 C 
HETATM   11  H   UNL     1      44.024 -17.177   6.254  1.00  0.00     0.147 HD
BRANCH  10  12
HETATM   12  C   UNL     1      42.727 -16.905   3.630  1.00  0.00    -0.004 A 
HETATM   13  C   UNL     1      41.510 -17.204   3.004  1.00  0.00     0.073 A 
HETATM   14  C   UNL     1      41.469 -17.859   1.772  1.00  0.00     0.037 A 
HETATM   15  C   UNL     1      42.657 -18.206   1.132  1.00  0.00     0.003 A 
HETATM   16  C   UNL     1      43.879 -17.904   1.725  1.00  0.00     0.001 A 
HETATM   17  C   UNL     1      43.914 -17.262   2.964  1.00  0.00     0.012 A 
BRANCH  13  18
HETATM   18  O   UNL     1      40.345 -16.825   3.612  1.00  0.00    -0.360 OA
HETATM   19  H   UNL     1      40.240 -17.339   4.430  1.00  0.00     0.217 HD
ENDBRANCH  13  18
ENDBRANCH  10  12
ENDBRANCH   2   4
BRANCH   1  20
HETATM   20  C   UNL     1      42.109 -12.729   1.664  1.00  0.00     0.164 C 
BRANCH  20  21
HETATM   21  C   UNL     1      41.650 -13.378   0.379  1.00  0.00    -0.040 A 
HETATM   22  C   UNL     1      41.757 -14.764   0.192  1.00  0.00     0.009 A 
HETATM   23  C   UNL     1      41.296 -15.359  -0.982  1.00  0.00     0.001 A 
HETATM   24  C   UNL     1      40.720 -14.579  -1.983  1.00  0.00     0.000 A 
HETATM   25  C   UNL     1      40.603 -13.202  -1.809  1.00  0.00     0.001 A 
HETATM   26  C   UNL     1      41.061 -12.606  -0.633  1.00  0.00     0.009 A 
ENDBRANCH  20  21
ENDBRANCH   1  20
BRANCH   1  27
HETATM   27  C   UNL     1      40.369 -13.308   3.405  1.00  0.00     0.164 C 
BRANCH  27  28
HETATM   28  C   UNL     1      39.251 -13.186   2.397  1.00  0.00    -0.040 A 
HETATM   29  C   UNL     1      38.739 -14.319   1.748  1.00  0.00     0.009 A 
HETATM   30  C   UNL     1      37.687 -14.203   0.840  1.00  0.00     0.001 A 
HETATM   31  C   UNL     1      37.129 -12.953   0.575  1.00  0.00     0.000 A 
HETATM   32  C   UNL     1      37.621 -11.821   1.220  1.00  0.00     0.001 A 
HETATM   33  C   UNL     1      38.673 -11.936   2.129  1.00  0.00     0.009 A 
ENDBRANCH  27  28
ENDBRANCH   1  27
TORSDOF 7
ENDMDL
MODEL 6
REMARK VINA RESULT:      -7.9      1.195      1.551
REMARK  7 active torsions:
REMARK  status: ('A' for Active; 'I' for Inactive)
REMARK    1  A    between atoms: C_4  and  C_5 
REMARK    2  A    between atoms: C_5  and  N_6 
REMARK       I    between atoms: N_6  and  C_7 
REMARK    3  A    between atoms: N_6  and  C_22 
REMARK    4  A    between atoms: C_7  and  C_8 
REMARK    5  A    between atoms: C_13  and  C_14 
REMARK    6  A    between atoms: C_15  and  O_16 
REMARK    7  A    between atoms: C_22  and  C_23 
ROOT
HETATM    1  N   UNL     1      41.168 -14.852   1.869  1.00  0.00    -0.343 N 
HETATM    2  C   UNL     1      41.663 -13.686   2.469  1.00  0.00     0.235 C 
HETATM    3  O   UNL     1      42.862 -13.392   2.400  1.00  0.00    -0.272 OA
ENDROOT
BRANCH   2   4
HETATM    4  C   UNL     1      40.711 -12.801   3.253  1.00  0.00     0.195 C 
HETATM    5  C   UNL     1      40.852 -11.356   2.867  1.00  0.00     0.247 C 
HETATM    6  O   UNL     1      40.516 -10.855   1.804  1.00  0.00    -0.271 OA
HETATM    7  N   UNL     1      41.420 -10.676   3.923  1.00  0.00    -0.290 N 
HETATM    8  N   UNL     1      41.730 -11.486   5.010  1.00  0.00    -0.228 NA
HETATM    9  H   UNL     1      41.725  -9.712   3.821  1.00  0.00     0.183 HD
HETATM   10  C   UNL     1      40.989 -12.751   4.766  1.00  0.00     0.134 C 
HETATM   11  H   UNL     1      41.392 -11.069   5.881  1.00  0.00     0.147 HD
BRANCH  10  12
HETATM   12  C   UNL     1      41.655 -13.956   5.394  1.00  0.00    -0.004 A 
HETATM   13  C   UNL     1      40.910 -15.076   5.780  1.00  0.00     0.073 A 
HETATM   14  C   UNL     1      41.522 -16.194   6.351  1.00  0.00     0.037 A 
HETATM   15  C   UNL     1      42.905 -16.215   6.522  1.00  0.00     0.003 A 
HETATM   16  C   UNL     1      43.670 -15.120   6.129  1.00  0.00     0.001 A 
HETATM   17  C   UNL     1      43.050 -13.999   5.573  1.00  0.00     0.012 A 
BRANCH  13  18
HETATM   18  O   UNL     1      39.558 -15.073   5.574  1.00  0.00    -0.360 OA
HETATM   19  H   UNL     1      39.119 -15.378   6.385  1.00  0.00     0.217 HD
ENDBRANCH  13  18
ENDBRANCH  10  12
ENDBRANCH   2   4
BRANCH   1  20
HETATM   20  C   UNL     1      42.120 -15.635   1.068  1.00  0.00     0.164 C 
BRANCH  20  21
HETATM   21  C   UNL     1      42.645 -16.872   1.760  1.00  0.00    -0.040 A 
HETATM   22  C   UNL     1      43.718 -17.598   1.223  1.00  0.00     0.009 A 
HETATM   23  C   UNL     1      44.220 -18.718   1.888  1.00  0.00     0.001 A 
HETATM   24  C   UNL     1      43.659 -19.123   3.098  1.00  0.00     0.000 A 
HETATM   25  C   UNL     1      42.596 -18.408   3.644  1.00  0.00     0.001 A 
HETATM   26  C   UNL     1      42.095 -17.286   2.982  1.00  0.00     0.009 A 
ENDBRANCH  20  21
ENDBRANCH   1  20
BRANCH   1  27
HETATM   27  C   UNL     1      39.731 -15.097   1.694  1.00  0.00     0.164 C 
BRANCH  27  28
HETATM   28  C   UNL     1      38.989 -14.197   0.735  1.00  0.00    -0.040 A 
HETATM   29  C   UNL     1      37.830 -13.517   1.136  1.00  0.00     0.009 A 
HETATM   30  C   UNL     1      37.166 -12.665   0.253  1.00  0.00     0.001 A 
HETATM   31  C   UNL     1      37.657 -12.476  -1.037  1.00  0.00     0.000 A 
HETATM   32  C   UNL     1      38.814 -13.137  -1.445  1.00  0.00     0.001 A 
HETATM   33  C   UNL     1      39.479 -13.989  -0.563  1.00  0.00     0.009 A 
ENDBRANCH  27  28
ENDBRANCH   1  27
TORSDOF 7
ENDMDL
MODEL 7
REMARK VINA RESULT:      -7.8      2.120      4.946
REMARK  7 active torsions:
REMARK  status: ('A' for Active; 'I' for Inactive)
REMARK    1  A    between atoms: C_4  and  C_5 
REMARK    2  A    between atoms: C_5  and  N_6 
REMARK       I    between atoms: N_6  and  C_7 
REMARK    3  A    between atoms: N_6  and  C_22 
REMARK    4  A    between atoms: C_7  and  C_8 
REMARK    5  A    between atoms: C_13  and  C_14 
REMARK    6  A    between atoms: C_15  and  O_16 
REMARK    7  A    between atoms: C_22  and  C_23 
ROOT
HETATM    1  N   UNL     1      41.562 -15.129   4.166  1.00  0.00    -0.343 N 
HETATM    2  C   UNL     1      40.816 -15.299   2.991  1.00  0.00     0.235 C 
HETATM    3  O   UNL     1      39.824 -16.035   2.965  1.00  0.00    -0.272 OA
ENDROOT
BRANCH   2   4
HETATM    4  C   UNL     1      41.271 -14.598   1.723  1.00  0.00     0.195 C 
HETATM    5  C   UNL     1      40.116 -13.987   0.983  1.00  0.00     0.247 C 
HETATM    6  O   UNL     1      39.460 -13.019   1.338  1.00  0.00    -0.271 OA
HETATM    7  N   UNL     1      39.919 -14.697  -0.183  1.00  0.00    -0.290 N 
HETATM    8  N   UNL     1      40.789 -15.771  -0.337  1.00  0.00    -0.228 NA
HETATM    9  H   UNL     1      39.103 -14.532  -0.764  1.00  0.00     0.183 HD
HETATM   10  C   UNL     1      41.868 -15.535   0.658  1.00  0.00     0.134 C 
HETATM   11  H   UNL     1      41.200 -15.772  -1.274  1.00  0.00     0.147 HD
BRANCH  10  12
HETATM   12  C   UNL     1      42.519 -16.813   1.137  1.00  0.00    -0.004 A 
HETATM   13  C   UNL     1      41.794 -18.008   1.222  1.00  0.00     0.073 A 
HETATM   14  C   UNL     1      42.394 -19.193   1.655  1.00  0.00     0.037 A 
HETATM   15  C   UNL     1      43.747 -19.202   1.988  1.00  0.00     0.003 A 
HETATM   16  C   UNL     1      44.493 -18.031   1.895  1.00  0.00     0.001 A 
HETATM   17  C   UNL     1      43.884 -16.847   1.476  1.00  0.00     0.012 A 
BRANCH  13  18
HETATM   18  O   UNL     1      40.477 -18.009   0.854  1.00  0.00    -0.360 OA
HETATM   19  H   UNL     1      39.947 -17.671   1.595  1.00  0.00     0.217 HD
ENDBRANCH  13  18
ENDBRANCH  10  12
ENDBRANCH   2   4
BRANCH   1  20
HETATM   20  C   UNL     1      41.037 -15.777   5.377  1.00  0.00     0.164 C 
BRANCH  20  21
HETATM   21  C   UNL     1      41.926 -16.866   5.932  1.00  0.00    -0.040 A 
HETATM   22  C   UNL     1      42.312 -17.957   5.139  1.00  0.00     0.009 A 
HETATM   23  C   UNL     1      43.163 -18.938   5.649  1.00  0.00     0.001 A 
HETATM   24  C   UNL     1      43.641 -18.841   6.954  1.00  0.00     0.000 A 
HETATM   25  C   UNL     1      43.269 -17.761   7.751  1.00  0.00     0.001 A 
HETATM   26  C   UNL     1      42.421 -16.777   7.242  1.00  0.00     0.009 A 
ENDBRANCH  20  21
ENDBRANCH   1  20
BRANCH   1  27
HETATM   27  C   UNL     1      42.568 -14.069   4.311  1.00  0.00     0.164 C 
BRANCH  27  28
HETATM   28  C   UNL     1      42.104 -12.751   4.882  1.00  0.00    -0.040 A 
HETATM   29  C   UNL     1      41.550 -11.763   4.055  1.00  0.00     0.009 A 
HETATM   30  C   UNL     1      41.096 -10.559   4.593  1.00  0.00     0.001 A 
HETATM   31  C   UNL     1      41.185 -10.330   5.965  1.00  0.00     0.000 A 
HETATM   32  C   UNL     1      41.724 -11.306   6.799  1.00  0.00     0.001 A 
HETATM   33  C   UNL     1      42.178 -12.512   6.262  1.00  0.00     0.009 A 
ENDBRANCH  27  28
ENDBRANCH   1  27
TORSDOF 7
ENDMDL
MODEL 8
REMARK VINA RESULT:      -7.8      2.085      5.493
REMARK  7 active torsions:
REMARK  status: ('A' for Active; 'I' for Inactive)
REMARK    1  A    between atoms: C_4  and  C_5 
REMARK    2  A    between atoms: C_5  and  N_6 
REMARK       I    between atoms: N_6  and  C_7 
REMARK    3  A    between atoms: N_6  and  C_22 
REMARK    4  A    between atoms: C_7  and  C_8 
REMARK    5  A    between atoms: C_13  and  C_14 
REMARK    6  A    between atoms: C_15  and  O_16 
REMARK    7  A    between atoms: C_22  and  C_23 
ROOT
HETATM    1  N   UNL     1      41.291 -14.906   4.295  1.00  0.00    -0.343 N 
HETATM    2  C   UNL     1      40.625 -15.232   3.105  1.00  0.00     0.235 C 
HETATM    3  O   UNL     1      39.801 -16.152   3.067  1.00  0.00    -0.272 OA
ENDROOT
BRANCH   2   4
HETATM    4  C   UNL     1      40.965 -14.467   1.838  1.00  0.00     0.195 C 
HETATM    5  C   UNL     1      39.732 -13.938   1.163  1.00  0.00     0.247 C 
HETATM    6  O   UNL     1      39.015 -13.037   1.570  1.00  0.00    -0.271 OA
HETATM    7  N   UNL     1      39.544 -14.636  -0.011  1.00  0.00    -0.290 N 
HETATM    8  N   UNL     1      40.492 -15.630  -0.230  1.00  0.00    -0.228 NA
HETATM    9  H   UNL     1      38.692 -14.527  -0.554  1.00  0.00     0.183 HD
HETATM   10  C   UNL     1      41.590 -15.327   0.725  1.00  0.00     0.134 C 
HETATM   11  H   UNL     1      40.860 -15.575  -1.183  1.00  0.00     0.147 HD
BRANCH  10  12
HETATM   12  C   UNL     1      42.365 -16.557   1.143  1.00  0.00    -0.004 A 
HETATM   13  C   UNL     1      41.753 -17.815   1.199  1.00  0.00     0.073 A 
HETATM   14  C   UNL     1      42.467 -18.954   1.576  1.00  0.00     0.037 A 
HETATM   15  C   UNL     1      43.823 -18.852   1.880  1.00  0.00     0.003 A 
HETATM   16  C   UNL     1      44.459 -17.616   1.814  1.00  0.00     0.001 A 
HETATM   17  C   UNL     1      43.735 -16.478   1.452  1.00  0.00     0.012 A 
BRANCH  13  18
HETATM   18  O   UNL     1      40.433 -17.922   0.860  1.00  0.00    -0.360 OA
HETATM   19  H   UNL     1      40.367 -18.385   0.008  1.00  0.00     0.217 HD
ENDBRANCH  13  18
ENDBRANCH  10  12
ENDBRANCH   2   4
BRANCH   1  20
HETATM   20  C   UNL     1      40.874 -15.633   5.503  1.00  0.00     0.164 C 
BRANCH  20  21
HETATM   21  C   UNL     1      41.819 -16.735   5.920  1.00  0.00    -0.040 A 
HETATM   22  C   UNL     1      42.292 -16.820   7.238  1.00  0.00     0.009 A 
HETATM   23  C   UNL     1      43.134 -17.863   7.624  1.00  0.00     0.001 A 
HETATM   24  C   UNL     1      43.512 -18.836   6.700  1.00  0.00     0.000 A 
HETATM   25  C   UNL     1      43.047 -18.767   5.390  1.00  0.00     0.001 A 
HETATM   26  C   UNL     1      42.201 -17.726   5.003  1.00  0.00     0.009 A 
ENDBRANCH  20  21
ENDBRANCH   1  20
BRANCH   1  27
HETATM   27  C   UNL     1      42.061 -13.665   4.449  1.00  0.00     0.164 C 
BRANCH  27  28
HETATM   28  C   UNL     1      43.023 -13.589   5.610  1.00  0.00    -0.040 A 
HETATM   29  C   UNL     1      44.221 -14.319   5.601  1.00  0.00     0.009 A 
HETATM   30  C   UNL     1      45.120 -14.222   6.664  1.00  0.00     0.001 A 
HETATM   31  C   UNL     1      44.835 -13.389   7.744  1.00  0.00     0.000 A 
HETATM   32  C   UNL     1      43.654 -12.651   7.761  1.00  0.00     0.001 A 
HETATM   33  C   UNL     1      42.754 -12.747   6.698  1.00  0.00     0.009 A 
ENDBRANCH  27  28
ENDBRANCH   1  27
TORSDOF 7
ENDMDL
MODEL 9
REMARK VINA RESULT:      -7.6      2.289      4.868
REMARK  7 active torsions:
REMARK  status: ('A' for Active; 'I' for Inactive)
REMARK    1  A    between atoms: C_4  and  C_5 
REMARK    2  A    between atoms: C_5  and  N_6 
REMARK       I    between atoms: N_6  and  C_7 
REMARK    3  A    between atoms: N_6  and  C_22 
REMARK    4  A    between atoms: C_7  and  C_8 
REMARK    5  A    between atoms: C_13  and  C_14 
REMARK    6  A    between atoms: C_15  and  O_16 
REMARK    7  A    between atoms: C_22  and  C_23 
ROOT
HETATM    1  N   UNL     1      40.669 -13.527   1.395  1.00  0.00    -0.343 N 
HETATM    2  C   UNL     1      41.617 -13.381   2.417  1.00  0.00     0.235 C 
HETATM    3  O   UNL     1      42.725 -12.881   2.194  1.00  0.00    -0.272 OA
ENDROOT
BRANCH   2   4
HETATM    4  C   UNL     1      41.284 -13.893   3.807  1.00  0.00     0.195 C 
HETATM    5  C   UNL     1      41.773 -12.955   4.875  1.00  0.00     0.247 C 
HETATM    6  O   UNL     1      41.323 -11.847   5.124  1.00  0.00    -0.271 OA
HETATM    7  N   UNL     1      42.817 -13.559   5.542  1.00  0.00    -0.290 N 
HETATM    8  N   UNL     1      43.149 -14.815   5.044  1.00  0.00    -0.228 NA
HETATM    9  H   UNL     1      43.378 -13.042   6.213  1.00  0.00     0.183 HD
HETATM   10  C   UNL     1      41.996 -15.203   4.190  1.00  0.00     0.134 C 
HETATM   11  H   UNL     1      43.239 -15.493   5.804  1.00  0.00     0.147 HD
BRANCH  10  12
HETATM   12  C   UNL     1      42.382 -16.142   3.068  1.00  0.00    -0.004 A 
HETATM   13  C   UNL     1      41.436 -16.980   2.467  1.00  0.00     0.073 A 
HETATM   14  C   UNL     1      41.787 -17.841   1.424  1.00  0.00     0.037 A 
HETATM   15  C   UNL     1      43.097 -17.855   0.949  1.00  0.00     0.003 A 
HETATM   16  C   UNL     1      44.051 -17.018   1.518  1.00  0.00     0.001 A 
HETATM   17  C   UNL     1      43.698 -16.170   2.570  1.00  0.00     0.012 A 
BRANCH  13  18
HETATM   18  O   UNL     1      40.142 -16.935   2.904  1.00  0.00    -0.360 OA
HETATM   19  H   UNL     1      39.669 -16.247   2.407  1.00  0.00     0.217 HD
ENDBRANCH  13  18
ENDBRANCH  10  12
ENDBRANCH   2   4
BRANCH   1  20
HETATM   20  C   UNL     1      41.019 -12.954   0.087  1.00  0.00     0.164 C 
BRANCH  20  21
HETATM   21  C   UNL     1      40.703 -13.850  -1.088  1.00  0.00    -0.040 A 
HETATM   22  C   UNL     1      41.247 -15.140  -1.178  1.00  0.00     0.009 A 
HETATM   23  C   UNL     1      40.920 -15.975  -2.247  1.00  0.00     0.001 A 
HETATM   24  C   UNL     1      40.044 -15.534  -3.237  1.00  0.00     0.000 A 
HETATM   25  C   UNL     1      39.494 -14.257  -3.158  1.00  0.00     0.001 A 
HETATM   26  C   UNL     1      39.817 -13.422  -2.087  1.00  0.00     0.009 A 
ENDBRANCH  20  21
ENDBRANCH   1  20
BRANCH   1  27
HETATM   27  C   UNL     1      39.265 -13.858   1.667  1.00  0.00     0.164 C 
BRANCH  27  28
HETATM   28  C   UNL     1      38.256 -12.741   1.548  1.00  0.00    -0.040 A 
HETATM   29  C   UNL     1      38.360 -11.589   2.342  1.00  0.00     0.009 A 
HETATM   30  C   UNL     1      37.441 -10.548   2.205  1.00  0.00     0.001 A 
HETATM   31  C   UNL     1      36.413 -10.643   1.269  1.00  0.00     0.000 A 
HETATM   32  C   UNL     1      36.304 -11.777   0.468  1.00  0.00     0.001 A 
HETATM   33  C   UNL     1      37.223 -12.819   0.602  1.00  0.00     0.009 A 
ENDBRANCH  27  28
ENDBRANCH   1  27
TORSDOF 7
ENDMDL
MODEL 10
REMARK VINA RESULT:      -7.6      1.956      7.058
REMARK  7 active torsions:
REMARK  status: ('A' for Active; 'I' for Inactive)
REMARK    1  A    between atoms: C_4  and  C_5 
REMARK    2  A    between atoms: C_5  and  N_6 
REMARK       I    between atoms: N_6  and  C_7 
REMARK    3  A    between atoms: N_6  and  C_22 
REMARK    4  A    between atoms: C_7  and  C_8 
REMARK    5  A    between atoms: C_13  and  C_14 
REMARK    6  A    between atoms: C_15  and  O_16 
REMARK    7  A    between atoms: C_22  and  C_23 
ROOT
HETATM    1  N   UNL     1      41.960 -15.520   4.464  1.00  0.00    -0.343 N 
HETATM    2  C   UNL     1      42.567 -15.688   3.212  1.00  0.00     0.235 C 
HETATM    3  O   UNL     1      43.262 -14.795   2.714  1.00  0.00    -0.272 OA
ENDROOT
BRANCH   2   4
HETATM    4  C   UNL     1      42.322 -16.973   2.443  1.00  0.00     0.195 C 
HETATM    5  C   UNL     1      43.608 -17.587   1.965  1.00  0.00     0.247 C 
HETATM    6  O   UNL     1      44.461 -18.112   2.663  1.00  0.00    -0.271 OA
HETATM    7  N   UNL     1      43.664 -17.468   0.592  1.00  0.00    -0.290 N 
HETATM    8  N   UNL     1      42.572 -16.806   0.042  1.00  0.00    -0.228 NA
HETATM    9  H   UNL     1      44.512 -17.699   0.082  1.00  0.00     0.183 HD
HETATM   10  C   UNL     1      41.552 -16.787   1.122  1.00  0.00     0.134 C 
HETATM   11  H   UNL     1      42.198 -17.326  -0.756  1.00  0.00     0.147 HD
BRANCH  10  12
HETATM   12  C   UNL     1      40.608 -15.610   1.024  1.00  0.00    -0.004 A 
HETATM   13  C   UNL     1      40.838 -14.571   0.114  1.00  0.00     0.073 A 
HETATM   14  C   UNL     1      39.964 -13.487   0.013  1.00  0.00     0.037 A 
HETATM   15  C   UNL     1      38.823 -13.440   0.813  1.00  0.00     0.003 A 
HETATM   16  C   UNL     1      38.564 -14.469   1.712  1.00  0.00     0.001 A 
HETATM   17  C   UNL     1      39.450 -15.543   1.819  1.00  0.00     0.012 A 
BRANCH  13  18
HETATM   18  O   UNL     1      41.934 -14.638  -0.701  1.00  0.00    -0.360 OA
HETATM   19  H   UNL     1      42.298 -13.743  -0.808  1.00  0.00     0.217 HD
ENDBRANCH  13  18
ENDBRANCH  10  12
ENDBRANCH   2   4
BRANCH   1  20
HETATM   20  C   UNL     1      42.285 -14.285   5.193  1.00  0.00     0.164 C 
BRANCH  20  21
HETATM   21  C   UNL     1      41.244 -13.197   5.067  1.00  0.00    -0.040 A 
HETATM   22  C   UNL     1      41.346 -12.212   4.074  1.00  0.00     0.009 A 
HETATM   23  C   UNL     1      40.360 -11.234   3.941  1.00  0.00     0.001 A 
HETATM   24  C   UNL     1      39.259 -11.229   4.796  1.00  0.00     0.000 A 
HETATM   25  C   UNL     1      39.143 -12.203   5.784  1.00  0.00     0.001 A 
HETATM   26  C   UNL     1      40.127 -13.185   5.916  1.00  0.00     0.009 A 
ENDBRANCH  20  21
ENDBRANCH   1  20
BRANCH   1  27
HETATM   27  C   UNL     1      41.362 -16.639   5.204  1.00  0.00     0.164 C 
BRANCH  27  28
HETATM   28  C   UNL     1      42.275 -17.441   6.099  1.00  0.00    -0.040 A 
HETATM   29  C   UNL     1      42.824 -18.656   5.665  1.00  0.00     0.009 A 
HETATM   30  C   UNL     1      43.691 -19.378   6.486  1.00  0.00     0.001 A 
HETATM   31  C   UNL     1      44.024 -18.890   7.748  1.00  0.00     0.000 A 
HETATM   32  C   UNL     1      43.493 -17.680   8.189  1.00  0.00     0.001 A 
HETATM   33  C   UNL     1      42.627 -16.956   7.368  1.00  0.00     0.009 A 
ENDBRANCH  27  28
ENDBRANCH   1  27
TORSDOF 7
ENDMDL
