MODEL 1
REMARK VINA RESULT:      -8.7      0.000      0.000
REMARK  3 active torsions:
REMARK  status: ('A' for Active; 'I' for Inactive)
REMARK    1  A    between atoms: C_2  and  C_3 
REMARK    2  A    between atoms: C_12  and  C_13 
REMARK    3  A    between atoms: C_13  and  C_14 
ROOT
HETATM    1  C   UNL     1      44.409 -20.286   3.259  1.00  0.00    -0.027 A 
HETATM    2  C   UNL     1      44.580 -20.675   4.598  1.00  0.00     0.039 A 
HETATM    3  C   UNL     1      44.939 -22.085   4.983  1.00  0.00     0.071 C 
HETATM    4  N   UNL     1      44.475 -19.839   5.644  1.00  0.00    -0.245 NA
HETATM    5  C   UNL     1      44.141 -18.573   5.349  1.00  0.00     0.111 A 
HETATM    6  C   UNL     1      43.887 -18.040   4.091  1.00  0.00     0.034 A 
HETATM    7  C   UNL     1      44.080 -18.924   2.976  1.00  0.00    -0.038 A 
HETATM    8  C   UNL     1      43.940 -18.464   1.546  1.00  0.00     0.050 C 
HETATM    9  S   UNL     1      44.025 -17.443   6.606  1.00  0.00    -0.063 SA
HETATM   10  C   UNL     1      43.562 -16.190   5.540  1.00  0.00     0.085 A 
HETATM   11  C   UNL     1      43.484 -16.646   4.233  1.00  0.00     0.061 A 
HETATM   12  N   UNL     1      43.102 -15.865   3.194  1.00  0.00    -0.397 N 
HETATM   13  H   UNL     1      42.811 -14.897   3.295  1.00  0.00     0.156 HD
HETATM   14  H   UNL     1      42.745 -16.272   2.335  1.00  0.00     0.156 HD
ENDROOT
BRANCH  10  15
HETATM   15  C   UNL     1      43.343 -14.880   6.132  1.00  0.00     0.201 C 
HETATM   16  O   UNL     1      44.159 -14.325   6.870  1.00  0.00    -0.286 OA
BRANCH  15  17
HETATM   17  C   UNL     1      42.083 -14.128   5.868  1.00  0.00     0.018 A 
HETATM   18  C   UNL     1      42.087 -12.751   5.602  1.00  0.00     0.055 A 
HETATM   19  C   UNL     1      40.873 -12.149   5.348  1.00  0.00     0.106 A 
HETATM   20  C   UNL     1      39.692 -12.857   5.338  1.00  0.00     0.105 A 
HETATM   21  O   UNL     1      40.684 -10.828   5.080  1.00  0.00    -0.323 OA
HETATM   22  O   UNL     1      38.617 -12.071   5.062  1.00  0.00    -0.323 OA
HETATM   23  C   UNL     1      39.655 -14.212   5.579  1.00  0.00     0.040 A 
HETATM   24  C   UNL     1      39.254 -10.790   4.876  1.00  0.00     0.352 A 
HETATM   25  C   UNL     1      40.869 -14.853   5.842  1.00  0.00     0.018 A 
ENDBRANCH  15  17
ENDBRANCH  10  15
BRANCH   1  26
HETATM   26  C   UNL     1      44.540 -21.320   2.153  1.00  0.00     0.036 C 
HETATM   27  C   UNL     1      43.185 -21.827   1.679  1.00  0.00     0.010 C 
ENDBRANCH   1  26
TORSDOF 3
ENDMDL
MODEL 2
REMARK VINA RESULT:      -8.5      4.346      4.995
REMARK  3 active torsions:
REMARK  status: ('A' for Active; 'I' for Inactive)
REMARK    1  A    between atoms: C_2  and  C_3 
REMARK    2  A    between atoms: C_12  and  C_13 
REMARK    3  A    between atoms: C_13  and  C_14 
ROOT
HETATM    1  C   UNL     1      44.323 -19.925   3.668  1.00  0.00    -0.027 A 
HETATM    2  C   UNL     1      43.775 -20.352   2.448  1.00  0.00     0.039 A 
HETATM    3  C   UNL     1      44.130 -21.679   1.831  1.00  0.00     0.071 C 
HETATM    4  N   UNL     1      42.875 -19.651   1.740  1.00  0.00    -0.245 NA
HETATM    5  C   UNL     1      42.539 -18.453   2.245  1.00  0.00     0.111 A 
HETATM    6  C   UNL     1      43.023 -17.863   3.406  1.00  0.00     0.034 A 
HETATM    7  C   UNL     1      43.925 -18.656   4.193  1.00  0.00    -0.038 A 
HETATM    8  C   UNL     1      44.456 -18.191   5.526  1.00  0.00     0.050 C 
HETATM    9  S   UNL     1      41.381 -17.519   1.435  1.00  0.00    -0.063 SA
HETATM   10  C   UNL     1      41.513 -16.240   2.562  1.00  0.00     0.085 A 
HETATM   11  C   UNL     1      42.452 -16.528   3.539  1.00  0.00     0.061 A 
HETATM   12  N   UNL     1      42.779 -15.667   4.534  1.00  0.00    -0.397 N 
HETATM   13  H   UNL     1      42.388 -14.734   4.620  1.00  0.00     0.156 HD
HETATM   14  H   UNL     1      43.662 -15.747   5.028  1.00  0.00     0.156 HD
ENDROOT
BRANCH  10  15
HETATM   15  C   UNL     1      40.645 -15.093   2.347  1.00  0.00     0.201 C 
HETATM   16  O   UNL     1      40.092 -14.482   3.263  1.00  0.00    -0.286 OA
BRANCH  15  17
HETATM   17  C   UNL     1      40.376 -14.592   0.969  1.00  0.00     0.018 A 
HETATM   18  C   UNL     1      41.392 -14.492   0.008  1.00  0.00     0.055 A 
HETATM   19  C   UNL     1      41.039 -14.038  -1.246  1.00  0.00     0.106 A 
HETATM   20  C   UNL     1      39.742 -13.702  -1.565  1.00  0.00     0.105 A 
HETATM   21  O   UNL     1      41.888 -13.869  -2.296  1.00  0.00    -0.323 OA
HETATM   22  O   UNL     1      39.616 -13.284  -2.853  1.00  0.00    -0.323 OA
HETATM   23  C   UNL     1      38.719 -13.805  -0.651  1.00  0.00     0.040 A 
HETATM   24  C   UNL     1      40.976 -13.414  -3.318  1.00  0.00     0.352 A 
HETATM   25  C   UNL     1      39.042 -14.260   0.631  1.00  0.00     0.018 A 
ENDBRANCH  15  17
ENDBRANCH  10  15
BRANCH   1  26
HETATM   26  C   UNL     1      45.345 -20.796   4.380  1.00  0.00     0.036 C 
HETATM   27  C   UNL     1      44.690 -21.778   5.341  1.00  0.00     0.010 C 
ENDBRANCH   1  26
TORSDOF 3
ENDMDL
MODEL 3
REMARK VINA RESULT:      -8.4      4.217      4.926
REMARK  3 active torsions:
REMARK  status: ('A' for Active; 'I' for Inactive)
REMARK    1  A    between atoms: C_2  and  C_3 
REMARK    2  A    between atoms: C_12  and  C_13 
REMARK    3  A    between atoms: C_13  and  C_14 
ROOT
HETATM    1  C   UNL     1      44.299 -19.179   4.376  1.00  0.00    -0.027 A 
HETATM    2  C   UNL     1      44.277 -18.145   5.327  1.00  0.00     0.039 A 
HETATM    3  C   UNL     1      45.092 -18.202   6.592  1.00  0.00     0.071 C 
HETATM    4  N   UNL     1      43.568 -17.013   5.191  1.00  0.00    -0.245 NA
HETATM    5  C   UNL     1      42.814 -16.925   4.085  1.00  0.00     0.111 A 
HETATM    6  C   UNL     1      42.682 -17.872   3.077  1.00  0.00     0.034 A 
HETATM    7  C   UNL     1      43.505 -19.043   3.195  1.00  0.00    -0.038 A 
HETATM    8  C   UNL     1      43.547 -20.112   2.132  1.00  0.00     0.050 C 
HETATM    9  S   UNL     1      41.917 -15.512   3.816  1.00  0.00    -0.063 SA
HETATM   10  C   UNL     1      41.249 -16.121   2.364  1.00  0.00     0.085 A 
HETATM   11  C   UNL     1      41.703 -17.404   2.103  1.00  0.00     0.061 A 
HETATM   12  N   UNL     1      41.301 -18.133   1.034  1.00  0.00    -0.397 N 
HETATM   13  H   UNL     1      40.611 -17.810   0.362  1.00  0.00     0.156 HD
HETATM   14  H   UNL     1      41.379 -19.145   1.029  1.00  0.00     0.156 HD
ENDROOT
BRANCH  10  15
HETATM   15  C   UNL     1      40.354 -15.235   1.639  1.00  0.00     0.201 C 
HETATM   16  O   UNL     1      39.149 -15.145   1.878  1.00  0.00    -0.286 OA
BRANCH  15  17
HETATM   17  C   UNL     1      40.868 -14.371   0.538  1.00  0.00     0.018 A 
HETATM   18  C   UNL     1      41.647 -13.232   0.794  1.00  0.00     0.055 A 
HETATM   19  C   UNL     1      42.094 -12.510  -0.292  1.00  0.00     0.106 A 
HETATM   20  C   UNL     1      41.810 -12.882  -1.587  1.00  0.00     0.105 A 
HETATM   21  O   UNL     1      42.849 -11.379  -0.235  1.00  0.00    -0.323 OA
HETATM   22  O   UNL     1      42.351 -12.035  -2.501  1.00  0.00    -0.323 OA
HETATM   23  C   UNL     1      41.063 -14.002  -1.873  1.00  0.00     0.040 A 
HETATM   24  C   UNL     1      43.028 -11.096  -1.640  1.00  0.00     0.352 A 
HETATM   25  C   UNL     1      40.592 -14.757  -0.795  1.00  0.00     0.018 A 
ENDBRANCH  15  17
ENDBRANCH  10  15
BRANCH   1  26
HETATM   26  C   UNL     1      45.131 -20.424   4.638  1.00  0.00     0.036 C 
HETATM   27  C   UNL     1      44.383 -21.444   5.486  1.00  0.00     0.010 C 
ENDBRANCH   1  26
TORSDOF 3
ENDMDL
MODEL 4
REMARK VINA RESULT:      -8.4      5.427      8.388
REMARK  3 active torsions:
REMARK  status: ('A' for Active; 'I' for Inactive)
REMARK    1  A    between atoms: C_2  and  C_3 
REMARK    2  A    between atoms: C_12  and  C_13 
REMARK    3  A    between atoms: C_13  and  C_14 
ROOT
HETATM    1  C   UNL     1      42.333 -11.859  -2.257  1.00  0.00    -0.027 A 
HETATM    2  C   UNL     1      42.763 -11.264  -1.060  1.00  0.00     0.039 A 
HETATM    3  C   UNL     1      43.367  -9.885  -1.023  1.00  0.00     0.071 C 
HETATM    4  N   UNL     1      42.653 -11.839   0.148  1.00  0.00    -0.245 NA
HETATM    5  C   UNL     1      42.133 -13.076   0.161  1.00  0.00     0.111 A 
HETATM    6  C   UNL     1      41.708 -13.823  -0.931  1.00  0.00     0.034 A 
HETATM    7  C   UNL     1      41.759 -13.167  -2.206  1.00  0.00    -0.038 A 
HETATM    8  C   UNL     1      41.240 -13.812  -3.468  1.00  0.00     0.050 C 
HETATM    9  S   UNL     1      41.923 -13.860   1.649  1.00  0.00    -0.063 SA
HETATM   10  C   UNL     1      41.311 -15.272   0.906  1.00  0.00     0.085 A 
HETATM   11  C   UNL     1      41.287 -15.142  -0.474  1.00  0.00     0.061 A 
HETATM   12  N   UNL     1      40.881 -16.130  -1.308  1.00  0.00    -0.397 N 
HETATM   13  H   UNL     1      40.597 -17.052  -0.990  1.00  0.00     0.156 HD
HETATM   14  H   UNL     1      41.165 -16.145  -2.282  1.00  0.00     0.156 HD
ENDROOT
BRANCH  10  15
HETATM   15  C   UNL     1      40.907 -16.351   1.792  1.00  0.00     0.201 C 
HETATM   16  O   UNL     1      39.736 -16.571   2.102  1.00  0.00    -0.286 OA
BRANCH  15  17
HETATM   17  C   UNL     1      41.924 -17.266   2.387  1.00  0.00     0.018 A 
HETATM   18  C   UNL     1      41.933 -17.568   3.757  1.00  0.00     0.055 A 
HETATM   19  C   UNL     1      42.900 -18.442   4.209  1.00  0.00     0.106 A 
HETATM   20  C   UNL     1      43.821 -19.017   3.362  1.00  0.00     0.105 A 
HETATM   21  O   UNL     1      43.066 -18.842   5.499  1.00  0.00    -0.323 OA
HETATM   22  O   UNL     1      44.677 -19.848   4.013  1.00  0.00    -0.323 OA
HETATM   23  C   UNL     1      43.829 -18.754   2.011  1.00  0.00     0.040 A 
HETATM   24  C   UNL     1      44.180 -19.752   5.363  1.00  0.00     0.352 A 
HETATM   25  C   UNL     1      42.863 -17.871   1.519  1.00  0.00     0.018 A 
ENDBRANCH  15  17
ENDBRANCH  10  15
BRANCH   1  26
HETATM   26  C   UNL     1      42.517 -11.121  -3.573  1.00  0.00     0.036 C 
HETATM   27  C   UNL     1      41.318 -10.247  -3.913  1.00  0.00     0.010 C 
ENDBRANCH   1  26
TORSDOF 3
ENDMDL
MODEL 5
REMARK VINA RESULT:      -8.3      2.057      2.733
REMARK  3 active torsions:
REMARK  status: ('A' for Active; 'I' for Inactive)
REMARK    1  A    between atoms: C_2  and  C_3 
REMARK    2  A    between atoms: C_12  and  C_13 
REMARK    3  A    between atoms: C_13  and  C_14 
ROOT
HETATM    1  C   UNL     1      44.051 -19.336   3.479  1.00  0.00    -0.027 A 
HETATM    2  C   UNL     1      43.747 -19.360   4.850  1.00  0.00     0.039 A 
HETATM    3  C   UNL     1      44.347 -20.376   5.786  1.00  0.00     0.071 C 
HETATM    4  N   UNL     1      42.935 -18.480   5.457  1.00  0.00    -0.245 NA
HETATM    5  C   UNL     1      42.365 -17.565   4.658  1.00  0.00     0.111 A 
HETATM    6  C   UNL     1      42.516 -17.434   3.283  1.00  0.00     0.034 A 
HETATM    7  C   UNL     1      43.448 -18.332   2.660  1.00  0.00    -0.038 A 
HETATM    8  C   UNL     1      43.793 -18.248   1.193  1.00  0.00     0.050 C 
HETATM    9  S   UNL     1      41.355 -16.391   5.348  1.00  0.00    -0.063 SA
HETATM   10  C   UNL     1      41.012 -15.683   3.830  1.00  0.00     0.085 A 
HETATM   11  C   UNL     1      41.657 -16.358   2.805  1.00  0.00     0.061 A 
HETATM   12  N   UNL     1      41.527 -16.025   1.498  1.00  0.00    -0.397 N 
HETATM   13  H   UNL     1      40.920 -15.281   1.165  1.00  0.00     0.156 HD
HETATM   14  H   UNL     1      41.729 -16.696   0.763  1.00  0.00     0.156 HD
ENDROOT
BRANCH  10  15
HETATM   15  C   UNL     1      40.143 -14.518   3.838  1.00  0.00     0.201 C 
HETATM   16  O   UNL     1      39.229 -14.349   3.029  1.00  0.00    -0.286 OA
BRANCH  15  17
HETATM   17  C   UNL     1      40.326 -13.441   4.853  1.00  0.00     0.018 A 
HETATM   18  C   UNL     1      39.433 -13.275   5.922  1.00  0.00     0.055 A 
HETATM   19  C   UNL     1      39.699 -12.264   6.822  1.00  0.00     0.106 A 
HETATM   20  C   UNL     1      40.801 -11.447   6.701  1.00  0.00     0.105 A 
HETATM   21  O   UNL     1      38.942 -11.951   7.909  1.00  0.00    -0.323 OA
HETATM   22  O   UNL     1      40.874 -10.523   7.695  1.00  0.00    -0.323 OA
HETATM   23  C   UNL     1      41.705 -11.595   5.674  1.00  0.00     0.040 A 
HETATM   24  C   UNL     1      39.706 -10.862   8.471  1.00  0.00     0.352 A 
HETATM   25  C   UNL     1      41.465 -12.609   4.743  1.00  0.00     0.018 A 
ENDBRANCH  15  17
ENDBRANCH  10  15
BRANCH   1  26
HETATM   26  C   UNL     1      44.976 -20.390   2.894  1.00  0.00     0.036 C 
HETATM   27  C   UNL     1      44.209 -21.583   2.340  1.00  0.00     0.010 C 
ENDBRANCH   1  26
TORSDOF 3
ENDMDL
MODEL 6
REMARK VINA RESULT:      -8.3      4.330      5.073
REMARK  3 active torsions:
REMARK  status: ('A' for Active; 'I' for Inactive)
REMARK    1  A    between atoms: C_2  and  C_3 
REMARK    2  A    between atoms: C_12  and  C_13 
REMARK    3  A    between atoms: C_13  and  C_14 
ROOT
HETATM    1  C   UNL     1      43.600 -18.978   5.044  1.00  0.00    -0.027 A 
HETATM    2  C   UNL     1      43.939 -19.400   3.747  1.00  0.00     0.039 A 
HETATM    3  C   UNL     1      44.955 -20.482   3.497  1.00  0.00     0.071 C 
HETATM    4  N   UNL     1      43.380 -18.913   2.628  1.00  0.00    -0.245 NA
HETATM    5  C   UNL     1      42.479 -17.935   2.802  1.00  0.00     0.111 A 
HETATM    6  C   UNL     1      42.070 -17.369   4.004  1.00  0.00     0.034 A 
HETATM    7  C   UNL     1      42.617 -17.952   5.197  1.00  0.00    -0.038 A 
HETATM    8  C   UNL     1      42.194 -17.513   6.577  1.00  0.00     0.050 C 
HETATM    9  S   UNL     1      41.697 -17.290   1.444  1.00  0.00    -0.063 SA
HETATM   10  C   UNL     1      40.814 -16.171   2.387  1.00  0.00     0.085 A 
HETATM   11  C   UNL     1      41.135 -16.285   3.731  1.00  0.00     0.061 A 
HETATM   12  N   UNL     1      40.606 -15.490   4.692  1.00  0.00    -0.397 N 
HETATM   13  H   UNL     1      39.962 -14.729   4.501  1.00  0.00     0.156 HD
HETATM   14  H   UNL     1      41.071 -15.367   5.586  1.00  0.00     0.156 HD
ENDROOT
BRANCH  10  15
HETATM   15  C   UNL     1      39.885 -15.310   1.674  1.00  0.00     0.201 C 
HETATM   16  O   UNL     1      38.666 -15.337   1.850  1.00  0.00    -0.286 OA
BRANCH  15  17
HETATM   17  C   UNL     1      40.378 -14.329   0.665  1.00  0.00     0.018 A 
HETATM   18  C   UNL     1      41.439 -13.454   0.944  1.00  0.00     0.055 A 
HETATM   19  C   UNL     1      41.838 -12.599  -0.062  1.00  0.00     0.106 A 
HETATM   20  C   UNL     1      41.241 -12.598  -1.303  1.00  0.00     0.105 A 
HETATM   21  O   UNL     1      42.838 -11.680   0.030  1.00  0.00    -0.323 OA
HETATM   22  O   UNL     1      41.791 -11.682  -2.143  1.00  0.00    -0.323 OA
HETATM   23  C   UNL     1      40.210 -13.455  -1.614  1.00  0.00     0.040 A 
HETATM   24  C   UNL     1      42.818 -11.118  -1.300  1.00  0.00     0.352 A 
HETATM   25  C   UNL     1      39.779 -14.334  -0.616  1.00  0.00     0.018 A 
ENDBRANCH  15  17
ENDBRANCH  10  15
BRANCH   1  26
HETATM   26  C   UNL     1      44.306 -19.590   6.243  1.00  0.00     0.036 C 
HETATM   27  C   UNL     1      43.606 -20.847   6.739  1.00  0.00     0.010 C 
ENDBRANCH   1  26
TORSDOF 3
ENDMDL
MODEL 7
REMARK VINA RESULT:      -8.1      4.473      5.123
REMARK  3 active torsions:
REMARK  status: ('A' for Active; 'I' for Inactive)
REMARK    1  A    between atoms: C_2  and  C_3 
REMARK    2  A    between atoms: C_12  and  C_13 
REMARK    3  A    between atoms: C_13  and  C_14 
ROOT
HETATM    1  C   UNL     1      44.255 -19.038   4.335  1.00  0.00    -0.027 A 
HETATM    2  C   UNL     1      44.263 -18.044   5.328  1.00  0.00     0.039 A 
HETATM    3  C   UNL     1      45.134 -18.141   6.552  1.00  0.00     0.071 C 
HETATM    4  N   UNL     1      43.535 -16.917   5.270  1.00  0.00    -0.245 NA
HETATM    5  C   UNL     1      42.731 -16.795   4.202  1.00  0.00     0.111 A 
HETATM    6  C   UNL     1      42.566 -17.703   3.163  1.00  0.00     0.034 A 
HETATM    7  C   UNL     1      43.408 -18.866   3.197  1.00  0.00    -0.038 A 
HETATM    8  C   UNL     1      43.415 -19.891   2.090  1.00  0.00     0.050 C 
HETATM    9  S   UNL     1      41.805 -15.386   4.031  1.00  0.00    -0.063 SA
HETATM   10  C   UNL     1      41.082 -15.945   2.587  1.00  0.00     0.085 A 
HETATM   11  C   UNL     1      41.539 -17.210   2.254  1.00  0.00     0.061 A 
HETATM   12  N   UNL     1      41.098 -17.900   1.174  1.00  0.00    -0.397 N 
HETATM   13  H   UNL     1      40.375 -17.561   0.547  1.00  0.00     0.156 HD
HETATM   14  H   UNL     1      41.189 -18.910   1.124  1.00  0.00     0.156 HD
ENDROOT
BRANCH  10  15
HETATM   15  C   UNL     1      40.144 -15.043   1.938  1.00  0.00     0.201 C 
HETATM   16  O   UNL     1      38.997 -14.850   2.346  1.00  0.00    -0.286 OA
BRANCH  15  17
HETATM   17  C   UNL     1      40.538 -14.289   0.713  1.00  0.00     0.018 A 
HETATM   18  C   UNL     1      39.804 -14.382  -0.478  1.00  0.00     0.055 A 
HETATM   19  C   UNL     1      40.234 -13.629  -1.551  1.00  0.00     0.106 A 
HETATM   20  C   UNL     1      41.333 -12.803  -1.472  1.00  0.00     0.105 A 
HETATM   21  O   UNL     1      39.655 -13.600  -2.782  1.00  0.00    -0.323 OA
HETATM   22  O   UNL     1      41.579 -12.152  -2.639  1.00  0.00    -0.323 OA
HETATM   23  C   UNL     1      42.065 -12.677  -0.313  1.00  0.00     0.040 A 
HETATM   24  C   UNL     1      40.498 -12.643  -3.460  1.00  0.00     0.352 A 
HETATM   25  C   UNL     1      41.657 -13.427   0.793  1.00  0.00     0.018 A 
ENDBRANCH  15  17
ENDBRANCH  10  15
BRANCH   1  26
HETATM   26  C   UNL     1      45.113 -20.281   4.509  1.00  0.00     0.036 C 
HETATM   27  C   UNL     1      44.432 -21.329   5.378  1.00  0.00     0.010 C 
ENDBRANCH   1  26
TORSDOF 3
ENDMDL
MODEL 8
REMARK VINA RESULT:      -8.0      2.185      3.207
REMARK  3 active torsions:
REMARK  status: ('A' for Active; 'I' for Inactive)
REMARK    1  A    between atoms: C_2  and  C_3 
REMARK    2  A    between atoms: C_12  and  C_13 
REMARK    3  A    between atoms: C_13  and  C_14 
ROOT
HETATM    1  C   UNL     1      44.316 -19.999   3.908  1.00  0.00    -0.027 A 
HETATM    2  C   UNL     1      43.899 -20.245   2.589  1.00  0.00     0.039 A 
HETATM    3  C   UNL     1      44.410 -21.416   1.793  1.00  0.00     0.071 C 
HETATM    4  N   UNL     1      42.999 -19.496   1.932  1.00  0.00    -0.245 NA
HETATM    5  C   UNL     1      42.528 -18.430   2.599  1.00  0.00     0.111 A 
HETATM    6  C   UNL     1      42.872 -18.018   3.881  1.00  0.00     0.034 A 
HETATM    7  C   UNL     1      43.775 -18.872   4.600  1.00  0.00    -0.038 A 
HETATM    8  C   UNL     1      44.164 -18.610   6.035  1.00  0.00     0.050 C 
HETATM    9  S   UNL     1      41.360 -17.452   1.857  1.00  0.00    -0.063 SA
HETATM   10  C   UNL     1      41.299 -16.382   3.190  1.00  0.00     0.085 A 
HETATM   11  C   UNL     1      42.183 -16.770   4.184  1.00  0.00     0.061 A 
HETATM   12  N   UNL     1      42.361 -16.075   5.334  1.00  0.00    -0.397 N 
HETATM   13  H   UNL     1      41.889 -15.200   5.541  1.00  0.00     0.156 HD
HETATM   14  H   UNL     1      43.208 -16.178   5.884  1.00  0.00     0.156 HD
ENDROOT
BRANCH  10  15
HETATM   15  C   UNL     1      40.358 -15.278   3.095  1.00  0.00     0.201 C 
HETATM   16  O   UNL     1      39.419 -15.255   2.297  1.00  0.00    -0.286 OA
BRANCH  15  17
HETATM   17  C   UNL     1      40.492 -14.087   3.982  1.00  0.00     0.018 A 
HETATM   18  C   UNL     1      39.643 -13.884   5.079  1.00  0.00     0.055 A 
HETATM   19  C   UNL     1      39.860 -12.764   5.854  1.00  0.00     0.106 A 
HETATM   20  C   UNL     1      40.875 -11.874   5.584  1.00  0.00     0.105 A 
HETATM   21  O   UNL     1      39.133 -12.403   6.946  1.00  0.00    -0.323 OA
HETATM   22  O   UNL     1      40.913 -10.846   6.473  1.00  0.00    -0.323 OA
HETATM   23  C   UNL     1      41.737 -12.052   4.526  1.00  0.00     0.040 A 
HETATM   24  C   UNL     1      39.821 -11.198   7.348  1.00  0.00     0.352 A 
HETATM   25  C   UNL     1      41.543 -13.177   3.719  1.00  0.00     0.018 A 
ENDBRANCH  15  17
ENDBRANCH  10  15
BRANCH   1  26
HETATM   26  C   UNL     1      45.350 -20.908   4.552  1.00  0.00     0.036 C 
HETATM   27  C   UNL     1      44.711 -22.102   5.247  1.00  0.00     0.010 C 
ENDBRANCH   1  26
TORSDOF 3
ENDMDL
MODEL 9
REMARK VINA RESULT:      -7.9      4.490      8.086
REMARK  3 active torsions:
REMARK  status: ('A' for Active; 'I' for Inactive)
REMARK    1  A    between atoms: C_2  and  C_3 
REMARK    2  A    between atoms: C_12  and  C_13 
REMARK    3  A    between atoms: C_13  and  C_14 
ROOT
HETATM    1  C   UNL     1      40.255 -12.296  -0.361  1.00  0.00    -0.027 A 
HETATM    2  C   UNL     1      41.579 -11.947  -0.047  1.00  0.00     0.039 A 
HETATM    3  C   UNL     1      42.284 -10.797  -0.715  1.00  0.00     0.071 C 
HETATM    4  N   UNL     1      42.321 -12.571   0.882  1.00  0.00    -0.245 NA
HETATM    5  C   UNL     1      41.738 -13.614   1.492  1.00  0.00     0.111 A 
HETATM    6  C   UNL     1      40.463 -14.119   1.265  1.00  0.00     0.034 A 
HETATM    7  C   UNL     1      39.653 -13.395   0.326  1.00  0.00    -0.038 A 
HETATM    8  C   UNL     1      38.216 -13.762   0.048  1.00  0.00     0.050 C 
HETATM    9  S   UNL     1      42.591 -14.433   2.706  1.00  0.00    -0.063 SA
HETATM   10  C   UNL     1      41.322 -15.554   2.947  1.00  0.00     0.085 A 
HETATM   11  C   UNL     1      40.263 -15.304   2.088  1.00  0.00     0.061 A 
HETATM   12  N   UNL     1      39.144 -16.068   2.046  1.00  0.00    -0.397 N 
HETATM   13  H   UNL     1      39.009 -16.900   2.613  1.00  0.00     0.156 HD
HETATM   14  H   UNL     1      38.545 -16.076   1.226  1.00  0.00     0.156 HD
ENDROOT
BRANCH  10  15
HETATM   15  C   UNL     1      41.525 -16.552   3.985  1.00  0.00     0.201 C 
HETATM   16  O   UNL     1      40.981 -16.502   5.088  1.00  0.00    -0.286 OA
BRANCH  15  17
HETATM   17  C   UNL     1      42.430 -17.714   3.754  1.00  0.00     0.018 A 
HETATM   18  C   UNL     1      43.100 -18.349   4.810  1.00  0.00     0.055 A 
HETATM   19  C   UNL     1      43.898 -19.430   4.498  1.00  0.00     0.106 A 
HETATM   20  C   UNL     1      44.035 -19.892   3.208  1.00  0.00     0.105 A 
HETATM   21  O   UNL     1      44.626 -20.160   5.387  1.00  0.00    -0.323 OA
HETATM   22  O   UNL     1      44.863 -20.967   3.127  1.00  0.00    -0.323 OA
HETATM   23  C   UNL     1      43.378 -19.302   2.152  1.00  0.00     0.040 A 
HETATM   24  C   UNL     1      45.217 -21.147   4.514  1.00  0.00     0.352 A 
HETATM   25  C   UNL     1      42.562 -18.202   2.432  1.00  0.00     0.018 A 
ENDBRANCH  15  17
ENDBRANCH  10  15
BRANCH   1  26
HETATM   26  C   UNL     1      39.511 -11.527  -1.441  1.00  0.00     0.036 C 
HETATM   27  C   UNL     1      39.681 -12.160  -2.815  1.00  0.00     0.010 C 
ENDBRANCH   1  26
TORSDOF 3
ENDMDL
MODEL 10
REMARK VINA RESULT:      -7.9      2.437      3.402
REMARK  3 active torsions:
REMARK  status: ('A' for Active; 'I' for Inactive)
REMARK    1  A    between atoms: C_2  and  C_3 
REMARK    2  A    between atoms: C_12  and  C_13 
REMARK    3  A    between atoms: C_13  and  C_14 
ROOT
HETATM    1  C   UNL     1      44.179 -18.966   4.089  1.00  0.00    -0.027 A 
HETATM    2  C   UNL     1      44.250 -18.083   5.178  1.00  0.00     0.039 A 
HETATM    3  C   UNL     1      45.237 -18.272   6.300  1.00  0.00     0.071 C 
HETATM    4  N   UNL     1      43.484 -16.988   5.311  1.00  0.00    -0.245 NA
HETATM    5  C   UNL     1      42.578 -16.788   4.341  1.00  0.00     0.111 A 
HETATM    6  C   UNL     1      42.344 -17.587   3.228  1.00  0.00     0.034 A 
HETATM    7  C   UNL     1      43.222 -18.711   3.059  1.00  0.00    -0.038 A 
HETATM    8  C   UNL     1      43.156 -19.612   1.850  1.00  0.00     0.050 C 
HETATM    9  S   UNL     1      41.596 -15.408   4.410  1.00  0.00    -0.063 SA
HETATM   10  C   UNL     1      40.756 -15.842   2.986  1.00  0.00     0.085 A 
HETATM   11  C   UNL     1      41.219 -17.045   2.476  1.00  0.00     0.061 A 
HETATM   12  N   UNL     1      40.699 -17.635   1.373  1.00  0.00    -0.397 N 
HETATM   13  H   UNL     1      39.909 -17.262   0.855  1.00  0.00     0.156 HD
HETATM   14  H   UNL     1      40.817 -18.629   1.205  1.00  0.00     0.156 HD
ENDROOT
BRANCH  10  15
HETATM   15  C   UNL     1      39.732 -14.916   2.528  1.00  0.00     0.201 C 
HETATM   16  O   UNL     1      38.774 -15.256   1.832  1.00  0.00    -0.286 OA
BRANCH  15  17
HETATM   17  C   UNL     1      39.799 -13.471   2.888  1.00  0.00     0.018 A 
HETATM   18  C   UNL     1      39.096 -12.950   3.985  1.00  0.00     0.055 A 
HETATM   19  C   UNL     1      39.240 -11.604   4.251  1.00  0.00     0.106 A 
HETATM   20  C   UNL     1      40.047 -10.789   3.490  1.00  0.00     0.105 A 
HETATM   21  O   UNL     1      38.631 -10.927   5.262  1.00  0.00    -0.323 OA
HETATM   22  O   UNL     1      40.047  -9.502   3.928  1.00  0.00    -0.323 OA
HETATM   23  C   UNL     1      40.763 -11.272   2.418  1.00  0.00     0.040 A 
HETATM   24  C   UNL     1      39.165  -9.600   5.066  1.00  0.00     0.352 A 
HETATM   25  C   UNL     1      40.639 -12.632   2.119  1.00  0.00     0.018 A 
ENDBRANCH  15  17
ENDBRANCH  10  15
BRANCH   1  26
HETATM   26  C   UNL     1      45.088 -20.183   4.047  1.00  0.00     0.036 C 
HETATM   27  C   UNL     1      44.544 -21.334   4.883  1.00  0.00     0.010 C 
ENDBRANCH   1  26
TORSDOF 3
ENDMDL
