MODEL 1
REMARK VINA RESULT:     -10.0      0.000      0.000
REMARK  7 active torsions:
REMARK  status: ('A' for Active; 'I' for Inactive)
REMARK    1  A    between atoms: C_2  and  O_3 
REMARK    2  A    between atoms: O_3  and  C_4 
REMARK    3  A    between atoms: C_7  and  N_8 
REMARK       I    between atoms: N_8  and  C_9 
REMARK    4  A    between atoms: C_9  and  C_10 
REMARK    5  A    between atoms: C_13  and  N_14 
REMARK       I    between atoms: N_14  and  C_15 
REMARK    6  A    between atoms: C_15  and  C_16 
REMARK    7  A    between atoms: C_16  and  N_17 
ROOT
HETATM    1  C   UNL     1      41.224 -15.006   3.751  1.00  0.00     0.032 A 
HETATM    2  C   UNL     1      40.589 -14.883   4.990  1.00  0.00     0.019 A 
HETATM    3  C   UNL     1      41.196 -14.140   6.017  1.00  0.00     0.030 A 
HETATM    4  C   UNL     1      42.444 -13.539   5.817  1.00  0.00     0.034 A 
HETATM    5  C   UNL     1      43.055 -13.646   4.561  1.00  0.00     0.030 A 
HETATM    6  C   UNL     1      42.457 -14.384   3.538  1.00  0.00     0.019 A 
ENDROOT
BRANCH   4   7
HETATM    7  N   UNL     1      43.185 -12.872   6.816  1.00  0.00    -0.326 N 
HETATM    8  C   UNL     1      44.172 -13.394   7.643  1.00  0.00     0.240 C 
HETATM    9  O   UNL     1      44.485 -14.577   7.740  1.00  0.00    -0.271 OA
HETATM   10  H   UNL     1      43.068 -11.866   6.830  1.00  0.00     0.169 HD
BRANCH   8  11
HETATM   11  C   UNL     1      44.853 -12.302   8.482  1.00  0.00     0.240 C 
BRANCH  11  12
HETATM   12  N   UNL     1      43.986 -11.875   9.553  1.00  0.00    -0.259 N 
HETATM   13  C   UNL     1      44.108 -12.318  10.832  1.00  0.00     0.326 A 
HETATM   14  O   UNL     1      44.948 -13.092  11.262  1.00  0.00    -0.247 OA
HETATM   15  N   UNL     1      43.137 -11.721  11.597  1.00  0.00    -0.324 N 
HETATM   16  C   UNL     1      42.383 -10.730  10.858  1.00  0.00     0.116 A 
HETATM   17  H   UNL     1      43.083 -11.895  12.593  1.00  0.00     0.165 HD
HETATM   18  C   UNL     1      42.683  -9.318  11.376  1.00  0.00     0.041 C 
HETATM   19  C   UNL     1      40.887 -11.040  10.836  1.00  0.00     0.041 C 
HETATM   20  C   UNL     1      43.006 -10.929   9.461  1.00  0.00     0.256 A 
HETATM   21  C   UNL     1      42.008  -9.044  12.721  1.00  0.00     0.007 C 
HETATM   22  C   UNL     1      40.500  -9.335  12.707  1.00  0.00    -0.019 C 
HETATM   23  C   UNL     1      39.730  -8.271  11.921  1.00  0.00     0.010 C 
HETATM   24  C   UNL     1      40.216 -10.749  12.180  1.00  0.00     0.007 C 
HETATM   25  O   UNL     1      42.710 -10.294   8.458  1.00  0.00    -0.270 OA
ENDBRANCH  11  12
ENDBRANCH   8  11
ENDBRANCH   4   7
BRANCH   1  26
HETATM   26  C   UNL     1      40.774 -15.971   2.736  1.00  0.00     0.256 C 
HETATM   27  N   UNL     1      41.403 -17.150   2.437  1.00  0.00    -0.323 N 
HETATM   28  H   UNL     1      40.964 -17.555   1.618  1.00  0.00     0.169 HD
HETATM   29  O   UNL     1      39.768 -15.673   2.087  1.00  0.00    -0.267 OA
BRANCH  27  30
HETATM   30  C   UNL     1      42.372 -17.954   3.053  1.00  0.00     0.035 A 
HETATM   31  C   UNL     1      42.526 -18.154   4.421  1.00  0.00     0.032 A 
HETATM   32  C   UNL     1      43.523 -19.022   4.909  1.00  0.00     0.039 A 
HETATM   33  C   UNL     1      44.362 -19.706   4.031  1.00  0.00     0.068 A 
HETATM   34  C   UNL     1      44.192 -19.525   2.662  1.00  0.00     0.039 A 
HETATM   35  C   UNL     1      43.212 -18.658   2.178  1.00  0.00     0.032 A 
BRANCH  33  36
HETATM   36  O   UNL     1      45.357 -20.583   4.355  1.00  0.00    -0.352 OA
BRANCH  36  37
HETATM   37  C   UNL     1      45.036 -21.770   5.076  1.00  0.00     0.171 C 
HETATM   38  C   UNL     1      44.665 -22.889   4.120  1.00  0.00     0.034 C 
ENDBRANCH  36  37
ENDBRANCH  33  36
ENDBRANCH  27  30
ENDBRANCH   1  26
TORSDOF 7
ENDMDL
MODEL 2
REMARK VINA RESULT:      -9.3      4.778      8.810
REMARK  7 active torsions:
REMARK  status: ('A' for Active; 'I' for Inactive)
REMARK    1  A    between atoms: C_2  and  O_3 
REMARK    2  A    between atoms: O_3  and  C_4 
REMARK    3  A    between atoms: C_7  and  N_8 
REMARK       I    between atoms: N_8  and  C_9 
REMARK    4  A    between atoms: C_9  and  C_10 
REMARK    5  A    between atoms: C_13  and  N_14 
REMARK       I    between atoms: N_14  and  C_15 
REMARK    6  A    between atoms: C_15  and  C_16 
REMARK    7  A    between atoms: C_16  and  N_17 
ROOT
HETATM    1  C   UNL     1      42.982 -16.585   6.917  1.00  0.00     0.032 A 
HETATM    2  C   UNL     1      41.757 -16.806   6.282  1.00  0.00     0.019 A 
HETATM    3  C   UNL     1      41.276 -15.876   5.345  1.00  0.00     0.030 A 
HETATM    4  C   UNL     1      42.004 -14.717   5.056  1.00  0.00     0.034 A 
HETATM    5  C   UNL     1      43.245 -14.523   5.677  1.00  0.00     0.030 A 
HETATM    6  C   UNL     1      43.726 -15.443   6.610  1.00  0.00     0.019 A 
ENDROOT
BRANCH   4   7
HETATM    7  N   UNL     1      41.556 -13.672   4.220  1.00  0.00    -0.326 N 
HETATM    8  C   UNL     1      42.156 -13.179   3.068  1.00  0.00     0.240 C 
HETATM    9  O   UNL     1      43.265 -13.485   2.642  1.00  0.00    -0.271 OA
HETATM   10  H   UNL     1      40.619 -13.340   4.420  1.00  0.00     0.169 HD
BRANCH   8  11
HETATM   11  C   UNL     1      41.266 -12.149   2.355  1.00  0.00     0.240 C 
BRANCH  11  12
HETATM   12  N   UNL     1      41.126 -12.486   0.959  1.00  0.00    -0.259 N 
HETATM   13  C   UNL     1      41.935 -11.987  -0.013  1.00  0.00     0.326 A 
HETATM   14  O   UNL     1      42.880 -11.230   0.138  1.00  0.00    -0.247 OA
HETATM   15  N   UNL     1      41.538 -12.505  -1.222  1.00  0.00    -0.324 N 
HETATM   16  C   UNL     1      40.492 -13.496  -1.082  1.00  0.00     0.116 A 
HETATM   17  H   UNL     1      42.041 -12.281  -2.071  1.00  0.00     0.165 HD
HETATM   18  C   UNL     1      41.014 -14.893  -1.439  1.00  0.00     0.041 C 
HETATM   19  C   UNL     1      39.233 -13.123  -1.862  1.00  0.00     0.041 C 
HETATM   20  C   UNL     1      40.248 -13.392   0.438  1.00  0.00     0.256 A 
HETATM   21  C   UNL     1      41.185 -15.072  -2.949  1.00  0.00     0.007 C 
HETATM   22  C   UNL     1      39.921 -14.718  -3.745  1.00  0.00    -0.019 C 
HETATM   23  C   UNL     1      38.835 -15.784  -3.579  1.00  0.00     0.010 C 
HETATM   24  C   UNL     1      39.408 -13.320  -3.370  1.00  0.00     0.007 C 
HETATM   25  O   UNL     1      39.443 -14.061   1.072  1.00  0.00    -0.270 OA
ENDBRANCH  11  12
ENDBRANCH   8  11
ENDBRANCH   4   7
BRANCH   1  26
HETATM   26  C   UNL     1      43.413 -17.374   8.082  1.00  0.00     0.256 C 
HETATM   27  N   UNL     1      43.716 -18.708   8.060  1.00  0.00    -0.323 N 
HETATM   28  H   UNL     1      43.854 -19.027   9.013  1.00  0.00     0.169 HD
HETATM   29  O   UNL     1      43.474 -16.785   9.164  1.00  0.00    -0.267 OA
BRANCH  27  30
HETATM   30  C   UNL     1      44.003 -19.656   7.067  1.00  0.00     0.035 A 
HETATM   31  C   UNL     1      43.732 -21.019   7.130  1.00  0.00     0.032 A 
HETATM   32  C   UNL     1      44.040 -21.859   6.041  1.00  0.00     0.039 A 
HETATM   33  C   UNL     1      44.606 -21.340   4.878  1.00  0.00     0.068 A 
HETATM   34  C   UNL     1      44.854 -19.972   4.807  1.00  0.00     0.039 A 
HETATM   35  C   UNL     1      44.560 -19.141   5.888  1.00  0.00     0.032 A 
BRANCH  33  36
HETATM   36  O   UNL     1      44.944 -22.024   3.747  1.00  0.00    -0.352 OA
BRANCH  36  37
HETATM   37  C   UNL     1      44.864 -21.371   2.484  1.00  0.00     0.171 C 
HETATM   38  C   UNL     1      43.621 -21.812   1.733  1.00  0.00     0.034 C 
ENDBRANCH  36  37
ENDBRANCH  33  36
ENDBRANCH  27  30
ENDBRANCH   1  26
TORSDOF 7
ENDMDL
MODEL 3
REMARK VINA RESULT:      -9.2      4.974      8.628
REMARK  7 active torsions:
REMARK  status: ('A' for Active; 'I' for Inactive)
REMARK    1  A    between atoms: C_2  and  O_3 
REMARK    2  A    between atoms: O_3  and  C_4 
REMARK    3  A    between atoms: C_7  and  N_8 
REMARK       I    between atoms: N_8  and  C_9 
REMARK    4  A    between atoms: C_9  and  C_10 
REMARK    5  A    between atoms: C_13  and  N_14 
REMARK       I    between atoms: N_14  and  C_15 
REMARK    6  A    between atoms: C_15  and  C_16 
REMARK    7  A    between atoms: C_16  and  N_17 
ROOT
HETATM    1  C   UNL     1      42.583 -16.633   7.023  1.00  0.00     0.032 A 
HETATM    2  C   UNL     1      43.152 -15.636   6.227  1.00  0.00     0.019 A 
HETATM    3  C   UNL     1      42.420 -15.090   5.159  1.00  0.00     0.030 A 
HETATM    4  C   UNL     1      41.131 -15.552   4.871  1.00  0.00     0.034 A 
HETATM    5  C   UNL     1      40.561 -16.530   5.696  1.00  0.00     0.030 A 
HETATM    6  C   UNL     1      41.285 -17.077   6.757  1.00  0.00     0.019 A 
ENDROOT
BRANCH   4   7
HETATM    7  N   UNL     1      40.363 -15.151   3.757  1.00  0.00    -0.326 N 
HETATM    8  C   UNL     1      40.432 -15.625   2.453  1.00  0.00     0.240 C 
HETATM    9  O   UNL     1      41.276 -16.396   2.006  1.00  0.00    -0.271 OA
HETATM   10  H   UNL     1      39.584 -14.542   3.976  1.00  0.00     0.169 HD
BRANCH   8  11
HETATM   11  C   UNL     1      39.311 -15.050   1.574  1.00  0.00     0.240 C 
BRANCH  11  12
HETATM   12  N   UNL     1      39.797 -13.929   0.807  1.00  0.00    -0.259 N 
HETATM   13  C   UNL     1      39.925 -12.676   1.318  1.00  0.00     0.326 A 
HETATM   14  O   UNL     1      39.684 -12.323   2.460  1.00  0.00    -0.247 OA
HETATM   15  N   UNL     1      40.412 -11.850   0.334  1.00  0.00    -0.324 N 
HETATM   16  C   UNL     1      40.754 -12.570  -0.874  1.00  0.00     0.116 A 
HETATM   17  H   UNL     1      40.611 -10.877   0.528  1.00  0.00     0.165 HD
HETATM   18  C   UNL     1      42.272 -12.578  -1.092  1.00  0.00     0.041 C 
HETATM   19  C   UNL     1      39.989 -12.055  -2.091  1.00  0.00     0.041 C 
HETATM   20  C   UNL     1      40.266 -13.979  -0.474  1.00  0.00     0.256 A 
HETATM   21  C   UNL     1      42.788 -11.222  -1.578  1.00  0.00     0.007 C 
HETATM   22  C   UNL     1      42.039 -10.701  -2.813  1.00  0.00    -0.019 C 
HETATM   23  C   UNL     1      42.423 -11.480  -4.074  1.00  0.00     0.010 C 
HETATM   24  C   UNL     1      40.522 -10.706  -2.580  1.00  0.00     0.007 C 
HETATM   25  O   UNL     1      40.351 -14.981  -1.172  1.00  0.00    -0.270 OA
ENDBRANCH  11  12
ENDBRANCH   8  11
ENDBRANCH   4   7
BRANCH   1  26
HETATM   26  C   UNL     1      43.378 -17.419   7.980  1.00  0.00     0.256 C 
HETATM   27  N   UNL     1      43.904 -18.658   7.734  1.00  0.00    -0.323 N 
HETATM   28  H   UNL     1      44.291 -19.025   8.597  1.00  0.00     0.169 HD
HETATM   29  O   UNL     1      43.555 -16.927   9.098  1.00  0.00    -0.267 OA
BRANCH  27  30
HETATM   30  C   UNL     1      44.145 -19.438   6.594  1.00  0.00     0.035 A 
HETATM   31  C   UNL     1      44.676 -18.990   5.389  1.00  0.00     0.032 A 
HETATM   32  C   UNL     1      44.904 -19.891   4.330  1.00  0.00     0.039 A 
HETATM   33  C   UNL     1      44.615 -21.247   4.474  1.00  0.00     0.068 A 
HETATM   34  C   UNL     1      44.106 -21.699   5.688  1.00  0.00     0.039 A 
HETATM   35  C   UNL     1      43.871 -20.806   6.734  1.00  0.00     0.032 A 
BRANCH  33  36
HETATM   36  O   UNL     1      44.793 -22.232   3.546  1.00  0.00    -0.352 OA
BRANCH  36  37
HETATM   37  C   UNL     1      44.742 -21.907   2.160  1.00  0.00     0.171 C 
HETATM   38  C   UNL     1      43.305 -21.709   1.712  1.00  0.00     0.034 C 
ENDBRANCH  36  37
ENDBRANCH  33  36
ENDBRANCH  27  30
ENDBRANCH   1  26
TORSDOF 7
ENDMDL
MODEL 4
REMARK VINA RESULT:      -9.0      2.072      2.808
REMARK  7 active torsions:
REMARK  status: ('A' for Active; 'I' for Inactive)
REMARK    1  A    between atoms: C_2  and  O_3 
REMARK    2  A    between atoms: O_3  and  C_4 
REMARK    3  A    between atoms: C_7  and  N_8 
REMARK       I    between atoms: N_8  and  C_9 
REMARK    4  A    between atoms: C_9  and  C_10 
REMARK    5  A    between atoms: C_13  and  N_14 
REMARK       I    between atoms: N_14  and  C_15 
REMARK    6  A    between atoms: C_15  and  C_16 
REMARK    7  A    between atoms: C_16  and  N_17 
ROOT
HETATM    1  C   UNL     1      40.144 -14.048   2.957  1.00  0.00     0.032 A 
HETATM    2  C   UNL     1      40.546 -12.865   2.332  1.00  0.00     0.019 A 
HETATM    3  C   UNL     1      40.976 -11.775   3.108  1.00  0.00     0.030 A 
HETATM    4  C   UNL     1      40.986 -11.856   4.505  1.00  0.00     0.034 A 
HETATM    5  C   UNL     1      40.610 -13.060   5.117  1.00  0.00     0.030 A 
HETATM    6  C   UNL     1      40.179 -14.144   4.351  1.00  0.00     0.019 A 
ENDROOT
BRANCH   4   7
HETATM    7  N   UNL     1      41.291 -10.786   5.371  1.00  0.00    -0.326 N 
HETATM    8  C   UNL     1      40.500 -10.246   6.378  1.00  0.00     0.240 C 
HETATM    9  O   UNL     1      39.327 -10.527   6.607  1.00  0.00    -0.271 OA
HETATM   10  H   UNL     1      42.253 -10.469   5.333  1.00  0.00     0.169 HD
BRANCH   8  11
HETATM   11  C   UNL     1      41.260  -9.198   7.205  1.00  0.00     0.240 C 
BRANCH  11  12
HETATM   12  N   UNL     1      41.594  -9.728   8.505  1.00  0.00    -0.259 N 
HETATM   13  C   UNL     1      42.455 -10.764   8.689  1.00  0.00     0.326 A 
HETATM   14  O   UNL     1      43.072 -11.365   7.825  1.00  0.00    -0.247 OA
HETATM   15  N   UNL     1      42.553 -11.018  10.035  1.00  0.00    -0.324 N 
HETATM   16  C   UNL     1      41.833 -10.049  10.834  1.00  0.00     0.116 A 
HETATM   17  H   UNL     1      43.178 -11.735  10.382  1.00  0.00     0.165 HD
HETATM   18  C   UNL     1      42.804  -9.171  11.632  1.00  0.00     0.041 C 
HETATM   19  C   UNL     1      40.772 -10.702  11.717  1.00  0.00     0.041 C 
HETATM   20  C   UNL     1      41.178  -9.227   9.704  1.00  0.00     0.256 A 
HETATM   21  C   UNL     1      43.411  -9.920  12.821  1.00  0.00     0.007 C 
HETATM   22  C   UNL     1      42.354 -10.567  13.727  1.00  0.00    -0.019 C 
HETATM   23  C   UNL     1      41.611  -9.519  14.561  1.00  0.00     0.010 C 
HETATM   24  C   UNL     1      41.386 -11.436  12.912  1.00  0.00     0.007 C 
HETATM   25  O   UNL     1      40.458  -8.251   9.867  1.00  0.00    -0.270 OA
ENDBRANCH  11  12
ENDBRANCH   8  11
ENDBRANCH   4   7
BRANCH   1  26
HETATM   26  C   UNL     1      39.445 -15.119   2.228  1.00  0.00     0.256 C 
HETATM   27  N   UNL     1      39.943 -16.374   2.005  1.00  0.00    -0.323 N 
HETATM   28  H   UNL     1      39.321 -16.864   1.372  1.00  0.00     0.169 HD
HETATM   29  O   UNL     1      38.337 -14.846   1.760  1.00  0.00    -0.267 OA
BRANCH  27  30
HETATM   30  C   UNL     1      40.986 -17.147   2.533  1.00  0.00     0.035 A 
HETATM   31  C   UNL     1      41.225 -17.397   3.880  1.00  0.00     0.032 A 
HETATM   32  C   UNL     1      42.293 -18.227   4.275  1.00  0.00     0.039 A 
HETATM   33  C   UNL     1      43.120 -18.824   3.325  1.00  0.00     0.068 A 
HETATM   34  C   UNL     1      42.866 -18.594   1.976  1.00  0.00     0.039 A 
HETATM   35  C   UNL     1      41.816 -17.764   1.584  1.00  0.00     0.032 A 
BRANCH  33  36
HETATM   36  O   UNL     1      44.176 -19.656   3.556  1.00  0.00    -0.352 OA
BRANCH  36  37
HETATM   37  C   UNL     1      44.689 -20.450   2.490  1.00  0.00     0.171 C 
HETATM   38  C   UNL     1      44.333 -21.911   2.695  1.00  0.00     0.034 C 
ENDBRANCH  36  37
ENDBRANCH  33  36
ENDBRANCH  27  30
ENDBRANCH   1  26
TORSDOF 7
ENDMDL
MODEL 5
REMARK VINA RESULT:      -8.7      4.159      7.351
REMARK  7 active torsions:
REMARK  status: ('A' for Active; 'I' for Inactive)
REMARK    1  A    between atoms: C_2  and  O_3 
REMARK    2  A    between atoms: O_3  and  C_4 
REMARK    3  A    between atoms: C_7  and  N_8 
REMARK       I    between atoms: N_8  and  C_9 
REMARK    4  A    between atoms: C_9  and  C_10 
REMARK    5  A    between atoms: C_13  and  N_14 
REMARK       I    between atoms: N_14  and  C_15 
REMARK    6  A    between atoms: C_15  and  C_16 
REMARK    7  A    between atoms: C_16  and  N_17 
ROOT
HETATM    1  C   UNL     1      42.995 -16.583   7.119  1.00  0.00     0.032 A 
HETATM    2  C   UNL     1      41.682 -16.592   6.644  1.00  0.00     0.019 A 
HETATM    3  C   UNL     1      41.198 -15.499   5.904  1.00  0.00     0.030 A 
HETATM    4  C   UNL     1      42.014 -14.390   5.658  1.00  0.00     0.034 A 
HETATM    5  C   UNL     1      43.339 -14.408   6.114  1.00  0.00     0.030 A 
HETATM    6  C   UNL     1      43.824 -15.491   6.851  1.00  0.00     0.019 A 
ENDROOT
BRANCH   4   7
HETATM    7  N   UNL     1      41.589 -13.202   5.027  1.00  0.00    -0.326 N 
HETATM    8  C   UNL     1      41.377 -11.954   5.602  1.00  0.00     0.240 C 
HETATM    9  O   UNL     1      41.400 -11.697   6.802  1.00  0.00    -0.271 OA
HETATM   10  H   UNL     1      41.566 -13.243   4.015  1.00  0.00     0.169 HD
BRANCH   8  11
HETATM   11  C   UNL     1      41.078 -10.880   4.546  1.00  0.00     0.240 C 
BRANCH  11  12
HETATM   12  N   UNL     1      40.086 -11.354   3.612  1.00  0.00    -0.259 N 
HETATM   13  C   UNL     1      38.753 -11.139   3.768  1.00  0.00     0.326 A 
HETATM   14  O   UNL     1      38.212 -10.518   4.668  1.00  0.00    -0.247 OA
HETATM   15  N   UNL     1      38.090 -11.715   2.712  1.00  0.00    -0.324 N 
HETATM   16  C   UNL     1      38.995 -12.247   1.715  1.00  0.00     0.116 A 
HETATM   17  H   UNL     1      37.085 -11.633   2.626  1.00  0.00     0.165 HD
HETATM   18  C   UNL     1      38.920 -11.430   0.420  1.00  0.00     0.041 C 
HETATM   19  C   UNL     1      38.782 -13.741   1.479  1.00  0.00     0.041 C 
HETATM   20  C   UNL     1      40.337 -11.989   2.431  1.00  0.00     0.256 A 
HETATM   21  C   UNL     1      37.643 -11.723  -0.370  1.00  0.00     0.007 C 
HETATM   22  C   UNL     1      37.426 -13.220  -0.630  1.00  0.00    -0.019 C 
HETATM   23  C   UNL     1      38.395 -13.753  -1.689  1.00  0.00     0.010 C 
HETATM   24  C   UNL     1      37.511 -14.024   0.675  1.00  0.00     0.007 C 
HETATM   25  O   UNL     1      41.443 -12.255   1.977  1.00  0.00    -0.270 OA
ENDBRANCH  11  12
ENDBRANCH   8  11
ENDBRANCH   4   7
BRANCH   1  26
HETATM   26  C   UNL     1      43.476 -17.563   8.107  1.00  0.00     0.256 C 
HETATM   27  N   UNL     1      43.808 -18.861   7.830  1.00  0.00    -0.323 N 
HETATM   28  H   UNL     1      43.980 -19.347   8.703  1.00  0.00     0.169 HD
HETATM   29  O   UNL     1      43.553 -17.184   9.279  1.00  0.00    -0.267 OA
BRANCH  27  30
HETATM   30  C   UNL     1      44.089 -19.600   6.672  1.00  0.00     0.035 A 
HETATM   31  C   UNL     1      44.633 -19.103   5.491  1.00  0.00     0.032 A 
HETATM   32  C   UNL     1      44.901 -19.965   4.410  1.00  0.00     0.039 A 
HETATM   33  C   UNL     1      44.641 -21.331   4.507  1.00  0.00     0.068 A 
HETATM   34  C   UNL     1      44.120 -21.832   5.697  1.00  0.00     0.039 A 
HETATM   35  C   UNL     1      43.844 -20.977   6.765  1.00  0.00     0.032 A 
BRANCH  33  36
HETATM   36  O   UNL     1      44.860 -22.283   3.554  1.00  0.00    -0.352 OA
BRANCH  36  37
HETATM   37  C   UNL     1      44.747 -21.934   2.177  1.00  0.00     0.171 C 
HETATM   38  C   UNL     1      43.309 -21.599   1.829  1.00  0.00     0.034 C 
ENDBRANCH  36  37
ENDBRANCH  33  36
ENDBRANCH  27  30
ENDBRANCH   1  26
TORSDOF 7
ENDMDL
MODEL 6
REMARK VINA RESULT:      -8.7      2.333      4.738
REMARK  7 active torsions:
REMARK  status: ('A' for Active; 'I' for Inactive)
REMARK    1  A    between atoms: C_2  and  O_3 
REMARK    2  A    between atoms: O_3  and  C_4 
REMARK    3  A    between atoms: C_7  and  N_8 
REMARK       I    between atoms: N_8  and  C_9 
REMARK    4  A    between atoms: C_9  and  C_10 
REMARK    5  A    between atoms: C_13  and  N_14 
REMARK       I    between atoms: N_14  and  C_15 
REMARK    6  A    between atoms: C_15  and  C_16 
REMARK    7  A    between atoms: C_16  and  N_17 
ROOT
HETATM    1  C   UNL     1      41.812 -15.718   4.026  1.00  0.00     0.032 A 
HETATM    2  C   UNL     1      40.954 -15.223   5.011  1.00  0.00     0.019 A 
HETATM    3  C   UNL     1      41.426 -14.282   5.942  1.00  0.00     0.030 A 
HETATM    4  C   UNL     1      42.757 -13.852   5.906  1.00  0.00     0.034 A 
HETATM    5  C   UNL     1      43.598 -14.333   4.893  1.00  0.00     0.030 A 
HETATM    6  C   UNL     1      43.134 -15.269   3.967  1.00  0.00     0.019 A 
ENDROOT
BRANCH   4   7
HETATM    7  N   UNL     1      43.355 -13.002   6.860  1.00  0.00    -0.326 N 
HETATM    8  C   UNL     1      44.298 -13.328   7.827  1.00  0.00     0.240 C 
HETATM    9  O   UNL     1      44.685 -14.458   8.108  1.00  0.00    -0.271 OA
HETATM   10  H   UNL     1      43.165 -12.016   6.728  1.00  0.00     0.169 HD
BRANCH   8  11
HETATM   11  C   UNL     1      44.820 -12.084   8.561  1.00  0.00     0.240 C 
BRANCH  11  12
HETATM   12  N   UNL     1      43.940 -11.735   9.651  1.00  0.00    -0.259 N 
HETATM   13  C   UNL     1      44.075 -12.237  10.907  1.00  0.00     0.326 A 
HETATM   14  O   UNL     1      44.937 -13.005  11.300  1.00  0.00    -0.247 OA
HETATM   15  N   UNL     1      43.086 -11.706  11.699  1.00  0.00    -0.324 N 
HETATM   16  C   UNL     1      42.303 -10.704  11.008  1.00  0.00     0.116 A 
HETATM   17  H   UNL     1      43.037 -11.930  12.685  1.00  0.00     0.165 HD
HETATM   18  C   UNL     1      42.561  -9.310  11.593  1.00  0.00     0.041 C 
HETATM   19  C   UNL     1      40.817 -11.057  10.967  1.00  0.00     0.041 C 
HETATM   20  C   UNL     1      42.933 -10.816   9.603  1.00  0.00     0.256 A 
HETATM   21  C   UNL     1      41.877  -9.122  12.949  1.00  0.00     0.007 C 
HETATM   22  C   UNL     1      40.379  -9.457  12.919  1.00  0.00    -0.019 C 
HETATM   23  C   UNL     1      39.577  -8.379  12.184  1.00  0.00     0.010 C 
HETATM   24  C   UNL     1      40.138 -10.851  12.323  1.00  0.00     0.007 C 
HETATM   25  O   UNL     1      42.617 -10.142   8.631  1.00  0.00    -0.270 OA
ENDBRANCH  11  12
ENDBRANCH   8  11
ENDBRANCH   4   7
BRANCH   1  26
HETATM   26  C   UNL     1      41.460 -16.881   3.195  1.00  0.00     0.256 C 
HETATM   27  N   UNL     1      40.827 -16.820   1.984  1.00  0.00    -0.323 N 
HETATM   28  H   UNL     1      40.590 -17.762   1.692  1.00  0.00     0.169 HD
HETATM   29  O   UNL     1      41.736 -17.995   3.648  1.00  0.00    -0.267 OA
BRANCH  27  30
HETATM   30  C   UNL     1      40.567 -15.820   1.036  1.00  0.00     0.035 A 
HETATM   31  C   UNL     1      41.283 -15.591  -0.134  1.00  0.00     0.032 A 
HETATM   32  C   UNL     1      40.891 -14.570  -1.023  1.00  0.00     0.039 A 
HETATM   33  C   UNL     1      39.773 -13.782  -0.754  1.00  0.00     0.068 A 
HETATM   34  C   UNL     1      39.043 -14.027   0.405  1.00  0.00     0.039 A 
HETATM   35  C   UNL     1      39.436 -15.031   1.291  1.00  0.00     0.032 A 
BRANCH  33  36
HETATM   36  O   UNL     1      39.270 -12.773  -1.523  1.00  0.00    -0.352 OA
BRANCH  36  37
HETATM   37  C   UNL     1      37.903 -12.814  -1.924  1.00  0.00     0.171 C 
HETATM   38  C   UNL     1      37.713 -13.794  -3.067  1.00  0.00     0.034 C 
ENDBRANCH  36  37
ENDBRANCH  33  36
ENDBRANCH  27  30
ENDBRANCH   1  26
TORSDOF 7
ENDMDL
MODEL 7
REMARK VINA RESULT:      -8.6      2.484      3.145
REMARK  7 active torsions:
REMARK  status: ('A' for Active; 'I' for Inactive)
REMARK    1  A    between atoms: C_2  and  O_3 
REMARK    2  A    between atoms: O_3  and  C_4 
REMARK    3  A    between atoms: C_7  and  N_8 
REMARK       I    between atoms: N_8  and  C_9 
REMARK    4  A    between atoms: C_9  and  C_10 
REMARK    5  A    between atoms: C_13  and  N_14 
REMARK       I    between atoms: N_14  and  C_15 
REMARK    6  A    between atoms: C_15  and  C_16 
REMARK    7  A    between atoms: C_16  and  N_17 
ROOT
HETATM    1  C   UNL     1      41.643 -13.885   2.605  1.00  0.00     0.032 A 
HETATM    2  C   UNL     1      42.544 -13.275   3.481  1.00  0.00     0.019 A 
HETATM    3  C   UNL     1      42.065 -12.589   4.612  1.00  0.00     0.030 A 
HETATM    4  C   UNL     1      40.691 -12.493   4.856  1.00  0.00     0.034 A 
HETATM    5  C   UNL     1      39.801 -13.136   3.986  1.00  0.00     0.030 A 
HETATM    6  C   UNL     1      40.271 -13.817   2.861  1.00  0.00     0.019 A 
ENDROOT
BRANCH   4   7
HETATM    7  N   UNL     1      40.110 -11.736   5.894  1.00  0.00    -0.326 N 
HETATM    8  C   UNL     1      40.386 -10.422   6.255  1.00  0.00     0.240 C 
HETATM    9  O   UNL     1      41.290  -9.724   5.809  1.00  0.00    -0.271 OA
HETATM   10  H   UNL     1      39.305 -12.166   6.335  1.00  0.00     0.169 HD
BRANCH   8  11
HETATM   11  C   UNL     1      39.418  -9.909   7.333  1.00  0.00     0.240 C 
BRANCH  11  12
HETATM   12  N   UNL     1      39.884 -10.280   8.647  1.00  0.00    -0.259 N 
HETATM   13  C   UNL     1      39.568 -11.460   9.244  1.00  0.00     0.326 A 
HETATM   14  O   UNL     1      38.892 -12.360   8.774  1.00  0.00    -0.247 OA
HETATM   15  N   UNL     1      40.169 -11.500  10.478  1.00  0.00    -0.324 N 
HETATM   16  C   UNL     1      41.037 -10.365  10.708  1.00  0.00     0.116 A 
HETATM   17  H   UNL     1      40.083 -12.318  11.068  1.00  0.00     0.165 HD
HETATM   18  C   UNL     1      42.507 -10.801  10.746  1.00  0.00     0.041 C 
HETATM   19  C   UNL     1      40.630  -9.567  11.945  1.00  0.00     0.041 C 
HETATM   20  C   UNL     1      40.752  -9.565   9.420  1.00  0.00     0.256 A 
HETATM   21  C   UNL     1      42.858 -11.521  12.050  1.00  0.00     0.007 C 
HETATM   22  C   UNL     1      42.470 -10.721  13.302  1.00  0.00    -0.019 C 
HETATM   23  C   UNL     1      43.407  -9.529  13.520  1.00  0.00     0.010 C 
HETATM   24  C   UNL     1      40.999 -10.287  13.244  1.00  0.00     0.007 C 
HETATM   25  O   UNL     1      41.273  -8.498   9.120  1.00  0.00    -0.270 OA
ENDBRANCH  11  12
ENDBRANCH   8  11
ENDBRANCH   4   7
BRANCH   1  26
HETATM   26  C   UNL     1      42.055 -14.386   1.285  1.00  0.00     0.256 C 
HETATM   27  N   UNL     1      42.816 -15.503   1.070  1.00  0.00    -0.323 N 
HETATM   28  H   UNL     1      43.062 -15.547   0.086  1.00  0.00     0.169 HD
HETATM   29  O   UNL     1      41.708 -13.726   0.302  1.00  0.00    -0.267 OA
BRANCH  27  30
HETATM   30  C   UNL     1      43.198 -16.619   1.828  1.00  0.00     0.035 A 
HETATM   31  C   UNL     1      43.346 -16.661   3.211  1.00  0.00     0.032 A 
HETATM   32  C   UNL     1      43.700 -17.863   3.855  1.00  0.00     0.039 A 
HETATM   33  C   UNL     1      43.896 -19.033   3.123  1.00  0.00     0.068 A 
HETATM   34  C   UNL     1      43.725 -18.996   1.742  1.00  0.00     0.039 A 
HETATM   35  C   UNL     1      43.384 -17.804   1.102  1.00  0.00     0.032 A 
BRANCH  33  36
HETATM   36  O   UNL     1      44.228 -20.264   3.608  1.00  0.00    -0.352 OA
BRANCH  36  37
HETATM   37  C   UNL     1      44.647 -20.394   4.963  1.00  0.00     0.171 C 
HETATM   38  C   UNL     1      44.811 -21.857   5.333  1.00  0.00     0.034 C 
ENDBRANCH  36  37
ENDBRANCH  33  36
ENDBRANCH  27  30
ENDBRANCH   1  26
TORSDOF 7
ENDMDL
MODEL 8
REMARK VINA RESULT:      -8.6      4.674      8.686
REMARK  7 active torsions:
REMARK  status: ('A' for Active; 'I' for Inactive)
REMARK    1  A    between atoms: C_2  and  O_3 
REMARK    2  A    between atoms: O_3  and  C_4 
REMARK    3  A    between atoms: C_7  and  N_8 
REMARK       I    between atoms: N_8  and  C_9 
REMARK    4  A    between atoms: C_9  and  C_10 
REMARK    5  A    between atoms: C_13  and  N_14 
REMARK       I    between atoms: N_14  and  C_15 
REMARK    6  A    between atoms: C_15  and  C_16 
REMARK    7  A    between atoms: C_16  and  N_17 
ROOT
HETATM    1  C   UNL     1      43.072 -16.473   6.825  1.00  0.00     0.032 A 
HETATM    2  C   UNL     1      41.927 -16.690   6.055  1.00  0.00     0.019 A 
HETATM    3  C   UNL     1      41.467 -15.686   5.185  1.00  0.00     0.030 A 
HETATM    4  C   UNL     1      42.134 -14.460   5.099  1.00  0.00     0.034 A 
HETATM    5  C   UNL     1      43.299 -14.267   5.854  1.00  0.00     0.030 A 
HETATM    6  C   UNL     1      43.759 -15.261   6.721  1.00  0.00     0.019 A 
ENDROOT
BRANCH   4   7
HETATM    7  N   UNL     1      41.689 -13.353   4.346  1.00  0.00    -0.326 N 
HETATM    8  C   UNL     1      42.146 -12.919   3.108  1.00  0.00     0.240 C 
HETATM    9  O   UNL     1      43.120 -13.356   2.502  1.00  0.00    -0.271 OA
HETATM   10  H   UNL     1      40.850 -12.908   4.700  1.00  0.00     0.169 HD
BRANCH   8  11
HETATM   11  C   UNL     1      41.289 -11.773   2.549  1.00  0.00     0.240 C 
BRANCH  11  12
HETATM   12  N   UNL     1      41.064 -11.955   1.136  1.00  0.00    -0.259 N 
HETATM   13  C   UNL     1      39.948 -12.541   0.628  1.00  0.00     0.326 A 
HETATM   14  O   UNL     1      38.993 -12.965   1.257  1.00  0.00    -0.247 OA
HETATM   15  N   UNL     1      40.046 -12.556  -0.742  1.00  0.00    -0.324 N 
HETATM   16  C   UNL     1      41.213 -11.847  -1.221  1.00  0.00     0.116 A 
HETATM   17  H   UNL     1      39.292 -12.922  -1.310  1.00  0.00     0.165 HD
HETATM   18  C   UNL     1      40.808 -10.563  -1.955  1.00  0.00     0.041 C 
HETATM   19  C   UNL     1      42.129 -12.738  -2.058  1.00  0.00     0.041 C 
HETATM   20  C   UNL     1      41.870 -11.501   0.132  1.00  0.00     0.256 A 
HETATM   21  C   UNL     1      40.233 -10.854  -3.343  1.00  0.00     0.007 C 
HETATM   22  C   UNL     1      41.152 -11.734  -4.203  1.00  0.00    -0.019 C 
HETATM   23  C   UNL     1      42.375 -10.957  -4.695  1.00  0.00     0.010 C 
HETATM   24  C   UNL     1      41.554 -13.010  -3.450  1.00  0.00     0.007 C 
HETATM   25  O   UNL     1      42.909 -10.868   0.272  1.00  0.00    -0.270 OA
ENDBRANCH  11  12
ENDBRANCH   8  11
ENDBRANCH   4   7
BRANCH   1  26
HETATM   26  C   UNL     1      43.452 -17.367   7.930  1.00  0.00     0.256 C 
HETATM   27  N   UNL     1      43.739 -18.699   7.802  1.00  0.00    -0.323 N 
HETATM   28  H   UNL     1      43.840 -19.101   8.728  1.00  0.00     0.169 HD
HETATM   29  O   UNL     1      43.483 -16.875   9.062  1.00  0.00    -0.267 OA
BRANCH  27  30
HETATM   30  C   UNL     1      44.048 -19.561   6.741  1.00  0.00     0.035 A 
HETATM   31  C   UNL     1      44.707 -19.215   5.565  1.00  0.00     0.032 A 
HETATM   32  C   UNL     1      44.989 -20.192   4.591  1.00  0.00     0.039 A 
HETATM   33  C   UNL     1      44.629 -21.523   4.791  1.00  0.00     0.068 A 
HETATM   34  C   UNL     1      43.992 -21.874   5.978  1.00  0.00     0.039 A 
HETATM   35  C   UNL     1      43.702 -20.906   6.940  1.00  0.00     0.032 A 
BRANCH  33  36
HETATM   36  O   UNL     1      44.848 -22.574   3.948  1.00  0.00    -0.352 OA
BRANCH  36  37
HETATM   37  C   UNL     1      44.949 -22.337   2.547  1.00  0.00     0.171 C 
HETATM   38  C   UNL     1      43.608 -21.906   1.981  1.00  0.00     0.034 C 
ENDBRANCH  36  37
ENDBRANCH  33  36
ENDBRANCH  27  30
ENDBRANCH   1  26
TORSDOF 7
ENDMDL
MODEL 9
REMARK VINA RESULT:      -8.5      4.220      7.074
REMARK  7 active torsions:
REMARK  status: ('A' for Active; 'I' for Inactive)
REMARK    1  A    between atoms: C_2  and  O_3 
REMARK    2  A    between atoms: O_3  and  C_4 
REMARK    3  A    between atoms: C_7  and  N_8 
REMARK       I    between atoms: N_8  and  C_9 
REMARK    4  A    between atoms: C_9  and  C_10 
REMARK    5  A    between atoms: C_13  and  N_14 
REMARK       I    between atoms: N_14  and  C_15 
REMARK    6  A    between atoms: C_15  and  C_16 
REMARK    7  A    between atoms: C_16  and  N_17 
ROOT
HETATM    1  C   UNL     1      43.624 -19.825   1.894  1.00  0.00     0.032 A 
HETATM    2  C   UNL     1      42.255 -19.547   1.867  1.00  0.00     0.019 A 
HETATM    3  C   UNL     1      41.807 -18.276   1.471  1.00  0.00     0.030 A 
HETATM    4  C   UNL     1      42.721 -17.276   1.122  1.00  0.00     0.034 A 
HETATM    5  C   UNL     1      44.089 -17.578   1.124  1.00  0.00     0.030 A 
HETATM    6  C   UNL     1      44.540 -18.839   1.519  1.00  0.00     0.019 A 
ENDROOT
BRANCH   4   7
HETATM    7  N   UNL     1      42.378 -15.941   0.822  1.00  0.00    -0.326 N 
HETATM    8  C   UNL     1      41.586 -15.473  -0.220  1.00  0.00     0.240 C 
HETATM    9  O   UNL     1      41.144 -16.141  -1.149  1.00  0.00    -0.271 OA
HETATM   10  H   UNL     1      42.637 -15.266   1.531  1.00  0.00     0.169 HD
BRANCH   8  11
HETATM   11  C   UNL     1      41.318 -13.965  -0.103  1.00  0.00     0.240 C 
BRANCH  11  12
HETATM   12  N   UNL     1      40.794 -13.646   1.203  1.00  0.00    -0.259 N 
HETATM   13  C   UNL     1      39.515 -13.914   1.579  1.00  0.00     0.326 A 
HETATM   14  O   UNL     1      38.656 -14.465   0.911  1.00  0.00    -0.247 OA
HETATM   15  N   UNL     1      39.342 -13.490   2.874  1.00  0.00    -0.324 N 
HETATM   16  C   UNL     1      40.573 -13.018   3.471  1.00  0.00     0.116 A 
HETATM   17  H   UNL     1      38.461 -13.634   3.352  1.00  0.00     0.165 HD
HETATM   18  C   UNL     1      41.042 -13.970   4.578  1.00  0.00     0.041 C 
HETATM   19  C   UNL     1      40.467 -11.571   3.948  1.00  0.00     0.041 C 
HETATM   20  C   UNL     1      41.505 -13.126   2.246  1.00  0.00     0.256 A 
HETATM   21  C   UNL     1      40.200 -13.831   5.848  1.00  0.00     0.007 C 
HETATM   22  C   UNL     1      40.100 -12.383   6.349  1.00  0.00    -0.019 C 
HETATM   23  C   UNL     1      41.415 -11.914   6.976  1.00  0.00     0.010 C 
HETATM   24  C   UNL     1      39.637 -11.443   5.227  1.00  0.00     0.007 C 
HETATM   25  O   UNL     1      42.697 -12.850   2.238  1.00  0.00    -0.270 OA
ENDBRANCH  11  12
ENDBRANCH   8  11
ENDBRANCH   4   7
BRANCH   1  26
HETATM   26  C   UNL     1      44.164 -21.032   2.539  1.00  0.00     0.256 C 
HETATM   27  N   UNL     1      44.681 -21.083   3.806  1.00  0.00    -0.323 N 
HETATM   28  H   UNL     1      45.099 -21.996   3.951  1.00  0.00     0.169 HD
HETATM   29  O   UNL     1      44.175 -22.068   1.869  1.00  0.00    -0.267 OA
BRANCH  27  30
HETATM   30  C   UNL     1      44.644 -20.258   4.938  1.00  0.00     0.035 A 
HETATM   31  C   UNL     1      45.238 -19.006   5.063  1.00  0.00     0.032 A 
HETATM   32  C   UNL     1      45.093 -18.261   6.250  1.00  0.00     0.039 A 
HETATM   33  C   UNL     1      44.341 -18.757   7.314  1.00  0.00     0.068 A 
HETATM   34  C   UNL     1      43.727 -19.999   7.180  1.00  0.00     0.039 A 
HETATM   35  C   UNL     1      43.879 -20.742   6.009  1.00  0.00     0.032 A 
BRANCH  33  36
HETATM   36  O   UNL     1      44.103 -18.147   8.511  1.00  0.00    -0.352 OA
BRANCH  36  37
HETATM   37  C   UNL     1      43.366 -16.928   8.542  1.00  0.00     0.171 C 
HETATM   38  C   UNL     1      42.401 -16.861   7.372  1.00  0.00     0.034 C 
ENDBRANCH  36  37
ENDBRANCH  33  36
ENDBRANCH  27  30
ENDBRANCH   1  26
TORSDOF 7
ENDMDL
MODEL 10
REMARK VINA RESULT:      -8.5      4.228      7.175
REMARK  7 active torsions:
REMARK  status: ('A' for Active; 'I' for Inactive)
REMARK    1  A    between atoms: C_2  and  O_3 
REMARK    2  A    between atoms: O_3  and  C_4 
REMARK    3  A    between atoms: C_7  and  N_8 
REMARK       I    between atoms: N_8  and  C_9 
REMARK    4  A    between atoms: C_9  and  C_10 
REMARK    5  A    between atoms: C_13  and  N_14 
REMARK       I    between atoms: N_14  and  C_15 
REMARK    6  A    between atoms: C_15  and  C_16 
REMARK    7  A    between atoms: C_16  and  N_17 
ROOT
HETATM    1  C   UNL     1      43.145 -19.050   1.800  1.00  0.00     0.032 A 
HETATM    2  C   UNL     1      41.765 -18.893   1.649  1.00  0.00     0.019 A 
HETATM    3  C   UNL     1      41.247 -17.677   1.171  1.00  0.00     0.030 A 
HETATM    4  C   UNL     1      42.100 -16.611   0.865  1.00  0.00     0.034 A 
HETATM    5  C   UNL     1      43.484 -16.793   0.992  1.00  0.00     0.030 A 
HETATM    6  C   UNL     1      44.003 -17.998   1.468  1.00  0.00     0.019 A 
ENDROOT
BRANCH   4   7
HETATM    7  N   UNL     1      41.673 -15.320   0.490  1.00  0.00    -0.326 N 
HETATM    8  C   UNL     1      41.127 -14.917  -0.723  1.00  0.00     0.240 C 
HETATM    9  O   UNL     1      41.038 -15.599  -1.739  1.00  0.00    -0.271 OA
HETATM   10  H   UNL     1      41.645 -14.646   1.245  1.00  0.00     0.169 HD
BRANCH   8  11
HETATM   11  C   UNL     1      40.639 -13.461  -0.675  1.00  0.00     0.240 C 
BRANCH  11  12
HETATM   12  N   UNL     1      40.926 -12.875   0.612  1.00  0.00    -0.259 N 
HETATM   13  C   UNL     1      41.935 -11.988   0.818  1.00  0.00     0.326 A 
HETATM   14  O   UNL     1      42.705 -11.547  -0.019  1.00  0.00    -0.247 OA
HETATM   15  N   UNL     1      41.936 -11.625   2.143  1.00  0.00    -0.324 N 
HETATM   16  C   UNL     1      40.813 -12.182   2.869  1.00  0.00     0.116 A 
HETATM   17  H   UNL     1      42.594 -10.940   2.491  1.00  0.00     0.165 HD
HETATM   18  C   UNL     1      39.831 -11.080   3.283  1.00  0.00     0.041 C 
HETATM   19  C   UNL     1      41.258 -13.045   4.048  1.00  0.00     0.041 C 
HETATM   20  C   UNL     1      40.198 -13.052   1.752  1.00  0.00     0.256 A 
HETATM   21  C   UNL     1      40.363 -10.247   4.451  1.00  0.00     0.007 C 
HETATM   22  C   UNL     1      40.797 -11.101   5.651  1.00  0.00    -0.019 C 
HETATM   23  C   UNL     1      39.590 -11.674   6.399  1.00  0.00     0.010 C 
HETATM   24  C   UNL     1      41.774 -12.203   5.218  1.00  0.00     0.007 C 
HETATM   25  O   UNL     1      39.187 -13.733   1.864  1.00  0.00    -0.270 OA
ENDBRANCH  11  12
ENDBRANCH   8  11
ENDBRANCH   4   7
BRANCH   1  26
HETATM   26  C   UNL     1      43.727 -20.186   2.531  1.00  0.00     0.256 C 
HETATM   27  N   UNL     1      44.292 -20.115   3.775  1.00  0.00    -0.323 N 
HETATM   28  H   UNL     1      44.729 -21.006   3.986  1.00  0.00     0.169 HD
HETATM   29  O   UNL     1      43.728 -21.279   1.957  1.00  0.00    -0.267 OA
BRANCH  27  30
HETATM   30  C   UNL     1      44.287 -19.190   4.828  1.00  0.00     0.035 A 
HETATM   31  C   UNL     1      45.364 -18.874   5.650  1.00  0.00     0.032 A 
HETATM   32  C   UNL     1      45.234 -17.894   6.653  1.00  0.00     0.039 A 
HETATM   33  C   UNL     1      44.031 -17.213   6.832  1.00  0.00     0.068 A 
HETATM   34  C   UNL     1      42.960 -17.512   5.994  1.00  0.00     0.039 A 
HETATM   35  C   UNL     1      43.085 -18.490   5.007  1.00  0.00     0.032 A 
BRANCH  33  36
HETATM   36  O   UNL     1      43.762 -16.236   7.746  1.00  0.00    -0.352 OA
BRANCH  36  37
HETATM   37  C   UNL     1      43.642 -14.885   7.312  1.00  0.00     0.171 C 
HETATM   38  C   UNL     1      44.985 -14.355   6.842  1.00  0.00     0.034 C 
ENDBRANCH  36  37
ENDBRANCH  33  36
ENDBRANCH  27  30
ENDBRANCH   1  26
TORSDOF 7
ENDMDL
