MODEL 1
REMARK VINA RESULT:      -8.5      0.000      0.000
REMARK  5 active torsions:
REMARK  status: ('A' for Active; 'I' for Inactive)
REMARK    1  A    between atoms: C_5  and  C_6 
REMARK    2  A    between atoms: C_6  and  C_7 
REMARK    3  A    between atoms: C_7  and  C_8 
REMARK       I    between atoms: C_8  and  N_9 
REMARK    4  A    between atoms: N_9  and  C_10 
REMARK    5  A    between atoms: C_12  and  C_13 
ROOT
HETATM    1  C   UNL     1      41.826 -16.018   3.987  1.00  0.00     0.222 C 
HETATM    2  N   UNL     1      40.727 -16.300   3.199  1.00  0.00    -0.327 N 
HETATM    3  O   UNL     1      42.618 -15.095   3.816  1.00  0.00    -0.273 OA
HETATM    4  H   UNL     1      40.247 -17.173   3.369  1.00  0.00     0.169 HD
ENDROOT
BRANCH   2   5
HETATM    5  C   UNL     1      40.228 -15.540   2.119  1.00  0.00     0.035 A 
HETATM    6  C   UNL     1      40.806 -15.519   0.845  1.00  0.00     0.042 A 
HETATM    7  C   UNL     1      40.282 -14.711  -0.179  1.00  0.00    -0.021 A 
HETATM    8  C   UNL     1      39.156 -13.924   0.094  1.00  0.00     0.012 A 
HETATM    9  C   UNL     1      38.573 -13.935   1.362  1.00  0.00     0.003 A 
HETATM   10  C   UNL     1      39.112 -14.734   2.370  1.00  0.00     0.029 A 
BRANCH   7  11
HETATM   11  C   UNL     1      40.901 -14.664  -1.498  1.00  0.00     0.010 A 
HETATM   12  C   UNL     1      40.803 -15.550  -2.600  1.00  0.00     0.152 A 
HETATM   13  N   UNL     1      41.530 -15.158  -3.650  1.00  0.00    -0.187 NA
HETATM   14  N   UNL     1      42.098 -14.018  -3.227  1.00  0.00    -0.289 N 
HETATM   15  H   UNL     1      42.710 -13.519  -3.864  1.00  0.00     0.188 HD
HETATM   16  C   UNL     1      41.757 -13.682  -1.949  1.00  0.00     0.123 A 
ENDBRANCH   7  11
ENDBRANCH   2   5
BRANCH   1  17
HETATM   17  C   UNL     1      41.970 -16.915   5.209  1.00  0.00     0.108 C 
BRANCH  17  18
HETATM   18  C   UNL     1      43.274 -17.700   5.338  1.00  0.00     0.047 C 
BRANCH  18  19
HETATM   19  C   UNL     1      43.544 -18.822   4.362  1.00  0.00    -0.058 A 
HETATM   20  C   UNL     1      43.050 -18.851   3.053  1.00  0.00     0.007 A 
HETATM   21  C   UNL     1      43.381 -19.900   2.188  1.00  0.00     0.007 A 
HETATM   22  C   UNL     1      44.225 -20.934   2.606  1.00  0.00    -0.062 A 
HETATM   23  C   UNL     1      44.593 -22.055   1.682  1.00  0.00     0.048 C 
HETATM   24  C   UNL     1      44.723 -20.910   3.910  1.00  0.00     0.007 A 
HETATM   25  C   UNL     1      44.390 -19.865   4.776  1.00  0.00     0.007 A 
ENDBRANCH  18  19
ENDBRANCH  17  18
ENDBRANCH   1  17
TORSDOF 5
ENDMDL
MODEL 2
REMARK VINA RESULT:      -8.5      5.607      8.628
REMARK  5 active torsions:
REMARK  status: ('A' for Active; 'I' for Inactive)
REMARK    1  A    between atoms: C_5  and  C_6 
REMARK    2  A    between atoms: C_6  and  C_7 
REMARK    3  A    between atoms: C_7  and  C_8 
REMARK       I    between atoms: C_8  and  N_9 
REMARK    4  A    between atoms: N_9  and  C_10 
REMARK    5  A    between atoms: C_12  and  C_13 
ROOT
HETATM    1  C   UNL     1      43.546 -14.499   5.444  1.00  0.00     0.222 C 
HETATM    2  N   UNL     1      44.409 -14.703   6.504  1.00  0.00    -0.327 N 
HETATM    3  O   UNL     1      43.070 -13.420   5.098  1.00  0.00    -0.273 OA
HETATM    4  H   UNL     1      44.606 -15.659   6.764  1.00  0.00     0.169 HD
ENDROOT
BRANCH   2   5
HETATM    5  C   UNL     1      45.001 -13.721   7.328  1.00  0.00     0.035 A 
HETATM    6  C   UNL     1      44.393 -13.191   8.471  1.00  0.00     0.042 A 
HETATM    7  C   UNL     1      45.021 -12.187   9.230  1.00  0.00    -0.021 A 
HETATM    8  C   UNL     1      46.281 -11.726   8.826  1.00  0.00     0.012 A 
HETATM    9  C   UNL     1      46.894 -12.246   7.686  1.00  0.00     0.003 A 
HETATM   10  C   UNL     1      46.254 -13.234   6.938  1.00  0.00     0.029 A 
BRANCH   7  11
HETATM   11  C   UNL     1      44.377 -11.611  10.404  1.00  0.00     0.010 A 
HETATM   12  C   UNL     1      43.814 -12.227  11.549  1.00  0.00     0.152 A 
HETATM   13  N   UNL     1      43.311 -11.348  12.421  1.00  0.00    -0.187 NA
HETATM   14  N   UNL     1      43.550 -10.163  11.839  1.00  0.00    -0.289 N 
HETATM   15  H   UNL     1      43.255  -9.321  12.321  1.00  0.00     0.188 HD
HETATM   16  C   UNL     1      44.181 -10.266  10.633  1.00  0.00     0.123 A 
ENDBRANCH   7  11
ENDBRANCH   2   5
BRANCH   1  17
HETATM   17  C   UNL     1      43.261 -15.745   4.618  1.00  0.00     0.108 C 
BRANCH  17  18
HETATM   18  C   UNL     1      43.599 -17.090   5.259  1.00  0.00     0.047 C 
BRANCH  18  19
HETATM   19  C   UNL     1      43.817 -18.287   4.363  1.00  0.00    -0.058 A 
HETATM   20  C   UNL     1      44.607 -19.387   4.713  1.00  0.00     0.007 A 
HETATM   21  C   UNL     1      44.726 -20.484   3.852  1.00  0.00     0.007 A 
HETATM   22  C   UNL     1      44.047 -20.512   2.631  1.00  0.00    -0.062 A 
HETATM   23  C   UNL     1      44.160 -21.688   1.708  1.00  0.00     0.048 C 
HETATM   24  C   UNL     1      43.254 -19.418   2.276  1.00  0.00     0.007 A 
HETATM   25  C   UNL     1      43.138 -18.321   3.133  1.00  0.00     0.007 A 
ENDBRANCH  18  19
ENDBRANCH  17  18
ENDBRANCH   1  17
TORSDOF 5
ENDMDL
MODEL 3
REMARK VINA RESULT:      -8.2      1.512      1.756
REMARK  5 active torsions:
REMARK  status: ('A' for Active; 'I' for Inactive)
REMARK    1  A    between atoms: C_5  and  C_6 
REMARK    2  A    between atoms: C_6  and  C_7 
REMARK    3  A    between atoms: C_7  and  C_8 
REMARK       I    between atoms: C_8  and  N_9 
REMARK    4  A    between atoms: N_9  and  C_10 
REMARK    5  A    between atoms: C_12  and  C_13 
ROOT
HETATM    1  C   UNL     1      41.339 -15.466   3.751  1.00  0.00     0.222 C 
HETATM    2  N   UNL     1      42.171 -15.153   2.694  1.00  0.00    -0.327 N 
HETATM    3  O   UNL     1      40.225 -14.992   3.958  1.00  0.00    -0.273 OA
HETATM    4  H   UNL     1      43.117 -15.508   2.727  1.00  0.00     0.169 HD
ENDROOT
BRANCH   2   5
HETATM    5  C   UNL     1      41.880 -14.321   1.591  1.00  0.00     0.035 A 
HETATM    6  C   UNL     1      41.365 -14.786   0.376  1.00  0.00     0.042 A 
HETATM    7  C   UNL     1      41.131 -13.910  -0.699  1.00  0.00    -0.021 A 
HETATM    8  C   UNL     1      41.416 -12.548  -0.531  1.00  0.00     0.012 A 
HETATM    9  C   UNL     1      41.932 -12.074   0.675  1.00  0.00     0.003 A 
HETATM   10  C   UNL     1      42.168 -12.958   1.728  1.00  0.00     0.029 A 
BRANCH   7  11
HETATM   11  C   UNL     1      40.624 -14.396  -1.975  1.00  0.00     0.010 A 
HETATM   12  C   UNL     1      40.870 -15.606  -2.670  1.00  0.00     0.152 A 
HETATM   13  N   UNL     1      40.210 -15.686  -3.830  1.00  0.00    -0.187 NA
HETATM   14  N   UNL     1      39.536 -14.526  -3.884  1.00  0.00    -0.289 N 
HETATM   15  H   UNL     1      38.945 -14.348  -4.689  1.00  0.00     0.188 HD
HETATM   16  C   UNL     1      39.752 -13.721  -2.803  1.00  0.00     0.123 A 
ENDBRANCH   7  11
ENDBRANCH   2   5
BRANCH   1  17
HETATM   17  C   UNL     1      41.868 -16.565   4.662  1.00  0.00     0.108 C 
BRANCH  17  18
HETATM   18  C   UNL     1      43.304 -17.027   4.423  1.00  0.00     0.047 C 
BRANCH  18  19
HETATM   19  C   UNL     1      43.535 -18.340   3.712  1.00  0.00    -0.058 A 
HETATM   20  C   UNL     1      43.009 -18.646   2.453  1.00  0.00     0.007 A 
HETATM   21  C   UNL     1      43.304 -19.865   1.832  1.00  0.00     0.007 A 
HETATM   22  C   UNL     1      44.142 -20.799   2.449  1.00  0.00    -0.062 A 
HETATM   23  C   UNL     1      44.472 -22.102   1.787  1.00  0.00     0.048 C 
HETATM   24  C   UNL     1      44.672 -20.499   3.707  1.00  0.00     0.007 A 
HETATM   25  C   UNL     1      44.375 -19.284   4.328  1.00  0.00     0.007 A 
ENDBRANCH  18  19
ENDBRANCH  17  18
ENDBRANCH   1  17
TORSDOF 5
ENDMDL
MODEL 4
REMARK VINA RESULT:      -8.1      5.906      8.921
REMARK  5 active torsions:
REMARK  status: ('A' for Active; 'I' for Inactive)
REMARK    1  A    between atoms: C_5  and  C_6 
REMARK    2  A    between atoms: C_6  and  C_7 
REMARK    3  A    between atoms: C_7  and  C_8 
REMARK       I    between atoms: C_8  and  N_9 
REMARK    4  A    between atoms: N_9  and  C_10 
REMARK    5  A    between atoms: C_12  and  C_13 
ROOT
HETATM    1  C   UNL     1      44.831 -13.713   7.305  1.00  0.00     0.222 C 
HETATM    2  N   UNL     1      43.944 -14.772   7.342  1.00  0.00    -0.327 N 
HETATM    3  O   UNL     1      45.818 -13.623   6.580  1.00  0.00    -0.273 OA
HETATM    4  H   UNL     1      43.262 -14.780   8.087  1.00  0.00     0.169 HD
ENDROOT
BRANCH   2   5
HETATM    5  C   UNL     1      43.923 -15.902   6.496  1.00  0.00     0.035 A 
HETATM    6  C   UNL     1      43.132 -16.002   5.346  1.00  0.00     0.042 A 
HETATM    7  C   UNL     1      43.129 -17.171   4.564  1.00  0.00    -0.021 A 
HETATM    8  C   UNL     1      43.944 -18.243   4.952  1.00  0.00     0.012 A 
HETATM    9  C   UNL     1      44.734 -18.154   6.098  1.00  0.00     0.003 A 
HETATM   10  C   UNL     1      44.718 -16.992   6.868  1.00  0.00     0.029 A 
BRANCH   7  11
HETATM   11  C   UNL     1      42.283 -17.290   3.384  1.00  0.00     0.010 A 
HETATM   12  C   UNL     1      40.975 -16.809   3.128  1.00  0.00     0.152 A 
HETATM   13  N   UNL     1      40.531 -17.125   1.908  1.00  0.00    -0.187 NA
HETATM   14  N   UNL     1      41.554 -17.811   1.374  1.00  0.00    -0.289 N 
HETATM   15  H   UNL     1      41.456 -18.164   0.428  1.00  0.00     0.188 HD
HETATM   16  C   UNL     1      42.621 -17.939   2.215  1.00  0.00     0.123 A 
ENDBRANCH   7  11
ENDBRANCH   2   5
BRANCH   1  17
HETATM   17  C   UNL     1      44.451 -12.546   8.206  1.00  0.00     0.108 C 
BRANCH  17  18
HETATM   18  C   UNL     1      45.183 -12.441   9.543  1.00  0.00     0.047 C 
BRANCH  18  19
HETATM   19  C   UNL     1      44.498 -11.735  10.691  1.00  0.00    -0.058 A 
HETATM   20  C   UNL     1      44.385 -10.345  10.793  1.00  0.00     0.007 A 
HETATM   21  C   UNL     1      43.694  -9.761  11.861  1.00  0.00     0.007 A 
HETATM   22  C   UNL     1      43.090 -10.553  12.841  1.00  0.00    -0.062 A 
HETATM   23  C   UNL     1      42.339  -9.936  13.983  1.00  0.00     0.048 C 
HETATM   24  C   UNL     1      43.197 -11.943  12.745  1.00  0.00     0.007 A 
HETATM   25  C   UNL     1      43.889 -12.526  11.681  1.00  0.00     0.007 A 
ENDBRANCH  18  19
ENDBRANCH  17  18
ENDBRANCH   1  17
TORSDOF 5
ENDMDL
MODEL 5
REMARK VINA RESULT:      -8.1      6.113      9.551
REMARK  5 active torsions:
REMARK  status: ('A' for Active; 'I' for Inactive)
REMARK    1  A    between atoms: C_5  and  C_6 
REMARK    2  A    between atoms: C_6  and  C_7 
REMARK    3  A    between atoms: C_7  and  C_8 
REMARK       I    between atoms: C_8  and  N_9 
REMARK    4  A    between atoms: N_9  and  C_10 
REMARK    5  A    between atoms: C_12  and  C_13 
ROOT
HETATM    1  C   UNL     1      44.537 -13.694   7.124  1.00  0.00     0.222 C 
HETATM    2  N   UNL     1      43.484 -14.513   6.763  1.00  0.00    -0.327 N 
HETATM    3  O   UNL     1      45.694 -13.787   6.721  1.00  0.00    -0.273 OA
HETATM    4  H   UNL     1      42.622 -14.414   7.281  1.00  0.00     0.169 HD
ENDROOT
BRANCH   2   5
HETATM    5  C   UNL     1      43.489 -15.538   5.792  1.00  0.00     0.035 A 
HETATM    6  C   UNL     1      43.749 -16.883   6.077  1.00  0.00     0.042 A 
HETATM    7  C   UNL     1      43.775 -17.851   5.058  1.00  0.00    -0.021 A 
HETATM    8  C   UNL     1      43.526 -17.447   3.739  1.00  0.00     0.012 A 
HETATM    9  C   UNL     1      43.268 -16.109   3.444  1.00  0.00     0.003 A 
HETATM   10  C   UNL     1      43.256 -15.159   4.466  1.00  0.00     0.029 A 
BRANCH   7  11
HETATM   11  C   UNL     1      44.077 -19.247   5.347  1.00  0.00     0.010 A 
HETATM   12  C   UNL     1      43.751 -20.053   6.466  1.00  0.00     0.152 A 
HETATM   13  N   UNL     1      44.212 -21.303   6.360  1.00  0.00    -0.187 NA
HETATM   14  N   UNL     1      44.837 -21.305   5.173  1.00  0.00    -0.289 N 
HETATM   15  H   UNL     1      45.277 -22.163   4.860  1.00  0.00     0.188 HD
HETATM   16  C   UNL     1      44.787 -20.101   4.531  1.00  0.00     0.123 A 
ENDBRANCH   7  11
ENDBRANCH   2   5
BRANCH   1  17
HETATM   17  C   UNL     1      44.151 -12.542   8.041  1.00  0.00     0.108 C 
BRANCH  17  18
HETATM   18  C   UNL     1      45.049 -12.293   9.251  1.00  0.00     0.047 C 
BRANCH  18  19
HETATM   19  C   UNL     1      44.446 -11.662  10.485  1.00  0.00    -0.058 A 
HETATM   20  C   UNL     1      44.348 -10.281  10.684  1.00  0.00     0.007 A 
HETATM   21  C   UNL     1      43.733  -9.766  11.831  1.00  0.00     0.007 A 
HETATM   22  C   UNL     1      43.190 -10.620  12.796  1.00  0.00    -0.062 A 
HETATM   23  C   UNL     1      42.519 -10.077  14.022  1.00  0.00     0.048 C 
HETATM   24  C   UNL     1      43.282 -12.000  12.603  1.00  0.00     0.007 A 
HETATM   25  C   UNL     1      43.900 -12.515  11.460  1.00  0.00     0.007 A 
ENDBRANCH  18  19
ENDBRANCH  17  18
ENDBRANCH   1  17
TORSDOF 5
ENDMDL
MODEL 6
REMARK VINA RESULT:      -7.9      2.785      7.589
REMARK  5 active torsions:
REMARK  status: ('A' for Active; 'I' for Inactive)
REMARK    1  A    between atoms: C_5  and  C_6 
REMARK    2  A    between atoms: C_6  and  C_7 
REMARK    3  A    between atoms: C_7  and  C_8 
REMARK       I    between atoms: C_8  and  N_9 
REMARK    4  A    between atoms: N_9  and  C_10 
REMARK    5  A    between atoms: C_12  and  C_13 
ROOT
HETATM    1  C   UNL     1      41.133 -16.564   1.737  1.00  0.00     0.222 C 
HETATM    2  N   UNL     1      42.478 -16.871   1.818  1.00  0.00    -0.327 N 
HETATM    3  O   UNL     1      40.212 -17.224   2.214  1.00  0.00    -0.273 OA
HETATM    4  H   UNL     1      43.113 -16.319   1.258  1.00  0.00     0.169 HD
ENDROOT
BRANCH   2   5
HETATM    5  C   UNL     1      43.075 -17.925   2.542  1.00  0.00     0.035 A 
HETATM    6  C   UNL     1      43.140 -17.975   3.939  1.00  0.00     0.042 A 
HETATM    7  C   UNL     1      43.782 -19.037   4.600  1.00  0.00    -0.021 A 
HETATM    8  C   UNL     1      44.355 -20.060   3.833  1.00  0.00     0.012 A 
HETATM    9  C   UNL     1      44.297 -20.019   2.440  1.00  0.00     0.003 A 
HETATM   10  C   UNL     1      43.666 -18.953   1.799  1.00  0.00     0.029 A 
BRANCH   7  11
HETATM   11  C   UNL     1      43.879 -19.075   6.054  1.00  0.00     0.010 A 
HETATM   12  C   UNL     1      44.248 -18.073   6.985  1.00  0.00     0.152 A 
HETATM   13  N   UNL     1      44.214 -18.500   8.252  1.00  0.00    -0.187 NA
HETATM   14  N   UNL     1      43.823 -19.778   8.138  1.00  0.00    -0.289 N 
HETATM   15  H   UNL     1      43.719 -20.328   8.984  1.00  0.00     0.188 HD
HETATM   16  C   UNL     1      43.613 -20.171   6.848  1.00  0.00     0.123 A 
ENDBRANCH   7  11
ENDBRANCH   2   5
BRANCH   1  17
HETATM   17  C   UNL     1      40.831 -15.235   1.058  1.00  0.00     0.108 C 
BRANCH  17  18
HETATM   18  C   UNL     1      40.927 -13.981   1.925  1.00  0.00     0.047 C 
BRANCH  18  19
HETATM   19  C   UNL     1      41.695 -14.054   3.224  1.00  0.00    -0.058 A 
HETATM   20  C   UNL     1      41.136 -14.479   4.434  1.00  0.00     0.007 A 
HETATM   21  C   UNL     1      41.920 -14.567   5.591  1.00  0.00     0.007 A 
HETATM   22  C   UNL     1      43.281 -14.247   5.559  1.00  0.00    -0.062 A 
HETATM   23  C   UNL     1      44.130 -14.350   6.790  1.00  0.00     0.048 C 
HETATM   24  C   UNL     1      43.845 -13.825   4.353  1.00  0.00     0.007 A 
HETATM   25  C   UNL     1      43.063 -13.733   3.200  1.00  0.00     0.007 A 
ENDBRANCH  18  19
ENDBRANCH  17  18
ENDBRANCH   1  17
TORSDOF 5
ENDMDL
MODEL 7
REMARK VINA RESULT:      -7.9      2.171      2.909
REMARK  5 active torsions:
REMARK  status: ('A' for Active; 'I' for Inactive)
REMARK    1  A    between atoms: C_5  and  C_6 
REMARK    2  A    between atoms: C_6  and  C_7 
REMARK    3  A    between atoms: C_7  and  C_8 
REMARK       I    between atoms: C_8  and  N_9 
REMARK    4  A    between atoms: N_9  and  C_10 
REMARK    5  A    between atoms: C_12  and  C_13 
ROOT
HETATM    1  C   UNL     1      42.235 -15.820   1.815  1.00  0.00     0.222 C 
HETATM    2  N   UNL     1      42.466 -15.207   0.598  1.00  0.00    -0.327 N 
HETATM    3  O   UNL     1      41.213 -15.722   2.489  1.00  0.00    -0.273 OA
HETATM    4  H   UNL     1      43.403 -15.257   0.224  1.00  0.00     0.169 HD
ENDROOT
BRANCH   2   5
HETATM    5  C   UNL     1      41.555 -14.444  -0.164  1.00  0.00     0.035 A 
HETATM    6  C   UNL     1      40.753 -14.972  -1.182  1.00  0.00     0.042 A 
HETATM    7  C   UNL     1      39.892 -14.150  -1.930  1.00  0.00    -0.021 A 
HETATM    8  C   UNL     1      39.841 -12.781  -1.634  1.00  0.00     0.012 A 
HETATM    9  C   UNL     1      40.637 -12.245  -0.622  1.00  0.00     0.003 A 
HETATM   10  C   UNL     1      41.494 -13.072   0.104  1.00  0.00     0.029 A 
BRANCH   7  11
HETATM   11  C   UNL     1      39.079 -14.691  -3.012  1.00  0.00     0.010 A 
HETATM   12  C   UNL     1      37.717 -14.484  -3.341  1.00  0.00     0.152 A 
HETATM   13  N   UNL     1      37.331 -15.167  -4.423  1.00  0.00    -0.187 NA
HETATM   14  N   UNL     1      38.445 -15.817  -4.793  1.00  0.00    -0.289 N 
HETATM   15  H   UNL     1      38.405 -16.414  -5.612  1.00  0.00     0.188 HD
HETATM   16  C   UNL     1      39.514 -15.568  -3.982  1.00  0.00     0.123 A 
ENDBRANCH   7  11
ENDBRANCH   2   5
BRANCH   1  17
HETATM   17  C   UNL     1      43.348 -16.754   2.269  1.00  0.00     0.108 C 
BRANCH  17  18
HETATM   18  C   UNL     1      43.263 -18.206   1.805  1.00  0.00     0.047 C 
BRANCH  18  19
HETATM   19  C   UNL     1      43.831 -19.287   2.695  1.00  0.00    -0.058 A 
HETATM   20  C   UNL     1      44.192 -19.084   4.031  1.00  0.00     0.007 A 
HETATM   21  C   UNL     1      44.668 -20.144   4.812  1.00  0.00     0.007 A 
HETATM   22  C   UNL     1      44.779 -21.432   4.279  1.00  0.00    -0.062 A 
HETATM   23  C   UNL     1      45.276 -22.575   5.111  1.00  0.00     0.048 C 
HETATM   24  C   UNL     1      44.418 -21.642   2.946  1.00  0.00     0.007 A 
HETATM   25  C   UNL     1      43.947 -20.583   2.165  1.00  0.00     0.007 A 
ENDBRANCH  18  19
ENDBRANCH  17  18
ENDBRANCH   1  17
TORSDOF 5
ENDMDL
MODEL 8
REMARK VINA RESULT:      -7.8      2.407      8.592
REMARK  5 active torsions:
REMARK  status: ('A' for Active; 'I' for Inactive)
REMARK    1  A    between atoms: C_5  and  C_6 
REMARK    2  A    between atoms: C_6  and  C_7 
REMARK    3  A    between atoms: C_7  and  C_8 
REMARK       I    between atoms: C_8  and  N_9 
REMARK    4  A    between atoms: N_9  and  C_10 
REMARK    5  A    between atoms: C_12  and  C_13 
ROOT
HETATM    1  C   UNL     1      42.117 -16.475   1.034  1.00  0.00     0.222 C 
HETATM    2  N   UNL     1      42.015 -17.796   1.427  1.00  0.00    -0.327 N 
HETATM    3  O   UNL     1      42.821 -15.617   1.561  1.00  0.00    -0.273 OA
HETATM    4  H   UNL     1      41.290 -18.353   0.997  1.00  0.00     0.169 HD
ENDROOT
BRANCH   2   5
HETATM    5  C   UNL     1      42.765 -18.453   2.427  1.00  0.00     0.035 A 
HETATM    6  C   UNL     1      42.702 -18.132   3.788  1.00  0.00     0.042 A 
HETATM    7  C   UNL     1      43.503 -18.801   4.731  1.00  0.00    -0.021 A 
HETATM    8  C   UNL     1      44.368 -19.809   4.285  1.00  0.00     0.012 A 
HETATM    9  C   UNL     1      44.439 -20.135   2.931  1.00  0.00     0.003 A 
HETATM   10  C   UNL     1      43.646 -19.455   2.007  1.00  0.00     0.029 A 
BRANCH   7  11
HETATM   11  C   UNL     1      43.463 -18.448   6.144  1.00  0.00     0.010 A 
HETATM   12  C   UNL     1      43.000 -17.278   6.795  1.00  0.00     0.152 A 
HETATM   13  N   UNL     1      43.132 -17.332   8.124  1.00  0.00    -0.187 NA
HETATM   14  N   UNL     1      43.680 -18.539   8.332  1.00  0.00    -0.289 N 
HETATM   15  H   UNL     1      43.878 -18.820   9.286  1.00  0.00     0.188 HD
HETATM   16  C   UNL     1      43.900 -19.242   7.183  1.00  0.00     0.123 A 
ENDBRANCH   7  11
ENDBRANCH   2   5
BRANCH   1  17
HETATM   17  C   UNL     1      41.327 -16.130  -0.221  1.00  0.00     0.108 C 
BRANCH  17  18
HETATM   18  C   UNL     1      40.702 -14.738  -0.282  1.00  0.00     0.047 C 
BRANCH  18  19
HETATM   19  C   UNL     1      41.175 -13.777  -1.348  1.00  0.00    -0.058 A 
HETATM   20  C   UNL     1      42.228 -12.874  -1.169  1.00  0.00     0.007 A 
HETATM   21  C   UNL     1      42.645 -12.045  -2.217  1.00  0.00     0.007 A 
HETATM   22  C   UNL     1      42.027 -12.111  -3.470  1.00  0.00    -0.062 A 
HETATM   23  C   UNL     1      42.474 -11.235  -4.601  1.00  0.00     0.048 C 
HETATM   24  C   UNL     1      40.976 -13.012  -3.656  1.00  0.00     0.007 A 
HETATM   25  C   UNL     1      40.558 -13.837  -2.609  1.00  0.00     0.007 A 
ENDBRANCH  18  19
ENDBRANCH  17  18
ENDBRANCH   1  17
TORSDOF 5
ENDMDL
MODEL 9
REMARK VINA RESULT:      -7.6      2.693      8.656
REMARK  5 active torsions:
REMARK  status: ('A' for Active; 'I' for Inactive)
REMARK    1  A    between atoms: C_5  and  C_6 
REMARK    2  A    between atoms: C_6  and  C_7 
REMARK    3  A    between atoms: C_7  and  C_8 
REMARK       I    between atoms: C_8  and  N_9 
REMARK    4  A    between atoms: N_9  and  C_10 
REMARK    5  A    between atoms: C_12  and  C_13 
ROOT
HETATM    1  C   UNL     1      42.940 -16.876   1.288  1.00  0.00     0.222 C 
HETATM    2  N   UNL     1      42.443 -17.882   2.095  1.00  0.00    -0.327 N 
HETATM    3  O   UNL     1      44.020 -16.308   1.426  1.00  0.00    -0.273 OA
HETATM    4  H   UNL     1      41.480 -18.156   1.954  1.00  0.00     0.169 HD
ENDROOT
BRANCH   2   5
HETATM    5  C   UNL     1      43.104 -18.533   3.159  1.00  0.00     0.035 A 
HETATM    6  C   UNL     1      43.054 -18.104   4.490  1.00  0.00     0.042 A 
HETATM    7  C   UNL     1      43.766 -18.776   5.499  1.00  0.00    -0.021 A 
HETATM    8  C   UNL     1      44.528 -19.899   5.151  1.00  0.00     0.012 A 
HETATM    9  C   UNL     1      44.587 -20.334   3.827  1.00  0.00     0.003 A 
HETATM   10  C   UNL     1      43.883 -19.650   2.836  1.00  0.00     0.029 A 
BRANCH   7  11
HETATM   11  C   UNL     1      43.740 -18.313   6.880  1.00  0.00     0.010 A 
HETATM   12  C   UNL     1      43.412 -17.048   7.428  1.00  0.00     0.152 A 
HETATM   13  N   UNL     1      43.508 -17.015   8.761  1.00  0.00    -0.187 NA
HETATM   14  N   UNL     1      43.899 -18.260   9.075  1.00  0.00    -0.289 N 
HETATM   15  H   UNL     1      44.042 -18.489  10.052  1.00  0.00     0.188 HD
HETATM   16  C   UNL     1      44.055 -19.071   7.988  1.00  0.00     0.123 A 
ENDBRANCH   7  11
ENDBRANCH   2   5
BRANCH   1  17
HETATM   17  C   UNL     1      42.062 -16.541   0.090  1.00  0.00     0.108 C 
BRANCH  17  18
HETATM   18  C   UNL     1      41.591 -15.094  -0.036  1.00  0.00     0.047 C 
BRANCH  18  19
HETATM   19  C   UNL     1      40.430 -14.786  -0.953  1.00  0.00    -0.058 A 
HETATM   20  C   UNL     1      39.324 -14.017  -0.576  1.00  0.00     0.007 A 
HETATM   21  C   UNL     1      38.306 -13.732  -1.494  1.00  0.00     0.007 A 
HETATM   22  C   UNL     1      38.379 -14.195  -2.811  1.00  0.00    -0.062 A 
HETATM   23  C   UNL     1      37.299 -13.885  -3.803  1.00  0.00     0.048 C 
HETATM   24  C   UNL     1      39.482 -14.962  -3.195  1.00  0.00     0.007 A 
HETATM   25  C   UNL     1      40.496 -15.250  -2.278  1.00  0.00     0.007 A 
ENDBRANCH  18  19
ENDBRANCH  17  18
ENDBRANCH   1  17
TORSDOF 5
ENDMDL
MODEL 10
REMARK VINA RESULT:      -7.5      4.546      5.779
REMARK  5 active torsions:
REMARK  status: ('A' for Active; 'I' for Inactive)
REMARK    1  A    between atoms: C_5  and  C_6 
REMARK    2  A    between atoms: C_6  and  C_7 
REMARK    3  A    between atoms: C_7  and  C_8 
REMARK       I    between atoms: C_8  and  N_9 
REMARK    4  A    between atoms: N_9  and  C_10 
REMARK    5  A    between atoms: C_12  and  C_13 
ROOT
HETATM    1  C   UNL     1      44.053 -15.891   6.494  1.00  0.00     0.222 C 
HETATM    2  N   UNL     1      42.970 -15.815   5.640  1.00  0.00    -0.327 N 
HETATM    3  O   UNL     1      44.395 -15.032   7.303  1.00  0.00    -0.273 OA
HETATM    4  H   UNL     1      42.891 -16.528   4.927  1.00  0.00     0.169 HD
ENDROOT
BRANCH   2   5
HETATM    5  C   UNL     1      41.983 -14.806   5.593  1.00  0.00     0.035 A 
HETATM    6  C   UNL     1      42.216 -13.470   5.935  1.00  0.00     0.042 A 
HETATM    7  C   UNL     1      41.181 -12.519   5.903  1.00  0.00    -0.021 A 
HETATM    8  C   UNL     1      39.900 -12.931   5.511  1.00  0.00     0.012 A 
HETATM    9  C   UNL     1      39.657 -14.262   5.170  1.00  0.00     0.003 A 
HETATM   10  C   UNL     1      40.693 -15.195   5.217  1.00  0.00     0.029 A 
BRANCH   7  11
HETATM   11  C   UNL     1      41.413 -11.133   6.288  1.00  0.00     0.010 A 
HETATM   12  C   UNL     1      41.855 -10.572   7.512  1.00  0.00     0.152 A 
HETATM   13  N   UNL     1      41.946  -9.240   7.474  1.00  0.00    -0.187 NA
HETATM   14  N   UNL     1      41.563  -8.938   6.224  1.00  0.00    -0.289 N 
HETATM   15  H   UNL     1      41.551  -7.963   5.945  1.00  0.00     0.188 HD
HETATM   16  C   UNL     1      41.233 -10.032   5.477  1.00  0.00     0.123 A 
ENDBRANCH   7  11
ENDBRANCH   2   5
BRANCH   1  17
HETATM   17  C   UNL     1      44.803 -17.214   6.442  1.00  0.00     0.108 C 
BRANCH  17  18
HETATM   18  C   UNL     1      43.958 -18.483   6.355  1.00  0.00     0.047 C 
BRANCH  18  19
HETATM   19  C   UNL     1      44.138 -19.395   5.163  1.00  0.00    -0.058 A 
HETATM   20  C   UNL     1      44.650 -20.694   5.249  1.00  0.00     0.007 A 
HETATM   21  C   UNL     1      44.744 -21.502   4.110  1.00  0.00     0.007 A 
HETATM   22  C   UNL     1      44.316 -21.034   2.864  1.00  0.00    -0.062 A 
HETATM   23  C   UNL     1      44.404 -21.895   1.640  1.00  0.00     0.048 C 
HETATM   24  C   UNL     1      43.802 -19.738   2.771  1.00  0.00     0.007 A 
HETATM   25  C   UNL     1      43.711 -18.931   3.908  1.00  0.00     0.007 A 
ENDBRANCH  18  19
ENDBRANCH  17  18
ENDBRANCH   1  17
TORSDOF 5
ENDMDL
