MODEL 1
REMARK VINA RESULT:      -8.8      0.000      0.000
REMARK  7 active torsions:
REMARK  status: ('A' for Active; 'I' for Inactive)
REMARK    1  A    between atoms: C_2  and  C_3 
REMARK    2  A    between atoms: C_7  and  C_8 
REMARK       I    between atoms: C_8  and  N_9 
REMARK    3  A    between atoms: N_9  and  C_10 
REMARK    4  A    between atoms: C_10  and  C_11 
REMARK    5  A    between atoms: C_13  and  N_14 
REMARK       I    between atoms: N_14  and  C_15 
REMARK    6  A    between atoms: C_15  and  C_16 
REMARK    7  A    between atoms: C_20  and  C_21 
ROOT
HETATM    1  C   UNL     1      44.224 -14.716   6.642  1.00  0.00    -0.035 A 
HETATM    2  C   UNL     1      43.723 -14.544   5.344  1.00  0.00     0.059 A 
HETATM    3  C   UNL     1      42.890 -15.516   4.794  1.00  0.00     0.130 A 
HETATM    4  N   UNL     1      42.578 -16.641   5.460  1.00  0.00    -0.243 NA
HETATM    5  C   UNL     1      43.090 -16.812   6.695  1.00  0.00     0.119 A 
HETATM    6  C   UNL     1      43.904 -15.890   7.325  1.00  0.00     0.028 A 
ENDROOT
BRANCH   1   7
HETATM    7  C   UNL     1      45.074 -13.655   7.283  1.00  0.00     0.161 C 
BRANCH   7   8
HETATM    8  N   UNL     1      44.487 -13.162   8.503  1.00  0.00    -0.351 N 
HETATM    9  C   UNL     1      44.931 -12.018   9.119  1.00  0.00     0.270 C 
HETATM   10  O   UNL     1      45.879 -11.364   8.698  1.00  0.00    -0.266 OA
HETATM   11  H   UNL     1      43.759 -13.708   8.937  1.00  0.00     0.163 HD
BRANCH   9  12
HETATM   12  C   UNL     1      44.188 -11.627  10.288  1.00  0.00     0.119 A 
HETATM   13  N   UNL     1      43.793 -12.542  11.225  1.00  0.00    -0.273 N 
HETATM   14  N   UNL     1      43.139 -12.013  12.271  1.00  0.00    -0.178 NA
HETATM   15  H   UNL     1      43.956 -13.544  11.204  1.00  0.00     0.189 HD
HETATM   16  C   UNL     1      43.096 -10.701  12.008  1.00  0.00     0.064 A 
HETATM   17  C   UNL     1      43.737 -10.415  10.773  1.00  0.00     0.066 A 
BRANCH  16  18
HETATM   18  C   UNL     1      42.446  -9.715  12.968  1.00  0.00    -0.005 C 
HETATM   19  C   UNL     1      43.444  -9.168  14.011  1.00  0.00     0.021 C 
HETATM   20  C   UNL     1      41.293 -10.401  13.729  1.00  0.00     0.021 C 
HETATM   21  C   UNL     1      41.878  -8.517  12.178  1.00  0.00     0.021 C 
ENDBRANCH  16  18
ENDBRANCH   9  12
ENDBRANCH   7   8
ENDBRANCH   1   7
BRANCH   3  22
HETATM   22  N   UNL     1      42.358 -15.263   3.523  1.00  0.00    -0.306 N 
HETATM   23  C   UNL     1      42.808 -15.815   2.344  1.00  0.00     0.275 C 
HETATM   24  O   UNL     1      43.757 -16.579   2.214  1.00  0.00    -0.266 OA
HETATM   25  H   UNL     1      41.542 -14.675   3.487  1.00  0.00     0.170 HD
BRANCH  23  26
HETATM   26  C   UNL     1      42.022 -15.446   1.185  1.00  0.00     0.120 A 
HETATM   27  N   UNL     1      42.049 -16.210   0.050  1.00  0.00    -0.273 N 
HETATM   28  H   UNL     1      42.590 -17.058  -0.095  1.00  0.00     0.189 HD
HETATM   29  N   UNL     1      41.244 -15.770  -0.928  1.00  0.00    -0.178 NA
HETATM   30  C   UNL     1      40.699 -14.651  -0.434  1.00  0.00     0.064 A 
HETATM   31  C   UNL     1      41.153 -14.414   0.893  1.00  0.00     0.066 A 
BRANCH  30  32
HETATM   32  C   UNL     1      39.702 -13.853  -1.262  1.00  0.00    -0.005 C 
HETATM   33  C   UNL     1      38.341 -13.819  -0.538  1.00  0.00     0.021 C 
HETATM   34  C   UNL     1      40.178 -12.400  -1.472  1.00  0.00     0.021 C 
HETATM   35  C   UNL     1      39.508 -14.484  -2.657  1.00  0.00     0.021 C 
ENDBRANCH  30  32
ENDBRANCH  23  26
ENDBRANCH   3  22
TORSDOF 7
ENDMDL
MODEL 2
REMARK VINA RESULT:      -8.3      3.466     10.503
REMARK  7 active torsions:
REMARK  status: ('A' for Active; 'I' for Inactive)
REMARK    1  A    between atoms: C_2  and  C_3 
REMARK    2  A    between atoms: C_7  and  C_8 
REMARK       I    between atoms: C_8  and  N_9 
REMARK    3  A    between atoms: N_9  and  C_10 
REMARK    4  A    between atoms: C_10  and  C_11 
REMARK    5  A    between atoms: C_13  and  N_14 
REMARK       I    between atoms: N_14  and  C_15 
REMARK    6  A    between atoms: C_15  and  C_16 
REMARK    7  A    between atoms: C_20  and  C_21 
ROOT
HETATM    1  C   UNL     1      40.172 -13.200   3.863  1.00  0.00    -0.035 A 
HETATM    2  C   UNL     1      40.475 -12.889   5.195  1.00  0.00     0.059 A 
HETATM    3  C   UNL     1      40.866 -11.593   5.528  1.00  0.00     0.130 A 
HETATM    4  N   UNL     1      40.999 -10.633   4.598  1.00  0.00    -0.243 NA
HETATM    5  C   UNL     1      40.736 -10.950   3.314  1.00  0.00     0.119 A 
HETATM    6  C   UNL     1      40.320 -12.201   2.900  1.00  0.00     0.028 A 
ENDROOT
BRANCH   1   7
HETATM    7  C   UNL     1      39.689 -14.572   3.486  1.00  0.00     0.161 C 
BRANCH   7   8
HETATM    8  N   UNL     1      40.658 -15.589   3.807  1.00  0.00    -0.351 N 
HETATM    9  C   UNL     1      40.813 -16.721   3.045  1.00  0.00     0.270 C 
HETATM   10  O   UNL     1      40.112 -16.961   2.067  1.00  0.00    -0.266 OA
HETATM   11  H   UNL     1      41.201 -15.481   4.650  1.00  0.00     0.163 HD
BRANCH   9  12
HETATM   12  C   UNL     1      41.873 -17.598   3.465  1.00  0.00     0.119 A 
HETATM   13  N   UNL     1      42.579 -18.351   2.567  1.00  0.00    -0.273 N 
HETATM   14  N   UNL     1      43.556 -19.090   3.115  1.00  0.00    -0.178 NA
HETATM   15  H   UNL     1      42.441 -18.386   1.561  1.00  0.00     0.189 HD
HETATM   16  C   UNL     1      43.484 -18.820   4.424  1.00  0.00     0.064 A 
HETATM   17  C   UNL     1      42.440 -17.893   4.689  1.00  0.00     0.066 A 
BRANCH  16  18
HETATM   18  C   UNL     1      44.445 -19.449   5.424  1.00  0.00    -0.005 C 
HETATM   19  C   UNL     1      43.706 -20.181   6.564  1.00  0.00     0.021 C 
HETATM   20  C   UNL     1      45.334 -18.359   6.058  1.00  0.00     0.021 C 
HETATM   21  C   UNL     1      45.348 -20.472   4.705  1.00  0.00     0.021 C 
ENDBRANCH  16  18
ENDBRANCH   9  12
ENDBRANCH   7   8
ENDBRANCH   1   7
BRANCH   3  22
HETATM   22  N   UNL     1      41.087 -11.317   6.884  1.00  0.00    -0.306 N 
HETATM   23  C   UNL     1      40.134 -10.868   7.772  1.00  0.00     0.275 C 
HETATM   24  O   UNL     1      38.965 -10.608   7.517  1.00  0.00    -0.266 OA
HETATM   25  H   UNL     1      42.004 -11.524   7.240  1.00  0.00     0.170 HD
BRANCH  23  26
HETATM   26  C   UNL     1      40.613 -10.744   9.133  1.00  0.00     0.120 A 
HETATM   27  N   UNL     1      39.979 -11.390  10.159  1.00  0.00    -0.273 N 
HETATM   28  H   UNL     1      39.156 -11.981  10.084  1.00  0.00     0.189 HD
HETATM   29  N   UNL     1      40.554 -11.215  11.358  1.00  0.00    -0.178 NA
HETATM   30  C   UNL     1      41.582 -10.390  11.119  1.00  0.00     0.064 A 
HETATM   31  C   UNL     1      41.661 -10.075   9.734  1.00  0.00     0.066 A 
BRANCH  30  32
HETATM   32  C   UNL     1      42.499  -9.957  12.254  1.00  0.00    -0.005 C 
HETATM   33  C   UNL     1      43.952 -10.343  11.917  1.00  0.00     0.021 C 
HETATM   34  C   UNL     1      42.440  -8.431  12.477  1.00  0.00     0.021 C 
HETATM   35  C   UNL     1      42.098 -10.636  13.581  1.00  0.00     0.021 C 
ENDBRANCH  30  32
ENDBRANCH  23  26
ENDBRANCH   3  22
TORSDOF 7
ENDMDL
MODEL 3
REMARK VINA RESULT:      -8.1      3.398     10.315
REMARK  7 active torsions:
REMARK  status: ('A' for Active; 'I' for Inactive)
REMARK    1  A    between atoms: C_2  and  C_3 
REMARK    2  A    between atoms: C_7  and  C_8 
REMARK       I    between atoms: C_8  and  N_9 
REMARK    3  A    between atoms: N_9  and  C_10 
REMARK    4  A    between atoms: C_10  and  C_11 
REMARK    5  A    between atoms: C_13  and  N_14 
REMARK       I    between atoms: N_14  and  C_15 
REMARK    6  A    between atoms: C_15  and  C_16 
REMARK    7  A    between atoms: C_20  and  C_21 
ROOT
HETATM    1  C   UNL     1      39.355 -12.837   3.387  1.00  0.00    -0.035 A 
HETATM    2  C   UNL     1      39.850 -12.692   4.691  1.00  0.00     0.059 A 
HETATM    3  C   UNL     1      39.473 -11.586   5.450  1.00  0.00     0.130 A 
HETATM    4  N   UNL     1      38.673 -10.627   4.956  1.00  0.00    -0.243 NA
HETATM    5  C   UNL     1      38.228 -10.759   3.691  1.00  0.00     0.119 A 
HETATM    6  C   UNL     1      38.532 -11.833   2.876  1.00  0.00     0.028 A 
ENDROOT
BRANCH   1   7
HETATM    7  C   UNL     1      39.695 -14.050   2.569  1.00  0.00     0.161 C 
BRANCH   7   8
HETATM    8  N   UNL     1      40.391 -15.045   3.347  1.00  0.00    -0.351 N 
HETATM    9  C   UNL     1      40.747 -16.264   2.827  1.00  0.00     0.270 C 
HETATM   10  O   UNL     1      40.463 -16.605   1.683  1.00  0.00    -0.266 OA
HETATM   11  H   UNL     1      40.574 -14.848   4.319  1.00  0.00     0.163 HD
BRANCH   9  12
HETATM   12  C   UNL     1      41.499 -17.110   3.715  1.00  0.00     0.119 A 
HETATM   13  N   UNL     1      40.949 -17.615   4.862  1.00  0.00    -0.273 N 
HETATM   14  N   UNL     1      41.769 -18.412   5.562  1.00  0.00    -0.178 NA
HETATM   15  H   UNL     1      40.007 -17.455   5.206  1.00  0.00     0.189 HD
HETATM   16  C   UNL     1      42.906 -18.427   4.854  1.00  0.00     0.064 A 
HETATM   17  C   UNL     1      42.782 -17.620   3.691  1.00  0.00     0.066 A 
BRANCH  16  18
HETATM   18  C   UNL     1      44.113 -19.242   5.296  1.00  0.00    -0.005 C 
HETATM   19  C   UNL     1      45.252 -18.353   5.840  1.00  0.00     0.021 C 
HETATM   20  C   UNL     1      44.669 -20.049   4.106  1.00  0.00     0.021 C 
HETATM   21  C   UNL     1      43.698 -20.222   6.413  1.00  0.00     0.021 C 
ENDBRANCH  16  18
ENDBRANCH   9  12
ENDBRANCH   7   8
ENDBRANCH   1   7
BRANCH   3  22
HETATM   22  N   UNL     1      39.937 -11.525   6.771  1.00  0.00    -0.306 N 
HETATM   23  C   UNL     1      40.853 -10.617   7.255  1.00  0.00     0.275 C 
HETATM   24  O   UNL     1      41.429  -9.749   6.609  1.00  0.00    -0.266 OA
HETATM   25  H   UNL     1      39.514 -12.162   7.425  1.00  0.00     0.170 HD
BRANCH  23  26
HETATM   26  C   UNL     1      41.091 -10.724   8.679  1.00  0.00     0.120 A 
HETATM   27  N   UNL     1      40.087 -11.102   9.529  1.00  0.00    -0.273 N 
HETATM   28  H   UNL     1      39.131 -11.326   9.272  1.00  0.00     0.189 HD
HETATM   29  N   UNL     1      40.460 -11.195  10.813  1.00  0.00    -0.178 NA
HETATM   30  C   UNL     1      41.748 -10.825  10.815  1.00  0.00     0.064 A 
HETATM   31  C   UNL     1      42.187 -10.529   9.496  1.00  0.00     0.066 A 
BRANCH  30  32
HETATM   32  C   UNL     1      42.540 -10.811  12.114  1.00  0.00    -0.005 C 
HETATM   33  C   UNL     1      41.570 -10.875  13.310  1.00  0.00     0.021 C 
HETATM   34  C   UNL     1      43.503 -12.014  12.203  1.00  0.00     0.021 C 
HETATM   35  C   UNL     1      43.390  -9.527  12.231  1.00  0.00     0.021 C 
ENDBRANCH  30  32
ENDBRANCH  23  26
ENDBRANCH   3  22
TORSDOF 7
ENDMDL
MODEL 4
REMARK VINA RESULT:      -8.0      4.008      5.152
REMARK  7 active torsions:
REMARK  status: ('A' for Active; 'I' for Inactive)
REMARK    1  A    between atoms: C_2  and  C_3 
REMARK    2  A    between atoms: C_7  and  C_8 
REMARK       I    between atoms: C_8  and  N_9 
REMARK    3  A    between atoms: N_9  and  C_10 
REMARK    4  A    between atoms: C_10  and  C_11 
REMARK    5  A    between atoms: C_13  and  N_14 
REMARK       I    between atoms: N_14  and  C_15 
REMARK    6  A    between atoms: C_15  and  C_16 
REMARK    7  A    between atoms: C_20  and  C_21 
ROOT
HETATM    1  C   UNL     1      44.244 -13.434   7.344  1.00  0.00    -0.035 A 
HETATM    2  C   UNL     1      44.439 -14.745   6.890  1.00  0.00     0.059 A 
HETATM    3  C   UNL     1      43.601 -15.264   5.905  1.00  0.00     0.130 A 
HETATM    4  N   UNL     1      42.580 -14.554   5.398  1.00  0.00    -0.243 NA
HETATM    5  C   UNL     1      42.380 -13.305   5.864  1.00  0.00     0.119 A 
HETATM    6  C   UNL     1      43.176 -12.704   6.821  1.00  0.00     0.028 A 
ENDROOT
BRANCH   1   7
HETATM    7  C   UNL     1      45.171 -12.828   8.360  1.00  0.00     0.161 C 
BRANCH   7   8
HETATM    8  N   UNL     1      44.460 -12.366   9.526  1.00  0.00    -0.351 N 
HETATM    9  C   UNL     1      44.680 -11.127  10.075  1.00  0.00     0.270 C 
HETATM   10  O   UNL     1      45.520 -10.348   9.636  1.00  0.00    -0.266 OA
HETATM   11  H   UNL     1      43.819 -13.000   9.977  1.00  0.00     0.163 HD
BRANCH   9  12
HETATM   12  C   UNL     1      43.836 -10.796  11.192  1.00  0.00     0.119 A 
HETATM   13  N   UNL     1      43.227 -11.765  11.942  1.00  0.00    -0.273 N 
HETATM   14  N   UNL     1      42.502 -11.294  12.968  1.00  0.00    -0.178 NA
HETATM   15  H   UNL     1      43.285 -12.769  11.802  1.00  0.00     0.189 HD
HETATM   16  C   UNL     1      42.633  -9.964  12.886  1.00  0.00     0.064 A 
HETATM   17  C   UNL     1      43.457  -9.607  11.784  1.00  0.00     0.066 A 
BRANCH  16  18
HETATM   18  C   UNL     1      41.971  -9.032  13.890  1.00  0.00    -0.005 C 
HETATM   19  C   UNL     1      42.151  -9.515  15.345  1.00  0.00     0.021 C 
HETATM   20  C   UNL     1      40.457  -8.939  13.607  1.00  0.00     0.021 C 
HETATM   21  C   UNL     1      42.586  -7.621  13.777  1.00  0.00     0.021 C 
ENDBRANCH  16  18
ENDBRANCH   9  12
ENDBRANCH   7   8
ENDBRANCH   1   7
BRANCH   3  22
HETATM   22  N   UNL     1      43.884 -16.553   5.433  1.00  0.00    -0.306 N 
HETATM   23  C   UNL     1      43.519 -17.728   6.053  1.00  0.00     0.275 C 
HETATM   24  O   UNL     1      42.926 -17.834   7.121  1.00  0.00    -0.266 OA
HETATM   25  H   UNL     1      44.338 -16.614   4.538  1.00  0.00     0.170 HD
BRANCH  23  26
HETATM   26  C   UNL     1      43.864 -18.919   5.306  1.00  0.00     0.120 A 
HETATM   27  N   UNL     1      44.341 -20.032   5.944  1.00  0.00    -0.273 N 
HETATM   28  H   UNL     1      44.499 -20.134   6.942  1.00  0.00     0.189 HD
HETATM   29  N   UNL     1      44.583 -21.070   5.131  1.00  0.00    -0.178 NA
HETATM   30  C   UNL     1      44.294 -20.611   3.907  1.00  0.00     0.064 A 
HETATM   31  C   UNL     1      43.832 -19.268   3.970  1.00  0.00     0.066 A 
BRANCH  30  32
HETATM   32  C   UNL     1      44.438 -21.518   2.693  1.00  0.00    -0.005 C 
HETATM   33  C   UNL     1      44.727 -22.959   3.158  1.00  0.00     0.021 C 
HETATM   34  C   UNL     1      43.151 -21.530   1.841  1.00  0.00     0.021 C 
HETATM   35  C   UNL     1      45.593 -21.048   1.783  1.00  0.00     0.021 C 
ENDBRANCH  30  32
ENDBRANCH  23  26
ENDBRANCH   3  22
TORSDOF 7
ENDMDL
MODEL 5
REMARK VINA RESULT:      -7.9      1.820      2.075
REMARK  7 active torsions:
REMARK  status: ('A' for Active; 'I' for Inactive)
REMARK    1  A    between atoms: C_2  and  C_3 
REMARK    2  A    between atoms: C_7  and  C_8 
REMARK       I    between atoms: C_8  and  N_9 
REMARK    3  A    between atoms: N_9  and  C_10 
REMARK    4  A    between atoms: C_10  and  C_11 
REMARK    5  A    between atoms: C_13  and  N_14 
REMARK       I    between atoms: N_14  and  C_15 
REMARK    6  A    between atoms: C_15  and  C_16 
REMARK    7  A    between atoms: C_20  and  C_21 
ROOT
HETATM    1  C   UNL     1      44.211 -14.337   6.923  1.00  0.00    -0.035 A 
HETATM    2  C   UNL     1      43.340 -13.927   5.904  1.00  0.00     0.059 A 
HETATM    3  C   UNL     1      42.591 -14.880   5.215  1.00  0.00     0.130 A 
HETATM    4  N   UNL     1      42.705 -16.193   5.474  1.00  0.00    -0.243 NA
HETATM    5  C   UNL     1      43.569 -16.580   6.434  1.00  0.00     0.119 A 
HETATM    6  C   UNL     1      44.333 -15.703   7.181  1.00  0.00     0.028 A 
ENDROOT
BRANCH   1   7
HETATM    7  C   UNL     1      44.984 -13.327   7.723  1.00  0.00     0.161 C 
BRANCH   7   8
HETATM    8  N   UNL     1      44.140 -12.618   8.652  1.00  0.00    -0.351 N 
HETATM    9  C   UNL     1      44.538 -12.334   9.935  1.00  0.00     0.270 C 
HETATM   10  O   UNL     1      45.618 -12.699  10.388  1.00  0.00    -0.266 OA
HETATM   11  H   UNL     1      43.208 -12.370   8.356  1.00  0.00     0.163 HD
BRANCH   9  12
HETATM   12  C   UNL     1      43.604 -11.558  10.706  1.00  0.00     0.119 A 
HETATM   13  N   UNL     1      42.288 -11.454  10.346  1.00  0.00    -0.273 N 
HETATM   14  N   UNL     1      41.542 -10.723  11.187  1.00  0.00    -0.178 NA
HETATM   15  H   UNL     1      41.844 -11.876   9.536  1.00  0.00     0.189 HD
HETATM   16  C   UNL     1      42.401 -10.324  12.134  1.00  0.00     0.064 A 
HETATM   17  C   UNL     1      43.706 -10.821  11.870  1.00  0.00     0.066 A 
BRANCH  16  18
HETATM   18  C   UNL     1      41.953  -9.472  13.312  1.00  0.00    -0.005 C 
HETATM   19  C   UNL     1      42.311 -10.114  14.670  1.00  0.00     0.021 C 
HETATM   20  C   UNL     1      40.423  -9.276  13.271  1.00  0.00     0.021 C 
HETATM   21  C   UNL     1      42.633  -8.089  13.244  1.00  0.00     0.021 C 
ENDBRANCH  16  18
ENDBRANCH   9  12
ENDBRANCH   7   8
ENDBRANCH   1   7
BRANCH   3  22
HETATM   22  N   UNL     1      41.682 -14.412   4.257  1.00  0.00    -0.306 N 
HETATM   23  C   UNL     1      42.019 -13.836   3.052  1.00  0.00     0.275 C 
HETATM   24  O   UNL     1      43.152 -13.609   2.644  1.00  0.00    -0.266 OA
HETATM   25  H   UNL     1      40.708 -14.571   4.448  1.00  0.00     0.170 HD
BRANCH  23  26
HETATM   26  C   UNL     1      40.881 -13.521   2.214  1.00  0.00     0.120 A 
HETATM   27  N   UNL     1      39.604 -13.719   2.664  1.00  0.00    -0.273 N 
HETATM   28  H   UNL     1      39.334 -14.090   3.570  1.00  0.00     0.189 HD
HETATM   29  N   UNL     1      38.651 -13.349   1.796  1.00  0.00    -0.178 NA
HETATM   30  C   UNL     1      39.326 -12.928   0.719  1.00  0.00     0.064 A 
HETATM   31  C   UNL     1      40.728 -13.011   0.939  1.00  0.00     0.066 A 
BRANCH  30  32
HETATM   32  C   UNL     1      38.577 -12.409  -0.501  1.00  0.00    -0.005 C 
HETATM   33  C   UNL     1      39.431 -11.341  -1.213  1.00  0.00     0.021 C 
HETATM   34  C   UNL     1      38.278 -13.542  -1.505  1.00  0.00     0.021 C 
HETATM   35  C   UNL     1      37.227 -11.779  -0.097  1.00  0.00     0.021 C 
ENDBRANCH  30  32
ENDBRANCH  23  26
ENDBRANCH   3  22
TORSDOF 7
ENDMDL
MODEL 6
REMARK VINA RESULT:      -7.7      3.460      5.893
REMARK  7 active torsions:
REMARK  status: ('A' for Active; 'I' for Inactive)
REMARK    1  A    between atoms: C_2  and  C_3 
REMARK    2  A    between atoms: C_7  and  C_8 
REMARK       I    between atoms: C_8  and  N_9 
REMARK    3  A    between atoms: N_9  and  C_10 
REMARK    4  A    between atoms: C_10  and  C_11 
REMARK    5  A    between atoms: C_13  and  N_14 
REMARK       I    between atoms: N_14  and  C_15 
REMARK    6  A    between atoms: C_15  and  C_16 
REMARK    7  A    between atoms: C_20  and  C_21 
ROOT
HETATM    1  C   UNL     1      39.256 -11.679   4.117  1.00  0.00    -0.035 A 
HETATM    2  C   UNL     1      39.969 -12.849   4.413  1.00  0.00     0.059 A 
HETATM    3  C   UNL     1      40.090 -13.844   3.445  1.00  0.00     0.130 A 
HETATM    4  N   UNL     1      39.508 -13.734   2.239  1.00  0.00    -0.243 NA
HETATM    5  C   UNL     1      38.797 -12.619   1.975  1.00  0.00     0.119 A 
HETATM    6  C   UNL     1      38.646 -11.573   2.867  1.00  0.00     0.028 A 
ENDROOT
BRANCH   1   7
HETATM    7  C   UNL     1      39.163 -10.564   5.120  1.00  0.00     0.161 C 
BRANCH   7   8
HETATM    8  N   UNL     1      40.158 -10.688   6.155  1.00  0.00    -0.351 N 
HETATM    9  C   UNL     1      39.878 -10.433   7.475  1.00  0.00     0.270 C 
HETATM   10  O   UNL     1      38.778 -10.044   7.855  1.00  0.00    -0.266 OA
HETATM   11  H   UNL     1      41.100 -10.923   5.885  1.00  0.00     0.163 HD
BRANCH   9  12
HETATM   12  C   UNL     1      40.964 -10.675   8.387  1.00  0.00     0.119 A 
HETATM   13  N   UNL     1      42.247 -10.848   7.944  1.00  0.00    -0.273 N 
HETATM   14  N   UNL     1      43.148 -11.030   8.922  1.00  0.00    -0.178 NA
HETATM   15  H   UNL     1      42.564 -10.838   6.979  1.00  0.00     0.189 HD
HETATM   16  C   UNL     1      42.429 -10.983  10.050  1.00  0.00     0.064 A 
HETATM   17  C   UNL     1      41.055 -10.767   9.762  1.00  0.00     0.066 A 
BRANCH  16  18
HETATM   18  C   UNL     1      43.080 -11.130  11.418  1.00  0.00    -0.005 C 
HETATM   19  C   UNL     1      44.107 -12.281  11.459  1.00  0.00     0.021 C 
HETATM   20  C   UNL     1      42.004 -11.418  12.486  1.00  0.00     0.021 C 
HETATM   21  C   UNL     1      43.812  -9.824  11.790  1.00  0.00     0.021 C 
ENDBRANCH  16  18
ENDBRANCH   9  12
ENDBRANCH   7   8
ENDBRANCH   1   7
BRANCH   3  22
HETATM   22  N   UNL     1      40.873 -14.961   3.765  1.00  0.00    -0.306 N 
HETATM   23  C   UNL     1      40.827 -16.179   3.124  1.00  0.00     0.275 C 
HETATM   24  O   UNL     1      40.078 -16.491   2.206  1.00  0.00    -0.266 OA
HETATM   25  H   UNL     1      41.566 -14.832   4.483  1.00  0.00     0.170 HD
BRANCH  23  26
HETATM   26  C   UNL     1      41.806 -17.132   3.603  1.00  0.00     0.120 A 
HETATM   27  N   UNL     1      42.315 -18.090   2.769  1.00  0.00    -0.273 N 
HETATM   28  H   UNL     1      42.074 -18.231   1.792  1.00  0.00     0.189 HD
HETATM   29  N   UNL     1      43.239 -18.879   3.337  1.00  0.00    -0.178 NA
HETATM   30  C   UNL     1      43.311 -18.450   4.603  1.00  0.00     0.064 A 
HETATM   31  C   UNL     1      42.435 -17.351   4.813  1.00  0.00     0.066 A 
BRANCH  30  32
HETATM   32  C   UNL     1      44.277 -19.105   5.581  1.00  0.00    -0.005 C 
HETATM   33  C   UNL     1      45.100 -20.183   4.849  1.00  0.00     0.021 C 
HETATM   34  C   UNL     1      45.253 -18.075   6.187  1.00  0.00     0.021 C 
HETATM   35  C   UNL     1      43.517 -19.768   6.750  1.00  0.00     0.021 C 
ENDBRANCH  30  32
ENDBRANCH  23  26
ENDBRANCH   3  22
TORSDOF 7
ENDMDL
MODEL 7
REMARK VINA RESULT:      -7.7      3.846     10.183
REMARK  7 active torsions:
REMARK  status: ('A' for Active; 'I' for Inactive)
REMARK    1  A    between atoms: C_2  and  C_3 
REMARK    2  A    between atoms: C_7  and  C_8 
REMARK       I    between atoms: C_8  and  N_9 
REMARK    3  A    between atoms: N_9  and  C_10 
REMARK    4  A    between atoms: C_10  and  C_11 
REMARK    5  A    between atoms: C_13  and  N_14 
REMARK       I    between atoms: N_14  and  C_15 
REMARK    6  A    between atoms: C_15  and  C_16 
REMARK    7  A    between atoms: C_20  and  C_21 
ROOT
HETATM    1  C   UNL     1      38.946 -11.358   3.946  1.00  0.00    -0.035 A 
HETATM    2  C   UNL     1      39.679 -11.120   5.117  1.00  0.00     0.059 A 
HETATM    3  C   UNL     1      39.406  -9.987   5.881  1.00  0.00     0.130 A 
HETATM    4  N   UNL     1      38.480  -9.088   5.509  1.00  0.00    -0.243 NA
HETATM    5  C   UNL     1      37.802  -9.309   4.365  1.00  0.00     0.119 A 
HETATM    6  C   UNL     1      37.991 -10.416   3.560  1.00  0.00     0.028 A 
ENDROOT
BRANCH   1   7
HETATM    7  C   UNL     1      39.176 -12.603   3.137  1.00  0.00     0.161 C 
BRANCH   7   8
HETATM    8  N   UNL     1      39.934 -13.586   3.869  1.00  0.00    -0.351 N 
HETATM    9  C   UNL     1      40.123 -14.863   3.401  1.00  0.00     0.270 C 
HETATM   10  O   UNL     1      39.628 -15.264   2.352  1.00  0.00    -0.266 OA
HETATM   11  H   UNL     1      40.291 -13.334   4.777  1.00  0.00     0.163 HD
BRANCH   9  12
HETATM   12  C   UNL     1      40.963 -15.695   4.221  1.00  0.00     0.119 A 
HETATM   13  N   UNL     1      40.821 -17.056   4.245  1.00  0.00    -0.273 N 
HETATM   14  N   UNL     1      41.703 -17.688   5.034  1.00  0.00    -0.178 NA
HETATM   15  H   UNL     1      40.141 -17.605   3.729  1.00  0.00     0.189 HD
HETATM   16  C   UNL     1      42.450 -16.706   5.554  1.00  0.00     0.064 A 
HETATM   17  C   UNL     1      42.018 -15.440   5.075  1.00  0.00     0.066 A 
BRANCH  16  18
HETATM   18  C   UNL     1      43.601 -16.996   6.507  1.00  0.00    -0.005 C 
HETATM   19  C   UNL     1      44.442 -15.737   6.810  1.00  0.00     0.021 C 
HETATM   20  C   UNL     1      44.539 -18.056   5.893  1.00  0.00     0.021 C 
HETATM   21  C   UNL     1      43.048 -17.534   7.843  1.00  0.00     0.021 C 
ENDBRANCH  16  18
ENDBRANCH   9  12
ENDBRANCH   7   8
ENDBRANCH   1   7
BRANCH   3  22
HETATM   22  N   UNL     1      40.116  -9.833   7.080  1.00  0.00    -0.306 N 
HETATM   23  C   UNL     1      39.608 -10.050   8.342  1.00  0.00     0.275 C 
HETATM   24  O   UNL     1      38.459 -10.374   8.619  1.00  0.00    -0.266 OA
HETATM   25  H   UNL     1      41.091  -9.605   6.997  1.00  0.00     0.170 HD
BRANCH  23  26
HETATM   26  C   UNL     1      40.583  -9.899   9.401  1.00  0.00     0.120 A 
HETATM   27  N   UNL     1      40.657  -8.740  10.125  1.00  0.00    -0.273 N 
HETATM   28  H   UNL     1      40.080  -7.914  10.001  1.00  0.00     0.189 HD
HETATM   29  N   UNL     1      41.581  -8.757  11.096  1.00  0.00    -0.178 NA
HETATM   30  C   UNL     1      42.165  -9.956  10.982  1.00  0.00     0.064 A 
HETATM   31  C   UNL     1      41.565 -10.710   9.936  1.00  0.00     0.066 A 
BRANCH  30  32
HETATM   32  C   UNL     1      43.281 -10.361  11.935  1.00  0.00    -0.005 C 
HETATM   33  C   UNL     1      43.409  -9.308  13.054  1.00  0.00     0.021 C 
HETATM   34  C   UNL     1      42.998 -11.731  12.587  1.00  0.00     0.021 C 
HETATM   35  C   UNL     1      44.631 -10.468  11.195  1.00  0.00     0.021 C 
ENDBRANCH  30  32
ENDBRANCH  23  26
ENDBRANCH   3  22
TORSDOF 7
ENDMDL
MODEL 8
REMARK VINA RESULT:      -7.7      3.652      5.423
REMARK  7 active torsions:
REMARK  status: ('A' for Active; 'I' for Inactive)
REMARK    1  A    between atoms: C_2  and  C_3 
REMARK    2  A    between atoms: C_7  and  C_8 
REMARK       I    between atoms: C_8  and  N_9 
REMARK    3  A    between atoms: N_9  and  C_10 
REMARK    4  A    between atoms: C_10  and  C_11 
REMARK    5  A    between atoms: C_13  and  N_14 
REMARK       I    between atoms: N_14  and  C_15 
REMARK    6  A    between atoms: C_15  and  C_16 
REMARK    7  A    between atoms: C_20  and  C_21 
ROOT
HETATM    1  C   UNL     1      39.068 -10.276   4.639  1.00  0.00    -0.035 A 
HETATM    2  C   UNL     1      39.722 -11.515   4.612  1.00  0.00     0.059 A 
HETATM    3  C   UNL     1      39.490 -12.393   3.555  1.00  0.00     0.130 A 
HETATM    4  N   UNL     1      38.623 -12.103   2.571  1.00  0.00    -0.243 NA
HETATM    5  C   UNL     1      37.974 -10.922   2.622  1.00  0.00     0.119 A 
HETATM    6  C   UNL     1      38.162  -9.983   3.619  1.00  0.00     0.028 A 
ENDROOT
BRANCH   1   7
HETATM    7  C   UNL     1      39.348  -9.285   5.733  1.00  0.00     0.161 C 
BRANCH   7   8
HETATM    8  N   UNL     1      40.083  -9.880   6.821  1.00  0.00    -0.351 N 
HETATM    9  C   UNL     1      41.338  -9.453   7.177  1.00  0.00     0.270 C 
HETATM   10  O   UNL     1      41.934  -8.569   6.570  1.00  0.00    -0.266 OA
HETATM   11  H   UNL     1      39.673 -10.668   7.299  1.00  0.00     0.163 HD
BRANCH   9  12
HETATM   12  C   UNL     1      41.900 -10.106   8.329  1.00  0.00     0.119 A 
HETATM   13  N   UNL     1      42.767 -11.157   8.207  1.00  0.00    -0.273 N 
HETATM   14  N   UNL     1      43.227 -11.632   9.375  1.00  0.00    -0.178 NA
HETATM   15  H   UNL     1      43.089 -11.583   7.343  1.00  0.00     0.189 HD
HETATM   16  C   UNL     1      42.634 -10.869  10.302  1.00  0.00     0.064 A 
HETATM   17  C   UNL     1      41.790  -9.903   9.691  1.00  0.00     0.066 A 
BRANCH  16  18
HETATM   18  C   UNL     1      42.899 -11.065  11.787  1.00  0.00    -0.005 C 
HETATM   19  C   UNL     1      43.614  -9.851  12.419  1.00  0.00     0.021 C 
HETATM   20  C   UNL     1      43.791 -12.305  12.006  1.00  0.00     0.021 C 
HETATM   21  C   UNL     1      41.565 -11.273  12.532  1.00  0.00     0.021 C 
ENDBRANCH  16  18
ENDBRANCH   9  12
ENDBRANCH   7   8
ENDBRANCH   1   7
BRANCH   3  22
HETATM   22  N   UNL     1      40.223 -13.587   3.537  1.00  0.00    -0.306 N 
HETATM   23  C   UNL     1      40.192 -14.558   4.515  1.00  0.00     0.275 C 
HETATM   24  O   UNL     1      39.554 -14.518   5.560  1.00  0.00    -0.266 OA
HETATM   25  H   UNL     1      40.766 -13.768   2.710  1.00  0.00     0.170 HD
BRANCH  23  26
HETATM   26  C   UNL     1      40.983 -15.730   4.203  1.00  0.00     0.120 A 
HETATM   27  N   UNL     1      40.751 -16.919   4.840  1.00  0.00    -0.273 N 
HETATM   28  H   UNL     1      40.052 -17.095   5.556  1.00  0.00     0.189 HD
HETATM   29  N   UNL     1      41.533 -17.926   4.425  1.00  0.00    -0.178 NA
HETATM   30  C   UNL     1      42.337 -17.370   3.510  1.00  0.00     0.064 A 
HETATM   31  C   UNL     1      42.022 -15.995   3.333  1.00  0.00     0.066 A 
BRANCH  30  32
HETATM   32  C   UNL     1      43.379 -18.214   2.789  1.00  0.00    -0.005 C 
HETATM   33  C   UNL     1      44.339 -18.838   3.821  1.00  0.00     0.021 C 
HETATM   34  C   UNL     1      42.724 -19.354   1.982  1.00  0.00     0.021 C 
HETATM   35  C   UNL     1      44.199 -17.357   1.801  1.00  0.00     0.021 C 
ENDBRANCH  30  32
ENDBRANCH  23  26
ENDBRANCH   3  22
TORSDOF 7
ENDMDL
MODEL 9
REMARK VINA RESULT:      -7.7      3.457      9.935
REMARK  7 active torsions:
REMARK  status: ('A' for Active; 'I' for Inactive)
REMARK    1  A    between atoms: C_2  and  C_3 
REMARK    2  A    between atoms: C_7  and  C_8 
REMARK       I    between atoms: C_8  and  N_9 
REMARK    3  A    between atoms: N_9  and  C_10 
REMARK    4  A    between atoms: C_10  and  C_11 
REMARK    5  A    between atoms: C_13  and  N_14 
REMARK       I    between atoms: N_14  and  C_15 
REMARK    6  A    between atoms: C_15  and  C_16 
REMARK    7  A    between atoms: C_20  and  C_21 
ROOT
HETATM    1  C   UNL     1      39.635 -11.653   3.437  1.00  0.00    -0.035 A 
HETATM    2  C   UNL     1      40.276 -11.562   4.680  1.00  0.00     0.059 A 
HETATM    3  C   UNL     1      39.747 -10.733   5.668  1.00  0.00     0.130 A 
HETATM    4  N   UNL     1      38.654  -9.983   5.452  1.00  0.00    -0.243 NA
HETATM    5  C   UNL     1      38.062 -10.053   4.243  1.00  0.00     0.119 A 
HETATM    6  C   UNL     1      38.505 -10.865   3.215  1.00  0.00     0.028 A 
ENDROOT
BRANCH   1   7
HETATM    7  C   UNL     1      40.148 -12.585   2.376  1.00  0.00     0.161 C 
BRANCH   7   8
HETATM    8  N   UNL     1      40.777 -13.751   2.945  1.00  0.00    -0.351 N 
HETATM    9  C   UNL     1      42.127 -13.980   2.838  1.00  0.00     0.270 C 
HETATM   10  O   UNL     1      42.878 -13.234   2.219  1.00  0.00    -0.266 OA
HETATM   11  H   UNL     1      40.192 -14.439   3.391  1.00  0.00     0.163 HD
BRANCH   9  12
HETATM   12  C   UNL     1      42.602 -15.153   3.523  1.00  0.00     0.119 A 
HETATM   13  N   UNL     1      43.243 -16.162   2.859  1.00  0.00    -0.273 N 
HETATM   14  N   UNL     1      43.652 -17.168   3.646  1.00  0.00    -0.178 NA
HETATM   15  H   UNL     1      43.438 -16.207   1.863  1.00  0.00     0.189 HD
HETATM   16  C   UNL     1      43.260 -16.810   4.875  1.00  0.00     0.064 A 
HETATM   17  C   UNL     1      42.593 -15.556   4.845  1.00  0.00     0.066 A 
BRANCH  16  18
HETATM   18  C   UNL     1      43.548 -17.680   6.091  1.00  0.00    -0.005 C 
HETATM   19  C   UNL     1      45.005 -17.536   6.582  1.00  0.00     0.021 C 
HETATM   20  C   UNL     1      43.309 -19.164   5.747  1.00  0.00     0.021 C 
HETATM   21  C   UNL     1      42.612 -17.280   7.251  1.00  0.00     0.021 C 
ENDBRANCH  16  18
ENDBRANCH   9  12
ENDBRANCH   7   8
ENDBRANCH   1   7
BRANCH   3  22
HETATM   22  N   UNL     1      40.383 -10.734   6.916  1.00  0.00    -0.306 N 
HETATM   23  C   UNL     1      39.754 -10.592   8.134  1.00  0.00     0.275 C 
HETATM   24  O   UNL     1      38.556 -10.409   8.317  1.00  0.00    -0.266 OA
HETATM   25  H   UNL     1      41.372 -10.914   6.915  1.00  0.00     0.170 HD
BRANCH  23  26
HETATM   26  C   UNL     1      40.640 -10.715   9.271  1.00  0.00     0.120 A 
HETATM   27  N   UNL     1      40.149 -11.023  10.511  1.00  0.00    -0.273 N 
HETATM   28  H   UNL     1      39.176 -11.181  10.752  1.00  0.00     0.189 HD
HETATM   29  N   UNL     1      41.088 -11.141  11.461  1.00  0.00    -0.178 NA
HETATM   30  C   UNL     1      42.237 -10.860  10.832  1.00  0.00     0.064 A 
HETATM   31  C   UNL     1      42.004 -10.594   9.454  1.00  0.00     0.066 A 
BRANCH  30  32
HETATM   32  C   UNL     1      43.557 -10.899  11.589  1.00  0.00    -0.005 C 
HETATM   33  C   UNL     1      43.802 -12.325  12.122  1.00  0.00     0.021 C 
HETATM   34  C   UNL     1      44.742 -10.508  10.681  1.00  0.00     0.021 C 
HETATM   35  C   UNL     1      43.541  -9.918  12.781  1.00  0.00     0.021 C 
ENDBRANCH  30  32
ENDBRANCH  23  26
ENDBRANCH   3  22
TORSDOF 7
ENDMDL
MODEL 10
REMARK VINA RESULT:      -7.7      3.973      5.097
REMARK  7 active torsions:
REMARK  status: ('A' for Active; 'I' for Inactive)
REMARK    1  A    between atoms: C_2  and  C_3 
REMARK    2  A    between atoms: C_7  and  C_8 
REMARK       I    between atoms: C_8  and  N_9 
REMARK    3  A    between atoms: N_9  and  C_10 
REMARK    4  A    between atoms: C_10  and  C_11 
REMARK    5  A    between atoms: C_13  and  N_14 
REMARK       I    between atoms: N_14  and  C_15 
REMARK    6  A    between atoms: C_15  and  C_16 
REMARK    7  A    between atoms: C_20  and  C_21 
ROOT
HETATM    1  C   UNL     1      43.641 -17.877   4.082  1.00  0.00    -0.035 A 
HETATM    2  C   UNL     1      43.264 -17.051   3.014  1.00  0.00     0.059 A 
HETATM    3  C   UNL     1      43.285 -17.554   1.715  1.00  0.00     0.130 A 
HETATM    4  N   UNL     1      43.695 -18.804   1.446  1.00  0.00    -0.243 NA
HETATM    5  C   UNL     1      44.086 -19.581   2.476  1.00  0.00     0.119 A 
HETATM    6  C   UNL     1      44.074 -19.172   3.796  1.00  0.00     0.028 A 
ENDROOT
BRANCH   1   7
HETATM    7  C   UNL     1      43.568 -17.381   5.498  1.00  0.00     0.161 C 
BRANCH   7   8
HETATM    8  N   UNL     1      42.919 -16.096   5.584  1.00  0.00    -0.351 N 
HETATM    9  C   UNL     1      41.572 -15.970   5.822  1.00  0.00     0.270 C 
HETATM   10  O   UNL     1      40.826 -16.937   5.935  1.00  0.00    -0.266 OA
HETATM   11  H   UNL     1      43.471 -15.270   5.414  1.00  0.00     0.163 HD
BRANCH   9  12
HETATM   12  C   UNL     1      41.100 -14.617   5.948  1.00  0.00     0.119 A 
HETATM   13  N   UNL     1      39.855 -14.335   6.440  1.00  0.00    -0.273 N 
HETATM   14  N   UNL     1      39.580 -13.024   6.526  1.00  0.00    -0.178 NA
HETATM   15  H   UNL     1      39.155 -15.005   6.746  1.00  0.00     0.189 HD
HETATM   16  C   UNL     1      40.683 -12.421   6.066  1.00  0.00     0.064 A 
HETATM   17  C   UNL     1      41.660 -13.381   5.688  1.00  0.00     0.066 A 
BRANCH  16  18
HETATM   18  C   UNL     1      40.800 -10.905   6.008  1.00  0.00    -0.005 C 
HETATM   19  C   UNL     1      39.427 -10.207   6.116  1.00  0.00     0.021 C 
HETATM   20  C   UNL     1      41.446 -10.475   4.675  1.00  0.00     0.021 C 
HETATM   21  C   UNL     1      41.681 -10.406   7.172  1.00  0.00     0.021 C 
ENDBRANCH  16  18
ENDBRANCH   9  12
ENDBRANCH   7   8
ENDBRANCH   1   7
BRANCH   3  22
HETATM   22  N   UNL     1      42.829 -16.712   0.692  1.00  0.00    -0.306 N 
HETATM   23  C   UNL     1      41.518 -16.339   0.489  1.00  0.00     0.275 C 
HETATM   24  O   UNL     1      40.548 -16.706   1.140  1.00  0.00    -0.266 OA
HETATM   25  H   UNL     1      43.532 -16.304   0.100  1.00  0.00     0.170 HD
BRANCH  23  26
HETATM   26  C   UNL     1      41.338 -15.391  -0.591  1.00  0.00     0.120 A 
HETATM   27  N   UNL     1      40.990 -15.817  -1.844  1.00  0.00    -0.273 N 
HETATM   28  H   UNL     1      40.838 -16.778  -2.135  1.00  0.00     0.189 HD
HETATM   29  N   UNL     1      40.822 -14.828  -2.734  1.00  0.00    -0.178 NA
HETATM   30  C   UNL     1      41.108 -13.712  -2.051  1.00  0.00     0.064 A 
HETATM   31  C   UNL     1      41.430 -14.017  -0.700  1.00  0.00     0.066 A 
BRANCH  30  32
HETATM   32  C   UNL     1      41.019 -12.352  -2.730  1.00  0.00    -0.005 C 
HETATM   33  C   UNL     1      42.362 -12.031  -3.416  1.00  0.00     0.021 C 
HETATM   34  C   UNL     1      39.908 -12.326  -3.800  1.00  0.00     0.021 C 
HETATM   35  C   UNL     1      40.704 -11.241  -1.706  1.00  0.00     0.021 C 
ENDBRANCH  30  32
ENDBRANCH  23  26
ENDBRANCH   3  22
TORSDOF 7
ENDMDL
