MODEL 1
REMARK VINA RESULT:      -8.3      0.000      0.000
REMARK  5 active torsions:
REMARK  status: ('A' for Active; 'I' for Inactive)
REMARK    1  A    between atoms: C_2  and  C_3 
REMARK    2  A    between atoms: C_3  and  N_4 
REMARK    3  A    between atoms: N_4  and  C_7 
REMARK    4  A    between atoms: C_10  and  O_11 
REMARK    5  A    between atoms: O_11  and  C_12 
ROOT
HETATM    1  C   UNL     1      40.328 -14.788  -1.196  1.00  0.00     0.164 A 
HETATM    2  N   UNL     1      39.219 -14.058  -0.960  1.00  0.00    -0.236 NA
HETATM    3  C   UNL     1      38.271 -14.068  -1.931  1.00  0.00     0.142 A 
HETATM    4  C   UNL     1      38.389 -14.768  -3.126  1.00  0.00     0.062 A 
HETATM    5  C   UNL     1      37.343 -14.728  -4.097  1.00  0.00     0.101 C 
HETATM    6  N   UNL     1      36.493 -14.693  -4.884  1.00  0.00    -0.191 NA
HETATM    7  C   UNL     1      39.555 -15.501  -3.341  1.00  0.00     0.028 A 
HETATM    8  C   UNL     1      40.547 -15.507  -2.361  1.00  0.00     0.059 A 
ENDROOT
BRANCH   1   9
HETATM    9  O   UNL     1      41.345 -14.805  -0.266  1.00  0.00    -0.329 OA
BRANCH   9  10
HETATM   10  C   UNL     1      41.561 -16.071   0.370  1.00  0.00     0.130 C 
HETATM   11  C   UNL     1      42.838 -15.918   1.209  1.00  0.00     0.034 C 
HETATM   12  C   UNL     1      42.678 -14.854   2.300  1.00  0.00     0.035 C 
HETATM   13  C   UNL     1      41.467 -15.094   3.208  1.00  0.00     0.186 C 
HETATM   14  C   UNL     1      40.193 -15.371   2.400  1.00  0.00     0.035 C 
HETATM   15  C   UNL     1      40.383 -16.413   1.293  1.00  0.00     0.034 C 
BRANCH  13  16
HETATM   16  N   UNL     1      41.723 -16.256   4.132  1.00  0.00    -0.067 N 
HETATM   17  H   UNL     1      41.485 -17.152   3.690  1.00  0.00     0.277 HD
HETATM   18  H   UNL     1      41.095 -16.188   4.946  1.00  0.00     0.277 HD
BRANCH  16  19
HETATM   19  C   UNL     1      43.113 -16.339   4.679  1.00  0.00     0.271 C 
BRANCH  19  20
HETATM   20  C   UNL     1      43.677 -17.724   4.557  1.00  0.00    -0.030 A 
HETATM   21  C   UNL     1      44.468 -18.267   5.582  1.00  0.00     0.012 A 
HETATM   22  C   UNL     1      44.964 -19.569   5.481  1.00  0.00     0.040 A 
HETATM   23  C   UNL     1      44.669 -20.341   4.360  1.00  0.00     0.102 A 
HETATM   24  C   UNL     1      43.919 -19.797   3.316  1.00  0.00     0.102 A 
HETATM   25  O   UNL     1      45.145 -21.625   4.351  1.00  0.00    -0.346 OA
HETATM   26  C   UNL     1      43.420 -18.498   3.415  1.00  0.00     0.048 A 
HETATM   27  O   UNL     1      43.611 -20.485   2.172  1.00  0.00    -0.346 OA
HETATM   28  C   UNL     1      44.379 -21.692   2.050  1.00  0.00     0.202 C 
HETATM   29  C   UNL     1      44.459 -22.425   3.380  1.00  0.00     0.202 C 
ENDBRANCH  19  20
ENDBRANCH  16  19
ENDBRANCH  13  16
ENDBRANCH   9  10
ENDBRANCH   1   9
TORSDOF 5
ENDMDL
MODEL 2
REMARK VINA RESULT:      -8.1      6.476      9.738
REMARK  5 active torsions:
REMARK  status: ('A' for Active; 'I' for Inactive)
REMARK    1  A    between atoms: C_2  and  C_3 
REMARK    2  A    between atoms: C_3  and  N_4 
REMARK    3  A    between atoms: N_4  and  C_7 
REMARK    4  A    between atoms: C_10  and  O_11 
REMARK    5  A    between atoms: O_11  and  C_12 
ROOT
HETATM    1  C   UNL     1      43.692 -17.450   3.810  1.00  0.00     0.164 A 
HETATM    2  N   UNL     1      44.310 -18.425   4.508  1.00  0.00    -0.236 NA
HETATM    3  C   UNL     1      44.400 -19.636   3.902  1.00  0.00     0.142 A 
HETATM    4  C   UNL     1      43.895 -19.914   2.638  1.00  0.00     0.062 A 
HETATM    5  C   UNL     1      44.033 -21.216   2.071  1.00  0.00     0.101 C 
HETATM    6  N   UNL     1      44.146 -22.275   1.613  1.00  0.00    -0.191 NA
HETATM    7  C   UNL     1      43.251 -18.884   1.952  1.00  0.00     0.028 A 
HETATM    8  C   UNL     1      43.142 -17.630   2.551  1.00  0.00     0.059 A 
ENDROOT
BRANCH   1   9
HETATM    9  O   UNL     1      43.541 -16.200   4.371  1.00  0.00    -0.329 OA
BRANCH   9  10
HETATM   10  C   UNL     1      43.011 -16.194   5.703  1.00  0.00     0.130 C 
HETATM   11  C   UNL     1      44.221 -16.202   6.648  1.00  0.00     0.034 C 
HETATM   12  C   UNL     1      45.089 -14.952   6.471  1.00  0.00     0.035 C 
HETATM   13  C   UNL     1      44.305 -13.644   6.619  1.00  0.00     0.186 C 
HETATM   14  C   UNL     1      43.022 -13.649   5.778  1.00  0.00     0.035 C 
HETATM   15  C   UNL     1      42.186 -14.922   5.944  1.00  0.00     0.034 C 
BRANCH  13  16
HETATM   16  N   UNL     1      43.943 -13.405   8.062  1.00  0.00    -0.067 N 
HETATM   17  H   UNL     1      43.821 -14.287   8.573  1.00  0.00     0.277 HD
HETATM   18  H   UNL     1      43.025 -12.942   8.110  1.00  0.00     0.277 HD
BRANCH  16  19
HETATM   19  C   UNL     1      44.896 -12.534   8.819  1.00  0.00     0.271 C 
BRANCH  19  20
HETATM   20  C   UNL     1      44.174 -11.530   9.671  1.00  0.00    -0.030 A 
HETATM   21  C   UNL     1      44.658 -11.196  10.946  1.00  0.00     0.012 A 
HETATM   22  C   UNL     1      44.002 -10.237  11.722  1.00  0.00     0.040 A 
HETATM   23  C   UNL     1      42.865  -9.602  11.231  1.00  0.00     0.102 A 
HETATM   24  C   UNL     1      42.352  -9.957   9.983  1.00  0.00     0.102 A 
HETATM   25  O   UNL     1      42.305  -8.637  12.025  1.00  0.00    -0.346 OA
HETATM   26  C   UNL     1      43.004 -10.911   9.203  1.00  0.00     0.048 A 
HETATM   27  O   UNL     1      41.225  -9.394   9.445  1.00  0.00    -0.346 OA
HETATM   28  C   UNL     1      40.489  -8.635  10.416  1.00  0.00     0.202 C 
HETATM   29  C   UNL     1      41.423  -7.794  11.272  1.00  0.00     0.202 C 
ENDBRANCH  19  20
ENDBRANCH  16  19
ENDBRANCH  13  16
ENDBRANCH   9  10
ENDBRANCH   1   9
TORSDOF 5
ENDMDL
MODEL 3
REMARK VINA RESULT:      -7.9      6.119      9.233
REMARK  5 active torsions:
REMARK  status: ('A' for Active; 'I' for Inactive)
REMARK    1  A    between atoms: C_2  and  C_3 
REMARK    2  A    between atoms: C_3  and  N_4 
REMARK    3  A    between atoms: N_4  and  C_7 
REMARK    4  A    between atoms: C_10  and  O_11 
REMARK    5  A    between atoms: O_11  and  C_12 
ROOT
HETATM    1  C   UNL     1      43.518 -17.362   3.595  1.00  0.00     0.164 A 
HETATM    2  N   UNL     1      44.053 -18.282   4.423  1.00  0.00    -0.236 NA
HETATM    3  C   UNL     1      44.235 -19.524   3.909  1.00  0.00     0.142 A 
HETATM    4  C   UNL     1      43.900 -19.886   2.610  1.00  0.00     0.062 A 
HETATM    5  C   UNL     1      44.126 -21.217   2.145  1.00  0.00     0.101 C 
HETATM    6  N   UNL     1      44.311 -22.299   1.771  1.00  0.00    -0.191 NA
HETATM    7  C   UNL     1      43.337 -18.912   1.786  1.00  0.00     0.028 A 
HETATM    8  C   UNL     1      43.136 -17.628   2.288  1.00  0.00     0.059 A 
ENDROOT
BRANCH   1   9
HETATM    9  O   UNL     1      43.280 -16.085   4.055  1.00  0.00    -0.329 OA
BRANCH   9  10
HETATM   10  C   UNL     1      42.148 -15.956   4.925  1.00  0.00     0.130 C 
HETATM   11  C   UNL     1      42.671 -15.312   6.217  1.00  0.00     0.034 C 
HETATM   12  C   UNL     1      43.244 -13.913   5.964  1.00  0.00     0.035 C 
HETATM   13  C   UNL     1      42.260 -12.974   5.258  1.00  0.00     0.186 C 
HETATM   14  C   UNL     1      41.626 -13.632   4.026  1.00  0.00     0.035 C 
HETATM   15  C   UNL     1      41.090 -15.042   4.292  1.00  0.00     0.034 C 
BRANCH  13  16
HETATM   16  N   UNL     1      41.167 -12.548   6.203  1.00  0.00    -0.067 N 
HETATM   17  H   UNL     1      41.149 -13.129   7.049  1.00  0.00     0.277 HD
HETATM   18  H   UNL     1      40.252 -12.702   5.756  1.00  0.00     0.277 HD
BRANCH  16  19
HETATM   19  C   UNL     1      41.201 -11.107   6.605  1.00  0.00     0.271 C 
BRANCH  19  20
HETATM   20  C   UNL     1      41.275 -10.947   8.095  1.00  0.00    -0.030 A 
HETATM   21  C   UNL     1      40.107 -10.969   8.875  1.00  0.00     0.012 A 
HETATM   22  C   UNL     1      40.183 -10.853  10.266  1.00  0.00     0.040 A 
HETATM   23  C   UNL     1      41.421 -10.722  10.888  1.00  0.00     0.102 A 
HETATM   24  C   UNL     1      42.584 -10.657  10.120  1.00  0.00     0.102 A 
HETATM   25  O   UNL     1      41.423 -10.665  12.256  1.00  0.00    -0.346 OA
HETATM   26  C   UNL     1      42.514 -10.775   8.731  1.00  0.00     0.048 A 
HETATM   27  O   UNL     1      43.835 -10.503  10.657  1.00  0.00    -0.346 OA
HETATM   28  C   UNL     1      43.779 -10.129  12.042  1.00  0.00     0.202 C 
HETATM   29  C   UNL     1      42.727 -10.939  12.784  1.00  0.00     0.202 C 
ENDBRANCH  19  20
ENDBRANCH  16  19
ENDBRANCH  13  16
ENDBRANCH   9  10
ENDBRANCH   1   9
TORSDOF 5
ENDMDL
MODEL 4
REMARK VINA RESULT:      -7.9      6.070      9.653
REMARK  5 active torsions:
REMARK  status: ('A' for Active; 'I' for Inactive)
REMARK    1  A    between atoms: C_2  and  C_3 
REMARK    2  A    between atoms: C_3  and  N_4 
REMARK    3  A    between atoms: N_4  and  C_7 
REMARK    4  A    between atoms: C_10  and  O_11 
REMARK    5  A    between atoms: O_11  and  C_12 
ROOT
HETATM    1  C   UNL     1      43.580 -17.532   3.859  1.00  0.00     0.164 A 
HETATM    2  N   UNL     1      44.192 -18.418   4.670  1.00  0.00    -0.236 NA
HETATM    3  C   UNL     1      44.419 -19.653   4.155  1.00  0.00     0.142 A 
HETATM    4  C   UNL     1      44.054 -20.039   2.871  1.00  0.00     0.062 A 
HETATM    5  C   UNL     1      44.331 -21.359   2.402  1.00  0.00     0.101 C 
HETATM    6  N   UNL     1      44.557 -22.432   2.026  1.00  0.00    -0.191 NA
HETATM    7  C   UNL     1      43.412 -19.100   2.065  1.00  0.00     0.028 A 
HETATM    8  C   UNL     1      43.164 -17.825   2.569  1.00  0.00     0.059 A 
ENDROOT
BRANCH   1   9
HETATM    9  O   UNL     1      43.294 -16.266   4.322  1.00  0.00    -0.329 OA
BRANCH   9  10
HETATM   10  C   UNL     1      42.813 -16.209   5.671  1.00  0.00     0.130 C 
HETATM   11  C   UNL     1      43.080 -14.780   6.163  1.00  0.00     0.034 C 
HETATM   12  C   UNL     1      42.315 -13.741   5.337  1.00  0.00     0.035 C 
HETATM   13  C   UNL     1      40.807 -14.011   5.271  1.00  0.00     0.186 C 
HETATM   14  C   UNL     1      40.504 -15.468   4.898  1.00  0.00     0.035 C 
HETATM   15  C   UNL     1      41.304 -16.489   5.712  1.00  0.00     0.034 C 
BRANCH  13  16
HETATM   16  N   UNL     1      40.156 -13.699   6.593  1.00  0.00    -0.067 N 
HETATM   17  H   UNL     1      40.834 -13.718   7.363  1.00  0.00     0.277 HD
HETATM   18  H   UNL     1      39.477 -14.438   6.820  1.00  0.00     0.277 HD
BRANCH  16  19
HETATM   19  C   UNL     1      39.404 -12.406   6.640  1.00  0.00     0.271 C 
BRANCH  19  20
HETATM   20  C   UNL     1      39.989 -11.460   7.648  1.00  0.00    -0.030 A 
HETATM   21  C   UNL     1      41.259 -10.896   7.445  1.00  0.00     0.012 A 
HETATM   22  C   UNL     1      41.786  -9.990   8.369  1.00  0.00     0.040 A 
HETATM   23  C   UNL     1      41.050  -9.635   9.495  1.00  0.00     0.102 A 
HETATM   24  C   UNL     1      39.805 -10.220   9.727  1.00  0.00     0.102 A 
HETATM   25  O   UNL     1      41.607  -8.703  10.330  1.00  0.00    -0.346 OA
HETATM   26  C   UNL     1      39.273 -11.124   8.807  1.00  0.00     0.048 A 
HETATM   27  O   UNL     1      39.033  -9.941  10.824  1.00  0.00    -0.346 OA
HETATM   28  C   UNL     1      39.768  -9.221  11.826  1.00  0.00     0.202 C 
HETATM   29  C   UNL     1      40.620  -8.129  11.197  1.00  0.00     0.202 C 
ENDBRANCH  19  20
ENDBRANCH  16  19
ENDBRANCH  13  16
ENDBRANCH   9  10
ENDBRANCH   1   9
TORSDOF 5
ENDMDL
MODEL 5
REMARK VINA RESULT:      -7.4      2.627      3.166
REMARK  5 active torsions:
REMARK  status: ('A' for Active; 'I' for Inactive)
REMARK    1  A    between atoms: C_2  and  C_3 
REMARK    2  A    between atoms: C_3  and  N_4 
REMARK    3  A    between atoms: N_4  and  C_7 
REMARK    4  A    between atoms: C_10  and  O_11 
REMARK    5  A    between atoms: O_11  and  C_12 
ROOT
HETATM    1  C   UNL     1      42.012 -12.479   0.286  1.00  0.00     0.164 A 
HETATM    2  N   UNL     1      41.809 -13.442  -0.635  1.00  0.00    -0.236 NA
HETATM    3  C   UNL     1      41.945 -13.074  -1.934  1.00  0.00     0.142 A 
HETATM    4  C   UNL     1      42.266 -11.788  -2.348  1.00  0.00     0.062 A 
HETATM    5  C   UNL     1      42.393 -11.482  -3.737  1.00  0.00     0.101 C 
HETATM    6  N   UNL     1      42.493 -11.238  -4.866  1.00  0.00    -0.191 NA
HETATM    7  C   UNL     1      42.456 -10.815  -1.368  1.00  0.00     0.028 A 
HETATM    8  C   UNL     1      42.321 -11.164  -0.026  1.00  0.00     0.059 A 
ENDROOT
BRANCH   1   9
HETATM    9  O   UNL     1      41.867 -12.772   1.625  1.00  0.00    -0.329 OA
BRANCH   9  10
HETATM   10  C   UNL     1      42.070 -14.149   1.969  1.00  0.00     0.130 C 
HETATM   11  C   UNL     1      43.151 -14.166   3.058  1.00  0.00     0.034 C 
HETATM   12  C   UNL     1      42.702 -13.419   4.318  1.00  0.00     0.035 C 
HETATM   13  C   UNL     1      41.368 -13.925   4.880  1.00  0.00     0.186 C 
HETATM   14  C   UNL     1      40.294 -14.035   3.790  1.00  0.00     0.035 C 
HETATM   15  C   UNL     1      40.774 -14.756   2.526  1.00  0.00     0.034 C 
BRANCH  13  16
HETATM   16  N   UNL     1      41.547 -15.273   5.529  1.00  0.00    -0.067 N 
HETATM   17  H   UNL     1      41.412 -16.038   4.858  1.00  0.00     0.277 HD
HETATM   18  H   UNL     1      40.812 -15.409   6.237  1.00  0.00     0.277 HD
BRANCH  16  19
HETATM   19  C   UNL     1      42.852 -15.470   6.233  1.00  0.00     0.271 C 
BRANCH  19  20
HETATM   20  C   UNL     1      43.543 -16.724   5.782  1.00  0.00    -0.030 A 
HETATM   21  C   UNL     1      44.607 -17.260   6.525  1.00  0.00     0.012 A 
HETATM   22  C   UNL     1      45.226 -18.446   6.121  1.00  0.00     0.040 A 
HETATM   23  C   UNL     1      44.785 -19.107   4.978  1.00  0.00     0.102 A 
HETATM   24  C   UNL     1      43.757 -18.561   4.209  1.00  0.00     0.102 A 
HETATM   25  O   UNL     1      45.404 -20.289   4.670  1.00  0.00    -0.346 OA
HETATM   26  C   UNL     1      43.134 -17.379   4.610  1.00  0.00     0.048 A 
HETATM   27  O   UNL     1      43.287 -19.139   3.059  1.00  0.00    -0.346 OA
HETATM   28  C   UNL     1      44.153 -20.185   2.594  1.00  0.00     0.202 C 
HETATM   29  C   UNL     1      44.622 -21.058   3.747  1.00  0.00     0.202 C 
ENDBRANCH  19  20
ENDBRANCH  16  19
ENDBRANCH  13  16
ENDBRANCH   9  10
ENDBRANCH   1   9
TORSDOF 5
ENDMDL
MODEL 6
REMARK VINA RESULT:      -7.4      6.149      8.657
REMARK  5 active torsions:
REMARK  status: ('A' for Active; 'I' for Inactive)
REMARK    1  A    between atoms: C_2  and  C_3 
REMARK    2  A    between atoms: C_3  and  N_4 
REMARK    3  A    between atoms: N_4  and  C_7 
REMARK    4  A    between atoms: C_10  and  O_11 
REMARK    5  A    between atoms: O_11  and  C_12 
ROOT
HETATM    1  C   UNL     1      42.292 -16.253   3.374  1.00  0.00     0.164 A 
HETATM    2  N   UNL     1      43.159 -15.757   2.467  1.00  0.00    -0.236 NA
HETATM    3  C   UNL     1      42.650 -15.464   1.244  1.00  0.00     0.142 A 
HETATM    4  C   UNL     1      41.320 -15.653   0.888  1.00  0.00     0.062 A 
HETATM    5  C   UNL     1      40.864 -15.317  -0.423  1.00  0.00     0.101 C 
HETATM    6  N   UNL     1      40.497 -15.044  -1.488  1.00  0.00    -0.191 NA
HETATM    7  C   UNL     1      40.457 -16.180   1.847  1.00  0.00     0.028 A 
HETATM    8  C   UNL     1      40.952 -16.492   3.112  1.00  0.00     0.059 A 
ENDROOT
BRANCH   1   9
HETATM    9  O   UNL     1      42.742 -16.597   4.631  1.00  0.00    -0.329 OA
BRANCH   9  10
HETATM   10  C   UNL     1      42.113 -15.896   5.711  1.00  0.00     0.130 C 
HETATM   11  C   UNL     1      42.726 -16.456   7.002  1.00  0.00     0.034 C 
HETATM   12  C   UNL     1      44.235 -16.197   7.075  1.00  0.00     0.035 C 
HETATM   13  C   UNL     1      44.604 -14.719   6.905  1.00  0.00     0.186 C 
HETATM   14  C   UNL     1      43.910 -14.093   5.688  1.00  0.00     0.035 C 
HETATM   15  C   UNL     1      42.410 -14.393   5.617  1.00  0.00     0.034 C 
BRANCH  13  16
HETATM   16  N   UNL     1      44.232 -13.937   8.137  1.00  0.00    -0.067 N 
HETATM   17  H   UNL     1      44.229 -14.529   8.976  1.00  0.00     0.277 HD
HETATM   18  H   UNL     1      43.262 -13.602   8.047  1.00  0.00     0.277 HD
BRANCH  16  19
HETATM   19  C   UNL     1      45.073 -12.728   8.400  1.00  0.00     0.271 C 
BRANCH  19  20
HETATM   20  C   UNL     1      44.404 -11.782   9.355  1.00  0.00    -0.030 A 
HETATM   21  C   UNL     1      44.961 -11.533  10.620  1.00  0.00     0.012 A 
HETATM   22  C   UNL     1      44.354 -10.628  11.494  1.00  0.00     0.040 A 
HETATM   23  C   UNL     1      43.194  -9.961  11.111  1.00  0.00     0.102 A 
HETATM   24  C   UNL     1      42.609 -10.232   9.873  1.00  0.00     0.102 A 
HETATM   25  O   UNL     1      42.683  -9.050  11.997  1.00  0.00    -0.346 OA
HETATM   26  C   UNL     1      43.213 -11.133   8.996  1.00  0.00     0.048 A 
HETATM   27  O   UNL     1      41.456  -9.635   9.437  1.00  0.00    -0.346 OA
HETATM   28  C   UNL     1      40.779  -8.941  10.497  1.00  0.00     0.202 C 
HETATM   29  C   UNL     1      41.764  -8.159  11.352  1.00  0.00     0.202 C 
ENDBRANCH  19  20
ENDBRANCH  16  19
ENDBRANCH  13  16
ENDBRANCH   9  10
ENDBRANCH   1   9
TORSDOF 5
ENDMDL
MODEL 7
REMARK VINA RESULT:      -7.3      2.969      8.295
REMARK  5 active torsions:
REMARK  status: ('A' for Active; 'I' for Inactive)
REMARK    1  A    between atoms: C_2  and  C_3 
REMARK    2  A    between atoms: C_3  and  N_4 
REMARK    3  A    between atoms: N_4  and  C_7 
REMARK    4  A    between atoms: C_10  and  O_11 
REMARK    5  A    between atoms: O_11  and  C_12 
ROOT
HETATM    1  C   UNL     1      43.611 -17.609   3.683  1.00  0.00     0.164 A 
HETATM    2  N   UNL     1      43.662 -17.948   2.379  1.00  0.00    -0.236 NA
HETATM    3  C   UNL     1      43.947 -19.246   2.103  1.00  0.00     0.142 A 
HETATM    4  C   UNL     1      44.191 -20.212   3.072  1.00  0.00     0.062 A 
HETATM    5  C   UNL     1      44.483 -21.559   2.698  1.00  0.00     0.101 C 
HETATM    6  N   UNL     1      44.721 -22.651   2.391  1.00  0.00    -0.191 NA
HETATM    7  C   UNL     1      44.143 -19.821   4.409  1.00  0.00     0.028 A 
HETATM    8  C   UNL     1      43.853 -18.494   4.722  1.00  0.00     0.059 A 
ENDROOT
BRANCH   1   9
HETATM    9  O   UNL     1      43.351 -16.303   4.039  1.00  0.00    -0.329 OA
BRANCH   9  10
HETATM   10  C   UNL     1      43.066 -15.423   2.944  1.00  0.00     0.130 C 
HETATM   11  C   UNL     1      41.539 -15.418   2.782  1.00  0.00     0.034 C 
HETATM   12  C   UNL     1      40.836 -14.875   4.030  1.00  0.00     0.035 C 
HETATM   13  C   UNL     1      41.333 -13.487   4.451  1.00  0.00     0.186 C 
HETATM   14  C   UNL     1      42.865 -13.422   4.506  1.00  0.00     0.035 C 
HETATM   15  C   UNL     1      43.549 -14.000   3.264  1.00  0.00     0.034 C 
BRANCH  13  16
HETATM   16  N   UNL     1      40.833 -12.436   3.495  1.00  0.00    -0.067 N 
HETATM   17  H   UNL     1      41.375 -12.427   2.623  1.00  0.00     0.277 HD
HETATM   18  H   UNL     1      40.981 -11.504   3.908  1.00  0.00     0.277 HD
BRANCH  16  19
HETATM   19  C   UNL     1      39.377 -12.522   3.161  1.00  0.00     0.271 C 
BRANCH  19  20
HETATM   20  C   UNL     1      39.157 -12.949   1.739  1.00  0.00    -0.030 A 
HETATM   21  C   UNL     1      37.971 -13.600   1.364  1.00  0.00     0.012 A 
HETATM   22  C   UNL     1      37.755 -13.967   0.033  1.00  0.00     0.040 A 
HETATM   23  C   UNL     1      38.717 -13.682  -0.932  1.00  0.00     0.102 A 
HETATM   24  C   UNL     1      39.917 -13.074  -0.563  1.00  0.00     0.102 A 
HETATM   25  O   UNL     1      38.416 -14.024  -2.224  1.00  0.00    -0.346 OA
HETATM   26  C   UNL     1      40.136 -12.703   0.764  1.00  0.00     0.048 A 
HETATM   27  O   UNL     1      40.920 -12.785  -1.451  1.00  0.00    -0.346 OA
HETATM   28  C   UNL     1      40.718 -13.434  -2.716  1.00  0.00     0.202 C 
HETATM   29  C   UNL     1      39.264 -13.336  -3.153  1.00  0.00     0.202 C 
ENDBRANCH  19  20
ENDBRANCH  16  19
ENDBRANCH  13  16
ENDBRANCH   9  10
ENDBRANCH   1   9
TORSDOF 5
ENDMDL
MODEL 8
REMARK VINA RESULT:      -7.2      2.653      3.788
REMARK  5 active torsions:
REMARK  status: ('A' for Active; 'I' for Inactive)
REMARK    1  A    between atoms: C_2  and  C_3 
REMARK    2  A    between atoms: C_3  and  N_4 
REMARK    3  A    between atoms: N_4  and  C_7 
REMARK    4  A    between atoms: C_10  and  O_11 
REMARK    5  A    between atoms: O_11  and  C_12 
ROOT
HETATM    1  C   UNL     1      38.007 -13.328  -0.199  1.00  0.00     0.164 A 
HETATM    2  N   UNL     1      37.282 -12.804   0.810  1.00  0.00    -0.236 NA
HETATM    3  C   UNL     1      36.454 -11.778   0.488  1.00  0.00     0.142 A 
HETATM    4  C   UNL     1      36.326 -11.252  -0.792  1.00  0.00     0.062 A 
HETATM    5  C   UNL     1      35.429 -10.171  -1.047  1.00  0.00     0.101 C 
HETATM    6  N   UNL     1      34.700  -9.293  -1.251  1.00  0.00    -0.191 NA
HETATM    7  C   UNL     1      37.101 -11.812  -1.807  1.00  0.00     0.028 A 
HETATM    8  C   UNL     1      37.962 -12.865  -1.505  1.00  0.00     0.059 A 
ENDROOT
BRANCH   1   9
HETATM    9  O   UNL     1      38.888 -14.357   0.056  1.00  0.00    -0.329 OA
BRANCH   9  10
HETATM   10  C   UNL     1      40.184 -13.945   0.511  1.00  0.00     0.130 C 
HETATM   11  C   UNL     1      40.469 -14.752   1.785  1.00  0.00     0.034 C 
HETATM   12  C   UNL     1      40.515 -16.258   1.506  1.00  0.00     0.035 C 
HETATM   13  C   UNL     1      41.504 -16.639   0.399  1.00  0.00     0.186 C 
HETATM   14  C   UNL     1      41.326 -15.768  -0.851  1.00  0.00     0.035 C 
HETATM   15  C   UNL     1      41.249 -14.268  -0.547  1.00  0.00     0.034 C 
BRANCH  13  16
HETATM   16  N   UNL     1      42.922 -16.508   0.890  1.00  0.00    -0.067 N 
HETATM   17  H   UNL     1      42.966 -16.044   1.804  1.00  0.00     0.277 HD
HETATM   18  H   UNL     1      43.446 -15.889   0.254  1.00  0.00     0.277 HD
BRANCH  16  19
HETATM   19  C   UNL     1      43.691 -17.789   0.959  1.00  0.00     0.271 C 
BRANCH  19  20
HETATM   20  C   UNL     1      43.812 -18.290   2.369  1.00  0.00    -0.030 A 
HETATM   21  C   UNL     1      44.287 -19.585   2.629  1.00  0.00     0.012 A 
HETATM   22  C   UNL     1      44.430 -20.036   3.944  1.00  0.00     0.040 A 
HETATM   23  C   UNL     1      44.105 -19.198   5.007  1.00  0.00     0.102 A 
HETATM   24  C   UNL     1      43.592 -17.924   4.759  1.00  0.00     0.102 A 
HETATM   25  O   UNL     1      44.318 -19.688   6.268  1.00  0.00    -0.346 OA
HETATM   26  C   UNL     1      43.451 -17.468   3.448  1.00  0.00     0.048 A 
HETATM   27  O   UNL     1      43.226 -17.053   5.751  1.00  0.00    -0.346 OA
HETATM   28  C   UNL     1      43.157 -17.699   7.032  1.00  0.00     0.202 C 
HETATM   29  C   UNL     1      44.340 -18.631   7.237  1.00  0.00     0.202 C 
ENDBRANCH  19  20
ENDBRANCH  16  19
ENDBRANCH  13  16
ENDBRANCH   9  10
ENDBRANCH   1   9
TORSDOF 5
ENDMDL
MODEL 9
REMARK VINA RESULT:      -7.2      2.269      2.764
REMARK  5 active torsions:
REMARK  status: ('A' for Active; 'I' for Inactive)
REMARK    1  A    between atoms: C_2  and  C_3 
REMARK    2  A    between atoms: C_3  and  N_4 
REMARK    3  A    between atoms: N_4  and  C_7 
REMARK    4  A    between atoms: C_10  and  O_11 
REMARK    5  A    between atoms: O_11  and  C_12 
ROOT
HETATM    1  C   UNL     1      40.467 -13.117  -1.217  1.00  0.00     0.164 A 
HETATM    2  N   UNL     1      41.030 -11.909  -1.011  1.00  0.00    -0.236 NA
HETATM    3  C   UNL     1      41.545 -11.289  -2.103  1.00  0.00     0.142 A 
HETATM    4  C   UNL     1      41.529 -11.827  -3.384  1.00  0.00     0.062 A 
HETATM    5  C   UNL     1      42.092 -11.108  -4.481  1.00  0.00     0.101 C 
HETATM    6  N   UNL     1      42.551 -10.522  -5.370  1.00  0.00    -0.191 NA
HETATM    7  C   UNL     1      40.951 -13.084  -3.556  1.00  0.00     0.028 A 
HETATM    8  C   UNL     1      40.415 -13.745  -2.452  1.00  0.00     0.059 A 
ENDROOT
BRANCH   1   9
HETATM    9  O   UNL     1      39.945 -13.818  -0.151  1.00  0.00    -0.329 OA
BRANCH   9  10
HETATM   10  C   UNL     1      40.605 -13.595   1.101  1.00  0.00     0.130 C 
HETATM   11  C   UNL     1      39.646 -14.100   2.188  1.00  0.00     0.034 C 
HETATM   12  C   UNL     1      39.371 -15.601   2.052  1.00  0.00     0.035 C 
HETATM   13  C   UNL     1      40.646 -16.451   2.027  1.00  0.00     0.186 C 
HETATM   14  C   UNL     1      41.679 -15.902   1.034  1.00  0.00     0.035 C 
HETATM   15  C   UNL     1      41.914 -14.394   1.165  1.00  0.00     0.034 C 
BRANCH  13  16
HETATM   16  N   UNL     1      41.268 -16.510   3.397  1.00  0.00    -0.067 N 
HETATM   17  H   UNL     1      40.974 -17.348   3.912  1.00  0.00     0.277 HD
HETATM   18  H   UNL     1      40.924 -15.720   3.961  1.00  0.00     0.277 HD
BRANCH  16  19
HETATM   19  C   UNL     1      42.762 -16.426   3.421  1.00  0.00     0.271 C 
BRANCH  19  20
HETATM   20  C   UNL     1      43.391 -17.771   3.638  1.00  0.00    -0.030 A 
HETATM   21  C   UNL     1      44.050 -18.066   4.843  1.00  0.00     0.012 A 
HETATM   22  C   UNL     1      44.606 -19.330   5.055  1.00  0.00     0.040 A 
HETATM   23  C   UNL     1      44.503 -20.309   4.071  1.00  0.00     0.102 A 
HETATM   24  C   UNL     1      43.888 -20.014   2.854  1.00  0.00     0.102 A 
HETATM   25  O   UNL     1      45.026 -21.540   4.367  1.00  0.00    -0.346 OA
HETATM   26  C   UNL     1      43.329 -18.754   2.639  1.00  0.00     0.048 A 
HETATM   27  O   UNL     1      43.772 -20.917   1.830  1.00  0.00    -0.346 OA
HETATM   28  C   UNL     1      44.596 -22.073   2.040  1.00  0.00     0.202 C 
HETATM   29  C   UNL     1      44.516 -22.546   3.483  1.00  0.00     0.202 C 
ENDBRANCH  19  20
ENDBRANCH  16  19
ENDBRANCH  13  16
ENDBRANCH   9  10
ENDBRANCH   1   9
TORSDOF 5
ENDMDL
MODEL 10
REMARK VINA RESULT:      -7.2      6.032      9.044
REMARK  5 active torsions:
REMARK  status: ('A' for Active; 'I' for Inactive)
REMARK    1  A    between atoms: C_2  and  C_3 
REMARK    2  A    between atoms: C_3  and  N_4 
REMARK    3  A    between atoms: N_4  and  C_7 
REMARK    4  A    between atoms: C_10  and  O_11 
REMARK    5  A    between atoms: O_11  and  C_12 
ROOT
HETATM    1  C   UNL     1      41.530 -16.333   3.962  1.00  0.00     0.164 A 
HETATM    2  N   UNL     1      41.963 -16.432   2.689  1.00  0.00    -0.236 NA
HETATM    3  C   UNL     1      42.711 -17.524   2.389  1.00  0.00     0.142 A 
HETATM    4  C   UNL     1      43.048 -18.513   3.305  1.00  0.00     0.062 A 
HETATM    5  C   UNL     1      43.838 -19.633   2.908  1.00  0.00     0.101 C 
HETATM    6  N   UNL     1      44.481 -20.541   2.582  1.00  0.00    -0.191 NA
HETATM    7  C   UNL     1      42.592 -18.370   4.615  1.00  0.00     0.028 A 
HETATM    8  C   UNL     1      41.824 -17.257   4.953  1.00  0.00     0.059 A 
ENDROOT
BRANCH   1   9
HETATM    9  O   UNL     1      40.786 -15.238   4.347  1.00  0.00    -0.329 OA
BRANCH   9  10
HETATM   10  C   UNL     1      41.264 -14.563   5.517  1.00  0.00     0.130 C 
HETATM   11  C   UNL     1      42.439 -13.688   5.059  1.00  0.00     0.034 C 
HETATM   12  C   UNL     1      41.998 -12.631   4.041  1.00  0.00     0.035 C 
HETATM   13  C   UNL     1      40.841 -11.756   4.538  1.00  0.00     0.186 C 
HETATM   14  C   UNL     1      39.696 -12.597   5.116  1.00  0.00     0.035 C 
HETATM   15  C   UNL     1      40.162 -13.670   6.106  1.00  0.00     0.034 C 
BRANCH  13  16
HETATM   16  N   UNL     1      41.323 -10.795   5.593  1.00  0.00    -0.067 N 
HETATM   17  H   UNL     1      41.804  -9.988   5.180  1.00  0.00     0.277 HD
HETATM   18  H   UNL     1      42.035 -11.257   6.176  1.00  0.00     0.277 HD
BRANCH  16  19
HETATM   19  C   UNL     1      40.267 -10.300   6.532  1.00  0.00     0.271 C 
BRANCH  19  20
HETATM   20  C   UNL     1      40.663 -10.495   7.966  1.00  0.00    -0.030 A 
HETATM   21  C   UNL     1      39.703 -10.840   8.932  1.00  0.00     0.012 A 
HETATM   22  C   UNL     1      40.081 -11.053  10.260  1.00  0.00     0.040 A 
HETATM   23  C   UNL     1      41.416 -10.929  10.633  1.00  0.00     0.102 A 
HETATM   24  C   UNL     1      42.371 -10.546   9.691  1.00  0.00     0.102 A 
HETATM   25  O   UNL     1      41.721 -11.202  11.940  1.00  0.00    -0.346 OA
HETATM   26  C   UNL     1      42.000 -10.335   8.363  1.00  0.00     0.048 A 
HETATM   27  O   UNL     1      43.698 -10.379   9.988  1.00  0.00    -0.346 OA
HETATM   28  C   UNL     1      43.931 -10.357  11.404  1.00  0.00     0.202 C 
HETATM   29  C   UNL     1      43.125 -11.438  12.106  1.00  0.00     0.202 C 
ENDBRANCH  19  20
ENDBRANCH  16  19
ENDBRANCH  13  16
ENDBRANCH   9  10
ENDBRANCH   1   9
TORSDOF 5
ENDMDL
