MODEL 1
REMARK VINA RESULT:      -9.0      0.000      0.000
REMARK  7 active torsions:
REMARK  status: ('A' for Active; 'I' for Inactive)
REMARK    1  A    between atoms: O_2  and  C_3 
REMARK    2  A    between atoms: N_9  and  N_10 
REMARK       I    between atoms: N_10  and  C_11 
REMARK    3  A    between atoms: C_11  and  C_12 
REMARK    4  A    between atoms: C_12  and  C_13 
REMARK    5  A    between atoms: C_13  and  C_14 
REMARK    6  A    between atoms: C_14  and  N_15 
REMARK       I    between atoms: N_15  and  C_16 
REMARK    7  A    between atoms: C_16  and  C_17 
ROOT
HETATM    1  N   UNL     1      42.451 -15.066   4.271  1.00  0.00    -0.246 N 
HETATM    2  C   UNL     1      43.373 -14.140   4.738  1.00  0.00     0.237 C 
HETATM    3  O   UNL     1      44.228 -13.569   4.068  1.00  0.00    -0.272 OA
HETATM    4  H   UNL     1      41.656 -15.309   4.850  1.00  0.00     0.192 HD
ENDROOT
BRANCH   1   5
HETATM    5  N   UNL     1      42.395 -15.351   2.942  1.00  0.00    -0.166 NA
HETATM    6  C   UNL     1      42.768 -16.519   2.524  1.00  0.00     0.157 A 
HETATM    7  C   UNL     1      43.399 -17.675   3.178  1.00  0.00     0.029 A 
HETATM    8  C   UNL     1      42.600 -16.922   1.042  1.00  0.00     0.277 A 
HETATM    9  C   UNL     1      43.860 -17.898   4.462  1.00  0.00     0.053 A 
HETATM   10  C   UNL     1      43.546 -18.649   2.189  1.00  0.00     0.048 A 
HETATM   11  C   UNL     1      44.426 -19.146   4.758  1.00  0.00     0.069 A 
HETATM   12  C   UNL     1      44.555 -20.126   3.756  1.00  0.00     0.039 A 
HETATM   13  C   UNL     1      44.118 -19.877   2.450  1.00  0.00     0.033 A 
HETATM   14  N   UNL     1      43.079 -18.210   0.958  1.00  0.00    -0.321 N 
HETATM   15  H   UNL     1      43.094 -18.725   0.091  1.00  0.00     0.169 HD
HETATM   16  O   UNL     1      42.132 -16.249   0.151  1.00  0.00    -0.266 OA
BRANCH  11  17
HETATM   17  O   UNL     1      44.829 -19.283   6.060  1.00  0.00    -0.356 OA
HETATM   18  C   UNL     1      45.047 -18.085   6.795  1.00  0.00     0.210 C 
ENDBRANCH  11  17
ENDBRANCH   1   5
BRANCH   2  19
HETATM   19  C   UNL     1      43.255 -13.897   6.226  1.00  0.00     0.106 C 
BRANCH  19  20
HETATM   20  C   UNL     1      44.441 -14.480   6.982  1.00  0.00     0.029 C 
BRANCH  20  21
HETATM   21  C   UNL     1      45.227 -13.372   7.677  1.00  0.00     0.123 C 
BRANCH  21  22
HETATM   22  N   UNL     1      44.417 -12.637   8.623  1.00  0.00    -0.357 N 
HETATM   23  C   UNL     1      44.831 -11.453   9.187  1.00  0.00     0.253 C 
HETATM   24  O   UNL     1      45.918 -10.950   8.911  1.00  0.00    -0.268 OA
HETATM   25  H   UNL     1      43.543 -13.053   8.924  1.00  0.00     0.162 HD
BRANCH  23  26
HETATM   26  C   UNL     1      43.900 -10.750  10.128  1.00  0.00     0.053 A 
HETATM   27  C   UNL     1      42.657 -10.183   9.799  1.00  0.00     0.049 A 
HETATM   28 CL   UNL     1      41.940 -10.246   8.226  1.00  0.00    -0.083 Cl
HETATM   29  C   UNL     1      41.899  -9.530  10.784  1.00  0.00     0.025 A 
HETATM   30  C   UNL     1      42.358  -9.443  12.098  1.00  0.00     0.002 A 
HETATM   31  C   UNL     1      43.578 -10.011  12.439  1.00  0.00     0.001 A 
HETATM   32  C   UNL     1      44.340 -10.658  11.464  1.00  0.00     0.019 A 
ENDBRANCH  23  26
ENDBRANCH  21  22
ENDBRANCH  20  21
ENDBRANCH  19  20
ENDBRANCH   2  19
TORSDOF 7
ENDMDL
MODEL 2
REMARK VINA RESULT:      -8.9      1.987      3.486
REMARK  7 active torsions:
REMARK  status: ('A' for Active; 'I' for Inactive)
REMARK    1  A    between atoms: O_2  and  C_3 
REMARK    2  A    between atoms: N_9  and  N_10 
REMARK       I    between atoms: N_10  and  C_11 
REMARK    3  A    between atoms: C_11  and  C_12 
REMARK    4  A    between atoms: C_12  and  C_13 
REMARK    5  A    between atoms: C_13  and  C_14 
REMARK    6  A    between atoms: C_14  and  N_15 
REMARK       I    between atoms: N_15  and  C_16 
REMARK    7  A    between atoms: C_16  and  C_17 
ROOT
HETATM    1  N   UNL     1      43.511 -18.632   7.044  1.00  0.00    -0.246 N 
HETATM    2  C   UNL     1      44.357 -17.533   7.086  1.00  0.00     0.237 C 
HETATM    3  O   UNL     1      45.552 -17.528   6.804  1.00  0.00    -0.272 OA
HETATM    4  H   UNL     1      42.509 -18.487   7.079  1.00  0.00     0.192 HD
ENDROOT
BRANCH   1   5
HETATM    5  N   UNL     1      43.977 -19.825   6.585  1.00  0.00    -0.166 NA
HETATM    6  C   UNL     1      44.093 -20.016   5.310  1.00  0.00     0.157 A 
HETATM    7  C   UNL     1      43.704 -19.231   4.128  1.00  0.00     0.029 A 
HETATM    8  C   UNL     1      44.735 -21.307   4.756  1.00  0.00     0.277 A 
HETATM    9  C   UNL     1      43.032 -18.034   3.969  1.00  0.00     0.053 A 
HETATM   10  C   UNL     1      44.110 -19.973   3.017  1.00  0.00     0.048 A 
HETATM   11  C   UNL     1      42.819 -17.557   2.668  1.00  0.00     0.069 A 
HETATM   12  C   UNL     1      43.245 -18.308   1.556  1.00  0.00     0.039 A 
HETATM   13  C   UNL     1      43.894 -19.536   1.726  1.00  0.00     0.033 A 
HETATM   14  N   UNL     1      44.709 -21.170   3.387  1.00  0.00    -0.321 N 
HETATM   15  H   UNL     1      45.065 -21.880   2.765  1.00  0.00     0.169 HD
HETATM   16  O   UNL     1      45.180 -22.233   5.396  1.00  0.00    -0.266 OA
BRANCH  11  17
HETATM   17  O   UNL     1      42.169 -16.354   2.612  1.00  0.00    -0.356 OA
HETATM   18  C   UNL     1      40.898 -16.278   3.244  1.00  0.00     0.210 C 
ENDBRANCH  11  17
ENDBRANCH   1   5
BRANCH   2  19
HETATM   19  C   UNL     1      43.660 -16.276   7.559  1.00  0.00     0.106 C 
BRANCH  19  20
HETATM   20  C   UNL     1      43.903 -15.113   6.606  1.00  0.00     0.029 C 
BRANCH  20  21
HETATM   21  C   UNL     1      44.866 -14.107   7.230  1.00  0.00     0.123 C 
BRANCH  21  22
HETATM   22  N   UNL     1      44.201 -13.206   8.145  1.00  0.00    -0.357 N 
HETATM   23  C   UNL     1      44.863 -12.195   8.799  1.00  0.00     0.253 C 
HETATM   24  O   UNL     1      46.066 -11.998   8.636  1.00  0.00    -0.268 OA
HETATM   25  H   UNL     1      43.224 -13.378   8.353  1.00  0.00     0.162 HD
BRANCH  23  26
HETATM   26  C   UNL     1      44.074 -11.291   9.696  1.00  0.00     0.053 A 
HETATM   27  C   UNL     1      42.890 -10.613   9.361  1.00  0.00     0.049 A 
HETATM   28 CL   UNL     1      42.084 -10.749   7.836  1.00  0.00    -0.083 Cl
HETATM   29  C   UNL     1      42.267  -9.776  10.301  1.00  0.00     0.025 A 
HETATM   30  C   UNL     1      42.805  -9.611  11.577  1.00  0.00     0.002 A 
HETATM   31  C   UNL     1      43.968 -10.286  11.926  1.00  0.00     0.001 A 
HETATM   32  C   UNL     1      44.595 -11.117  10.995  1.00  0.00     0.019 A 
ENDBRANCH  23  26
ENDBRANCH  21  22
ENDBRANCH  20  21
ENDBRANCH  19  20
ENDBRANCH   2  19
TORSDOF 7
ENDMDL
MODEL 3
REMARK VINA RESULT:      -8.7      1.812      2.360
REMARK  7 active torsions:
REMARK  status: ('A' for Active; 'I' for Inactive)
REMARK    1  A    between atoms: O_2  and  C_3 
REMARK    2  A    between atoms: N_9  and  N_10 
REMARK       I    between atoms: N_10  and  C_11 
REMARK    3  A    between atoms: C_11  and  C_12 
REMARK    4  A    between atoms: C_12  and  C_13 
REMARK    5  A    between atoms: C_13  and  C_14 
REMARK    6  A    between atoms: C_14  and  N_15 
REMARK       I    between atoms: N_15  and  C_16 
REMARK    7  A    between atoms: C_16  and  C_17 
ROOT
HETATM    1  N   UNL     1      42.649 -15.268   3.952  1.00  0.00    -0.246 N 
HETATM    2  C   UNL     1      43.290 -14.080   4.274  1.00  0.00     0.237 C 
HETATM    3  O   UNL     1      44.263 -13.603   3.698  1.00  0.00    -0.272 OA
HETATM    4  H   UNL     1      41.734 -15.458   4.341  1.00  0.00     0.192 HD
ENDROOT
BRANCH   1   5
HETATM    5  N   UNL     1      43.048 -15.974   2.860  1.00  0.00    -0.166 NA
HETATM    6  C   UNL     1      43.460 -17.193   3.004  1.00  0.00     0.157 A 
HETATM    7  C   UNL     1      43.732 -18.038   4.177  1.00  0.00     0.029 A 
HETATM    8  C   UNL     1      43.799 -18.067   1.777  1.00  0.00     0.277 A 
HETATM    9  C   UNL     1      43.691 -17.805   5.539  1.00  0.00     0.053 A 
HETATM   10  C   UNL     1      44.150 -19.273   3.678  1.00  0.00     0.048 A 
HETATM   11  C   UNL     1      44.023 -18.856   6.405  1.00  0.00     0.069 A 
HETATM   12  C   UNL     1      44.429 -20.101   5.890  1.00  0.00     0.039 A 
HETATM   13  C   UNL     1      44.502 -20.317   4.510  1.00  0.00     0.033 A 
HETATM   14  N   UNL     1      44.183 -19.285   2.291  1.00  0.00    -0.321 N 
HETATM   15  H   UNL     1      44.467 -20.054   1.704  1.00  0.00     0.169 HD
HETATM   16  O   UNL     1      43.727 -17.748   0.611  1.00  0.00    -0.266 OA
BRANCH  11  17
HETATM   17  O   UNL     1      43.927 -18.538   7.733  1.00  0.00    -0.356 OA
HETATM   18  C   UNL     1      43.239 -17.337   8.060  1.00  0.00     0.210 C 
ENDBRANCH  11  17
ENDBRANCH   1   5
BRANCH   2  19
HETATM   19  C   UNL     1      42.679 -13.394   5.476  1.00  0.00     0.106 C 
BRANCH  19  20
HETATM   20  C   UNL     1      41.755 -12.257   5.058  1.00  0.00     0.029 C 
BRANCH  20  21
HETATM   21  C   UNL     1      40.864 -11.840   6.225  1.00  0.00     0.123 C 
BRANCH  21  22
HETATM   22  N   UNL     1      41.593 -11.765   7.471  1.00  0.00    -0.357 N 
HETATM   23  C   UNL     1      42.135 -10.591   7.940  1.00  0.00     0.253 C 
HETATM   24  O   UNL     1      42.023  -9.534   7.322  1.00  0.00    -0.268 OA
HETATM   25  H   UNL     1      41.761 -12.627   7.976  1.00  0.00     0.162 HD
BRANCH  23  26
HETATM   26  C   UNL     1      42.838 -10.611   9.264  1.00  0.00     0.053 A 
HETATM   27  C   UNL     1      43.958 -11.390   9.598  1.00  0.00     0.049 A 
HETATM   28 CL   UNL     1      44.777 -12.447   8.500  1.00  0.00    -0.083 Cl
HETATM   29  C   UNL     1      44.500 -11.324  10.892  1.00  0.00     0.025 A 
HETATM   30  C   UNL     1      43.946 -10.483  11.857  1.00  0.00     0.002 A 
HETATM   31  C   UNL     1      42.847  -9.698  11.535  1.00  0.00     0.001 A 
HETATM   32  C   UNL     1      42.300  -9.761  10.251  1.00  0.00     0.019 A 
ENDBRANCH  23  26
ENDBRANCH  21  22
ENDBRANCH  20  21
ENDBRANCH  19  20
ENDBRANCH   2  19
TORSDOF 7
ENDMDL
MODEL 4
REMARK VINA RESULT:      -8.6      2.090      3.689
REMARK  7 active torsions:
REMARK  status: ('A' for Active; 'I' for Inactive)
REMARK    1  A    between atoms: O_2  and  C_3 
REMARK    2  A    between atoms: N_9  and  N_10 
REMARK       I    between atoms: N_10  and  C_11 
REMARK    3  A    between atoms: C_11  and  C_12 
REMARK    4  A    between atoms: C_12  and  C_13 
REMARK    5  A    between atoms: C_13  and  C_14 
REMARK    6  A    between atoms: C_14  and  N_15 
REMARK       I    between atoms: N_15  and  C_16 
REMARK    7  A    between atoms: C_16  and  C_17 
ROOT
HETATM    1  N   UNL     1      42.671 -15.895   6.207  1.00  0.00    -0.246 N 
HETATM    2  C   UNL     1      43.588 -14.861   6.331  1.00  0.00     0.237 C 
HETATM    3  O   UNL     1      44.622 -14.887   6.991  1.00  0.00    -0.272 OA
HETATM    4  H   UNL     1      41.975 -15.853   5.472  1.00  0.00     0.192 HD
ENDROOT
BRANCH   1   5
HETATM    5  N   UNL     1      42.927 -17.098   6.788  1.00  0.00    -0.166 NA
HETATM    6  C   UNL     1      43.383 -18.071   6.066  1.00  0.00     0.157 A 
HETATM    7  C   UNL     1      43.603 -18.244   4.622  1.00  0.00     0.029 A 
HETATM    8  C   UNL     1      43.804 -19.409   6.712  1.00  0.00     0.277 A 
HETATM    9  C   UNL     1      43.353 -17.440   3.526  1.00  0.00     0.053 A 
HETATM   10  C   UNL     1      44.127 -19.528   4.459  1.00  0.00     0.048 A 
HETATM   11  C   UNL     1      43.692 -17.924   2.254  1.00  0.00     0.069 A 
HETATM   12  C   UNL     1      44.232 -19.214   2.104  1.00  0.00     0.039 A 
HETATM   13  C   UNL     1      44.449 -20.035   3.217  1.00  0.00     0.033 A 
HETATM   14  N   UNL     1      44.245 -20.195   5.671  1.00  0.00    -0.321 N 
HETATM   15  H   UNL     1      44.578 -21.136   5.808  1.00  0.00     0.169 HD
HETATM   16  O   UNL     1      43.767 -19.696   7.888  1.00  0.00    -0.266 OA
BRANCH  11  17
HETATM   17  O   UNL     1      43.432 -17.048   1.234  1.00  0.00    -0.356 OA
HETATM   18  C   UNL     1      42.066 -16.845   0.893  1.00  0.00     0.210 C 
ENDBRANCH  11  17
ENDBRANCH   1   5
BRANCH   2  19
HETATM   19  C   UNL     1      43.176 -13.620   5.571  1.00  0.00     0.106 C 
BRANCH  19  20
HETATM   20  C   UNL     1      41.679 -13.368   5.685  1.00  0.00     0.029 C 
BRANCH  20  21
HETATM   21  C   UNL     1      41.415 -11.973   6.244  1.00  0.00     0.123 C 
BRANCH  21  22
HETATM   22  N   UNL     1      42.015 -11.781   7.545  1.00  0.00    -0.357 N 
HETATM   23  C   UNL     1      42.279 -10.534   8.061  1.00  0.00     0.253 C 
HETATM   24  O   UNL     1      42.013  -9.507   7.440  1.00  0.00    -0.268 OA
HETATM   25  H   UNL     1      42.307 -12.605   8.059  1.00  0.00     0.162 HD
BRANCH  23  26
HETATM   26  C   UNL     1      42.867 -10.443   9.437  1.00  0.00     0.053 A 
HETATM   27  C   UNL     1      44.069 -11.029   9.868  1.00  0.00     0.049 A 
HETATM   28 CL   UNL     1      45.136 -11.933   8.850  1.00  0.00    -0.083 Cl
HETATM   29  C   UNL     1      44.487 -10.879  11.200  1.00  0.00     0.025 A 
HETATM   30  C   UNL     1      43.726 -10.144  12.109  1.00  0.00     0.002 A 
HETATM   31  C   UNL     1      42.543  -9.549  11.692  1.00  0.00     0.001 A 
HETATM   32  C   UNL     1      42.119  -9.697  10.369  1.00  0.00     0.019 A 
ENDBRANCH  23  26
ENDBRANCH  21  22
ENDBRANCH  20  21
ENDBRANCH  19  20
ENDBRANCH   2  19
TORSDOF 7
ENDMDL
MODEL 5
REMARK VINA RESULT:      -8.6      2.758     10.119
REMARK  7 active torsions:
REMARK  status: ('A' for Active; 'I' for Inactive)
REMARK    1  A    between atoms: O_2  and  C_3 
REMARK    2  A    between atoms: N_9  and  N_10 
REMARK       I    between atoms: N_10  and  C_11 
REMARK    3  A    between atoms: C_11  and  C_12 
REMARK    4  A    between atoms: C_12  and  C_13 
REMARK    5  A    between atoms: C_13  and  C_14 
REMARK    6  A    between atoms: C_14  and  N_15 
REMARK       I    between atoms: N_15  and  C_16 
REMARK    7  A    between atoms: C_16  and  C_17 
ROOT
HETATM    1  N   UNL     1      43.986 -13.274   7.346  1.00  0.00    -0.246 N 
HETATM    2  C   UNL     1      43.982 -14.494   6.686  1.00  0.00     0.237 C 
HETATM    3  O   UNL     1      44.609 -15.497   7.015  1.00  0.00    -0.272 OA
HETATM    4  H   UNL     1      43.273 -12.589   7.125  1.00  0.00     0.192 HD
ENDROOT
BRANCH   1   5
HETATM    5  N   UNL     1      44.672 -13.140   8.513  1.00  0.00    -0.166 NA
HETATM    6  C   UNL     1      44.293 -12.254   9.378  1.00  0.00     0.157 A 
HETATM    7  C   UNL     1      43.281 -11.187   9.358  1.00  0.00     0.029 A 
HETATM    8  C   UNL     1      44.967 -12.159  10.764  1.00  0.00     0.277 A 
HETATM    9  C   UNL     1      42.414 -10.726   8.384  1.00  0.00     0.053 A 
HETATM   10  C   UNL     1      43.342 -10.569  10.608  1.00  0.00     0.048 A 
HETATM   11  C   UNL     1      41.561  -9.660   8.704  1.00  0.00     0.069 A 
HETATM   12  C   UNL     1      41.623  -9.054   9.972  1.00  0.00     0.039 A 
HETATM   13  C   UNL     1      42.528  -9.505  10.939  1.00  0.00     0.033 A 
HETATM   14  N   UNL     1      44.316 -11.137  11.418  1.00  0.00    -0.321 N 
HETATM   15  H   UNL     1      44.560 -10.852  12.354  1.00  0.00     0.169 HD
HETATM   16  O   UNL     1      45.867 -12.850  11.188  1.00  0.00    -0.266 OA
BRANCH  11  17
HETATM   17  O   UNL     1      40.722  -9.291   7.686  1.00  0.00    -0.356 OA
HETATM   18  C   UNL     1      41.330  -8.882   6.467  1.00  0.00     0.210 C 
ENDBRANCH  11  17
ENDBRANCH   1   5
BRANCH   2  19
HETATM   19  C   UNL     1      43.119 -14.484   5.444  1.00  0.00     0.106 C 
BRANCH  19  20
HETATM   20  C   UNL     1      41.956 -15.460   5.566  1.00  0.00     0.029 C 
BRANCH  20  21
HETATM   21  C   UNL     1      41.587 -16.021   4.196  1.00  0.00     0.123 C 
BRANCH  21  22
HETATM   22  N   UNL     1      42.080 -17.367   4.003  1.00  0.00    -0.357 N 
HETATM   23  C   UNL     1      43.205 -17.643   3.263  1.00  0.00     0.253 C 
HETATM   24  O   UNL     1      43.859 -16.752   2.724  1.00  0.00    -0.268 OA
HETATM   25  H   UNL     1      41.531 -18.132   4.379  1.00  0.00     0.162 HD
BRANCH  23  26
HETATM   26  C   UNL     1      43.655 -19.068   3.157  1.00  0.00     0.053 A 
HETATM   27  C   UNL     1      44.421 -19.771   4.102  1.00  0.00     0.049 A 
HETATM   28 CL   UNL     1      44.945 -19.117   5.616  1.00  0.00    -0.083 Cl
HETATM   29  C   UNL     1      44.791 -21.103   3.858  1.00  0.00     0.025 A 
HETATM   30  C   UNL     1      44.401 -21.750   2.686  1.00  0.00     0.002 A 
HETATM   31  C   UNL     1      43.632 -21.071   1.750  1.00  0.00     0.001 A 
HETATM   32  C   UNL     1      43.263 -19.745   1.984  1.00  0.00     0.019 A 
ENDBRANCH  23  26
ENDBRANCH  21  22
ENDBRANCH  20  21
ENDBRANCH  19  20
ENDBRANCH   2  19
TORSDOF 7
ENDMDL
MODEL 6
REMARK VINA RESULT:      -8.5      3.251      9.215
REMARK  7 active torsions:
REMARK  status: ('A' for Active; 'I' for Inactive)
REMARK    1  A    between atoms: O_2  and  C_3 
REMARK    2  A    between atoms: N_9  and  N_10 
REMARK       I    between atoms: N_10  and  C_11 
REMARK    3  A    between atoms: C_11  and  C_12 
REMARK    4  A    between atoms: C_12  and  C_13 
REMARK    5  A    between atoms: C_13  and  C_14 
REMARK    6  A    between atoms: C_14  and  N_15 
REMARK       I    between atoms: N_15  and  C_16 
REMARK    7  A    between atoms: C_16  and  C_17 
ROOT
HETATM    1  N   UNL     1      41.931 -11.236   7.853  1.00  0.00    -0.246 N 
HETATM    2  C   UNL     1      41.280 -10.263   7.108  1.00  0.00     0.237 C 
HETATM    3  O   UNL     1      41.734  -9.166   6.795  1.00  0.00    -0.272 OA
HETATM    4  H   UNL     1      41.562 -12.179   7.867  1.00  0.00     0.192 HD
ENDROOT
BRANCH   1   5
HETATM    5  N   UNL     1      43.221 -11.040   8.237  1.00  0.00    -0.166 NA
HETATM    6  C   UNL     1      43.496 -10.877   9.492  1.00  0.00     0.157 A 
HETATM    7  C   UNL     1      42.668 -10.726  10.698  1.00  0.00     0.029 A 
HETATM    8  C   UNL     1      44.958 -10.779   9.979  1.00  0.00     0.277 A 
HETATM    9  C   UNL     1      41.303 -10.655  10.904  1.00  0.00     0.053 A 
HETATM   10  C   UNL     1      43.557 -10.591  11.766  1.00  0.00     0.048 A 
HETATM   11  C   UNL     1      40.835 -10.502  12.217  1.00  0.00     0.069 A 
HETATM   12  C   UNL     1      41.741 -10.381  13.287  1.00  0.00     0.039 A 
HETATM   13  C   UNL     1      43.122 -10.418  13.064  1.00  0.00     0.033 A 
HETATM   14  N   UNL     1      44.879 -10.626  11.344  1.00  0.00    -0.321 N 
HETATM   15  H   UNL     1      45.698 -10.531  11.926  1.00  0.00     0.169 HD
HETATM   16  O   UNL     1      45.959 -10.840   9.300  1.00  0.00    -0.266 OA
BRANCH  11  17
HETATM   17  O   UNL     1      39.470 -10.468  12.324  1.00  0.00    -0.356 OA
HETATM   18  C   UNL     1      38.792  -9.452  11.595  1.00  0.00     0.210 C 
ENDBRANCH  11  17
ENDBRANCH   1   5
BRANCH   2  19
HETATM   19  C   UNL     1      39.878 -10.670   6.713  1.00  0.00     0.106 C 
BRANCH  19  20
HETATM   20  C   UNL     1      39.542 -12.068   7.216  1.00  0.00     0.029 C 
BRANCH  20  21
HETATM   21  C   UNL     1      39.426 -13.041   6.045  1.00  0.00     0.123 C 
BRANCH  21  22
HETATM   22  N   UNL     1      40.291 -14.189   6.200  1.00  0.00    -0.357 N 
HETATM   23  C   UNL     1      41.594 -14.198   5.760  1.00  0.00     0.253 C 
HETATM   24  O   UNL     1      42.098 -13.220   5.212  1.00  0.00    -0.268 OA
HETATM   25  H   UNL     1      39.891 -15.035   6.589  1.00  0.00     0.162 HD
BRANCH  23  26
HETATM   26  C   UNL     1      42.419 -15.425   6.005  1.00  0.00     0.053 A 
HETATM   27  C   UNL     1      43.689 -15.468   6.603  1.00  0.00     0.049 A 
HETATM   28 CL   UNL     1      44.522 -14.087   7.228  1.00  0.00    -0.083 Cl
HETATM   29  C   UNL     1      44.358 -16.694   6.746  1.00  0.00     0.025 A 
HETATM   30  C   UNL     1      43.775 -17.882   6.309  1.00  0.00     0.002 A 
HETATM   31  C   UNL     1      42.513 -17.856   5.729  1.00  0.00     0.001 A 
HETATM   32  C   UNL     1      41.843 -16.640   5.579  1.00  0.00     0.019 A 
ENDBRANCH  23  26
ENDBRANCH  21  22
ENDBRANCH  20  21
ENDBRANCH  19  20
ENDBRANCH   2  19
TORSDOF 7
ENDMDL
MODEL 7
REMARK VINA RESULT:      -8.4      3.112      9.323
REMARK  7 active torsions:
REMARK  status: ('A' for Active; 'I' for Inactive)
REMARK    1  A    between atoms: O_2  and  C_3 
REMARK    2  A    between atoms: N_9  and  N_10 
REMARK       I    between atoms: N_10  and  C_11 
REMARK    3  A    between atoms: C_11  and  C_12 
REMARK    4  A    between atoms: C_12  and  C_13 
REMARK    5  A    between atoms: C_13  and  C_14 
REMARK    6  A    between atoms: C_14  and  N_15 
REMARK       I    between atoms: N_15  and  C_16 
REMARK    7  A    between atoms: C_16  and  C_17 
ROOT
HETATM    1  N   UNL     1      40.992 -11.715   6.943  1.00  0.00    -0.246 N 
HETATM    2  C   UNL     1      40.045 -12.404   6.200  1.00  0.00     0.237 C 
HETATM    3  O   UNL     1      38.835 -12.418   6.404  1.00  0.00    -0.272 OA
HETATM    4  H   UNL     1      41.924 -11.590   6.566  1.00  0.00     0.192 HD
ENDROOT
BRANCH   1   5
HETATM    5  N   UNL     1      40.592 -10.904   7.960  1.00  0.00    -0.166 NA
HETATM    6  C   UNL     1      41.443 -10.558   8.873  1.00  0.00     0.157 A 
HETATM    7  C   UNL     1      42.829 -10.954   9.167  1.00  0.00     0.029 A 
HETATM    8  C   UNL     1      41.061  -9.540   9.970  1.00  0.00     0.277 A 
HETATM    9  C   UNL     1      43.690 -11.873   8.597  1.00  0.00     0.053 A 
HETATM   10  C   UNL     1      43.214 -10.218  10.289  1.00  0.00     0.048 A 
HETATM   11  C   UNL     1      44.976 -12.005   9.140  1.00  0.00     0.069 A 
HETATM   12  C   UNL     1      45.357 -11.248  10.262  1.00  0.00     0.039 A 
HETATM   13  C   UNL     1      44.466 -10.345  10.854  1.00  0.00     0.033 A 
HETATM   14  N   UNL     1      42.189  -9.400  10.746  1.00  0.00    -0.321 N 
HETATM   15  H   UNL     1      42.220  -8.791  11.549  1.00  0.00     0.169 HD
HETATM   16  O   UNL     1      39.999  -8.976  10.104  1.00  0.00    -0.266 OA
BRANCH  11  17
HETATM   17  O   UNL     1      45.764 -12.920   8.494  1.00  0.00    -0.356 OA
HETATM   18  C   UNL     1      45.154 -13.676   7.455  1.00  0.00     0.210 C 
ENDBRANCH  11  17
ENDBRANCH   1   5
BRANCH   2  19
HETATM   19  C   UNL     1      40.657 -13.204   5.072  1.00  0.00     0.106 C 
BRANCH  19  20
HETATM   20  C   UNL     1      40.128 -14.632   5.051  1.00  0.00     0.029 C 
BRANCH  20  21
HETATM   21  C   UNL     1      40.941 -15.515   5.994  1.00  0.00     0.123 C 
BRANCH  21  22
HETATM   22  N   UNL     1      41.503 -16.664   5.320  1.00  0.00    -0.357 N 
HETATM   23  C   UNL     1      42.725 -16.628   4.691  1.00  0.00     0.253 C 
HETATM   24  O   UNL     1      43.413 -15.609   4.672  1.00  0.00    -0.268 OA
HETATM   25  H   UNL     1      40.937 -17.503   5.260  1.00  0.00     0.162 HD
BRANCH  23  26
HETATM   26  C   UNL     1      43.236 -17.885   4.056  1.00  0.00     0.053 A 
HETATM   27  C   UNL     1      44.217 -18.743   4.580  1.00  0.00     0.049 A 
HETATM   28 CL   UNL     1      44.988 -18.525   6.114  1.00  0.00    -0.083 Cl
HETATM   29  C   UNL     1      44.616 -19.880   3.859  1.00  0.00     0.025 A 
HETATM   30  C   UNL     1      44.044 -20.180   2.624  1.00  0.00     0.002 A 
HETATM   31  C   UNL     1      43.063 -19.347   2.100  1.00  0.00     0.001 A 
HETATM   32  C   UNL     1      42.663 -18.212   2.810  1.00  0.00     0.019 A 
ENDBRANCH  23  26
ENDBRANCH  21  22
ENDBRANCH  20  21
ENDBRANCH  19  20
ENDBRANCH   2  19
TORSDOF 7
ENDMDL
MODEL 8
REMARK VINA RESULT:      -8.3      2.807      9.776
REMARK  7 active torsions:
REMARK  status: ('A' for Active; 'I' for Inactive)
REMARK    1  A    between atoms: O_2  and  C_3 
REMARK    2  A    between atoms: N_9  and  N_10 
REMARK       I    between atoms: N_10  and  C_11 
REMARK    3  A    between atoms: C_11  and  C_12 
REMARK    4  A    between atoms: C_12  and  C_13 
REMARK    5  A    between atoms: C_13  and  C_14 
REMARK    6  A    between atoms: C_14  and  N_15 
REMARK       I    between atoms: N_15  and  C_16 
REMARK    7  A    between atoms: C_16  and  C_17 
ROOT
HETATM    1  N   UNL     1      44.219 -12.934   8.847  1.00  0.00    -0.246 N 
HETATM    2  C   UNL     1      45.349 -12.974   8.041  1.00  0.00     0.237 C 
HETATM    3  O   UNL     1      46.356 -12.285   8.174  1.00  0.00    -0.272 OA
HETATM    4  H   UNL     1      43.544 -13.686   8.790  1.00  0.00     0.192 HD
ENDROOT
BRANCH   1   5
HETATM    5  N   UNL     1      44.200 -12.129   9.943  1.00  0.00    -0.166 NA
HETATM    6  C   UNL     1      43.363 -11.142   9.995  1.00  0.00     0.157 A 
HETATM    7  C   UNL     1      42.423 -10.559   9.026  1.00  0.00     0.029 A 
HETATM    8  C   UNL     1      43.225 -10.285  11.273  1.00  0.00     0.277 A 
HETATM    9  C   UNL     1      42.142 -10.834   7.701  1.00  0.00     0.053 A 
HETATM   10  C   UNL     1      41.788  -9.505   9.686  1.00  0.00     0.048 A 
HETATM   11  C   UNL     1      41.163 -10.065   7.055  1.00  0.00     0.069 A 
HETATM   12  C   UNL     1      40.520  -9.014   7.734  1.00  0.00     0.039 A 
HETATM   13  C   UNL     1      40.837  -8.720   9.065  1.00  0.00     0.033 A 
HETATM   14  N   UNL     1      42.253  -9.354  10.985  1.00  0.00    -0.321 N 
HETATM   15  H   UNL     1      41.962  -8.654  11.649  1.00  0.00     0.169 HD
HETATM   16  O   UNL     1      43.834 -10.418  12.311  1.00  0.00    -0.266 OA
BRANCH  11  17
HETATM   17  O   UNL     1      40.936 -10.427   5.754  1.00  0.00    -0.356 OA
HETATM   18  C   UNL     1      40.982 -11.817   5.455  1.00  0.00     0.210 C 
ENDBRANCH  11  17
ENDBRANCH   1   5
BRANCH   2  19
HETATM   19  C   UNL     1      45.223 -13.967   6.908  1.00  0.00     0.106 C 
BRANCH  19  20
HETATM   20  C   UNL     1      44.149 -15.007   7.195  1.00  0.00     0.029 C 
BRANCH  20  21
HETATM   21  C   UNL     1      43.159 -15.083   6.036  1.00  0.00     0.123 C 
BRANCH  21  22
HETATM   22  N   UNL     1      43.482 -16.145   5.109  1.00  0.00    -0.357 N 
HETATM   23  C   UNL     1      42.994 -17.423   5.250  1.00  0.00     0.253 C 
HETATM   24  O   UNL     1      42.248 -17.732   6.176  1.00  0.00    -0.268 OA
HETATM   25  H   UNL     1      44.145 -15.944   4.369  1.00  0.00     0.162 HD
BRANCH  23  26
HETATM   26  C   UNL     1      43.357 -18.441   4.212  1.00  0.00     0.053 A 
HETATM   27  C   UNL     1      42.798 -18.556   2.928  1.00  0.00     0.049 A 
HETATM   28 CL   UNL     1      41.604 -17.483   2.282  1.00  0.00    -0.083 Cl
HETATM   29  C   UNL     1      43.221 -19.580   2.065  1.00  0.00     0.025 A 
HETATM   30  C   UNL     1      44.202 -20.488   2.461  1.00  0.00     0.002 A 
HETATM   31  C   UNL     1      44.772 -20.378   3.722  1.00  0.00     0.001 A 
HETATM   32  C   UNL     1      44.354 -19.364   4.588  1.00  0.00     0.019 A 
ENDBRANCH  23  26
ENDBRANCH  21  22
ENDBRANCH  20  21
ENDBRANCH  19  20
ENDBRANCH   2  19
TORSDOF 7
ENDMDL
MODEL 9
REMARK VINA RESULT:      -8.2      5.448      9.098
REMARK  7 active torsions:
REMARK  status: ('A' for Active; 'I' for Inactive)
REMARK    1  A    between atoms: O_2  and  C_3 
REMARK    2  A    between atoms: N_9  and  N_10 
REMARK       I    between atoms: N_10  and  C_11 
REMARK    3  A    between atoms: C_11  and  C_12 
REMARK    4  A    between atoms: C_12  and  C_13 
REMARK    5  A    between atoms: C_13  and  C_14 
REMARK    6  A    between atoms: C_14  and  N_15 
REMARK       I    between atoms: N_15  and  C_16 
REMARK    7  A    between atoms: C_16  and  C_17 
ROOT
HETATM    1  N   UNL     1      41.506 -14.624   0.698  1.00  0.00    -0.246 N 
HETATM    2  C   UNL     1      40.419 -14.463   1.545  1.00  0.00     0.237 C 
HETATM    3  O   UNL     1      39.237 -14.565   1.233  1.00  0.00    -0.272 OA
HETATM    4  H   UNL     1      42.431 -14.737   1.095  1.00  0.00     0.192 HD
ENDROOT
BRANCH   1   5
HETATM    5  N   UNL     1      41.305 -15.003  -0.593  1.00  0.00    -0.166 NA
HETATM    6  C   UNL     1      41.571 -14.174  -1.551  1.00  0.00     0.157 A 
HETATM    7  C   UNL     1      41.965 -12.757  -1.583  1.00  0.00     0.029 A 
HETATM    8  C   UNL     1      41.476 -14.611  -3.029  1.00  0.00     0.277 A 
HETATM    9  C   UNL     1      42.141 -11.803  -0.598  1.00  0.00     0.053 A 
HETATM   10  C   UNL     1      42.115 -12.426  -2.931  1.00  0.00     0.048 A 
HETATM   11  C   UNL     1      42.528 -10.512  -0.984  1.00  0.00     0.069 A 
HETATM   12  C   UNL     1      42.689 -10.193  -2.345  1.00  0.00     0.039 A 
HETATM   13  C   UNL     1      42.474 -11.157  -3.337  1.00  0.00     0.033 A 
HETATM   14  N   UNL     1      41.834 -13.502  -3.761  1.00  0.00    -0.321 N 
HETATM   15  H   UNL     1      41.854 -13.504  -4.770  1.00  0.00     0.169 HD
HETATM   16  O   UNL     1      41.166 -15.704  -3.449  1.00  0.00    -0.266 OA
BRANCH  11  17
HETATM   17  O   UNL     1      42.702  -9.644   0.061  1.00  0.00    -0.356 OA
HETATM   18  C   UNL     1      41.590  -9.446   0.926  1.00  0.00     0.210 C 
ENDBRANCH  11  17
ENDBRANCH   1   5
BRANCH   2  19
HETATM   19  C   UNL     1      40.827 -14.103   2.957  1.00  0.00     0.106 C 
BRANCH  19  20
HETATM   20  C   UNL     1      40.867 -15.332   3.855  1.00  0.00     0.029 C 
BRANCH  20  21
HETATM   21  C   UNL     1      42.281 -15.561   4.380  1.00  0.00     0.123 C 
BRANCH  21  22
HETATM   22  N   UNL     1      42.694 -16.941   4.259  1.00  0.00    -0.357 N 
HETATM   23  C   UNL     1      43.326 -17.428   3.138  1.00  0.00     0.253 C 
HETATM   24  O   UNL     1      43.579 -16.708   2.175  1.00  0.00    -0.268 OA
HETATM   25  H   UNL     1      42.445 -17.579   5.006  1.00  0.00     0.162 HD
BRANCH  23  26
HETATM   26  C   UNL     1      43.749 -18.865   3.128  1.00  0.00     0.053 A 
HETATM   27  C   UNL     1      44.497 -19.520   4.121  1.00  0.00     0.049 A 
HETATM   28 CL   UNL     1      45.028 -18.779   5.591  1.00  0.00    -0.083 Cl
HETATM   29  C   UNL     1      44.842 -20.872   3.965  1.00  0.00     0.025 A 
HETATM   30  C   UNL     1      44.444 -21.586   2.836  1.00  0.00     0.002 A 
HETATM   31  C   UNL     1      43.692 -20.955   1.853  1.00  0.00     0.001 A 
HETATM   32  C   UNL     1      43.348 -19.609   1.999  1.00  0.00     0.019 A 
ENDBRANCH  23  26
ENDBRANCH  21  22
ENDBRANCH  20  21
ENDBRANCH  19  20
ENDBRANCH   2  19
TORSDOF 7
ENDMDL
MODEL 10
REMARK VINA RESULT:      -8.1      4.629      6.477
REMARK  7 active torsions:
REMARK  status: ('A' for Active; 'I' for Inactive)
REMARK    1  A    between atoms: O_2  and  C_3 
REMARK    2  A    between atoms: N_9  and  N_10 
REMARK       I    between atoms: N_10  and  C_11 
REMARK    3  A    between atoms: C_11  and  C_12 
REMARK    4  A    between atoms: C_12  and  C_13 
REMARK    5  A    between atoms: C_13  and  C_14 
REMARK    6  A    between atoms: C_14  and  N_15 
REMARK       I    between atoms: N_15  and  C_16 
REMARK    7  A    between atoms: C_16  and  C_17 
ROOT
HETATM    1  N   UNL     1      43.537 -17.028   3.487  1.00  0.00    -0.246 N 
HETATM    2  C   UNL     1      42.498 -17.112   2.572  1.00  0.00     0.237 C 
HETATM    3  O   UNL     1      41.324 -17.363   2.831  1.00  0.00    -0.272 OA
HETATM    4  H   UNL     1      44.412 -16.603   3.205  1.00  0.00     0.192 HD
ENDROOT
BRANCH   1   5
HETATM    5  N   UNL     1      43.277 -17.154   4.817  1.00  0.00    -0.166 NA
HETATM    6  C   UNL     1      43.547 -18.269   5.417  1.00  0.00     0.157 A 
HETATM    7  C   UNL     1      44.001 -19.587   4.948  1.00  0.00     0.029 A 
HETATM    8  C   UNL     1      43.385 -18.407   6.947  1.00  0.00     0.277 A 
HETATM    9  C   UNL     1      44.250 -20.109   3.693  1.00  0.00     0.053 A 
HETATM   10  C   UNL     1      44.120 -20.385   6.088  1.00  0.00     0.048 A 
HETATM   11  C   UNL     1      44.680 -21.440   3.598  1.00  0.00     0.069 A 
HETATM   12  C   UNL     1      44.809 -22.230   4.755  1.00  0.00     0.039 A 
HETATM   13  C   UNL     1      44.521 -21.704   6.019  1.00  0.00     0.033 A 
HETATM   14  N   UNL     1      43.766 -19.696   7.240  1.00  0.00    -0.321 N 
HETATM   15  H   UNL     1      43.753 -20.064   8.179  1.00  0.00     0.169 HD
HETATM   16  O   UNL     1      43.014 -17.553   7.721  1.00  0.00    -0.266 OA
BRANCH  11  17
HETATM   17  O   UNL     1      44.926 -21.859   2.318  1.00  0.00    -0.356 OA
HETATM   18  C   UNL     1      43.825 -21.855   1.417  1.00  0.00     0.210 C 
ENDBRANCH  11  17
ENDBRANCH   1   5
BRANCH   2  19
HETATM   19  C   UNL     1      42.953 -16.886   1.148  1.00  0.00     0.106 C 
BRANCH  19  20
HETATM   20  C   UNL     1      41.778 -16.579   0.229  1.00  0.00     0.029 C 
BRANCH  20  21
HETATM   21  C   UNL     1      41.578 -15.070   0.108  1.00  0.00     0.123 C 
BRANCH  21  22
HETATM   22  N   UNL     1      41.261 -14.456   1.379  1.00  0.00    -0.357 N 
HETATM   23  C   UNL     1      39.968 -14.260   1.803  1.00  0.00     0.253 C 
HETATM   24  O   UNL     1      39.005 -14.603   1.121  1.00  0.00    -0.268 OA
HETATM   25  H   UNL     1      42.028 -14.103   1.939  1.00  0.00     0.162 HD
BRANCH  23  26
HETATM   26  C   UNL     1      39.748 -13.650   3.154  1.00  0.00     0.053 A 
HETATM   27  C   UNL     1      39.184 -12.391   3.417  1.00  0.00     0.049 A 
HETATM   28 CL   UNL     1      38.579 -11.318   2.201  1.00  0.00    -0.083 Cl
HETATM   29  C   UNL     1      39.060 -11.937   4.740  1.00  0.00     0.025 A 
HETATM   30  C   UNL     1      39.483 -12.726   5.808  1.00  0.00     0.002 A 
HETATM   31  C   UNL     1      40.029 -13.979   5.564  1.00  0.00     0.001 A 
HETATM   32  C   UNL     1      40.160 -14.436   4.250  1.00  0.00     0.019 A 
ENDBRANCH  23  26
ENDBRANCH  21  22
ENDBRANCH  20  21
ENDBRANCH  19  20
ENDBRANCH   2  19
TORSDOF 7
ENDMDL
