MODEL 1
REMARK VINA RESULT:      -8.8      0.000      0.000
REMARK  5 active torsions:
REMARK  status: ('A' for Active; 'I' for Inactive)
REMARK    1  A    between atoms: O_2  and  C_3 
REMARK    2  A    between atoms: C_16  and  C_17 
REMARK    3  A    between atoms: C_19  and  O_20 
REMARK    4  A    between atoms: C_22  and  O_23 
REMARK    5  A    between atoms: O_23  and  C_24 
ROOT
HETATM    1  C   UNL     1      39.924 -14.350  -0.823  1.00  0.00     0.069 A 
HETATM    2  C   UNL     1      40.945 -15.260  -0.514  1.00  0.00     0.051 A 
HETATM    3  C   UNL     1      41.022 -15.818   0.776  1.00  0.00     0.002 A 
HETATM    4  C   UNL     1      40.064 -15.452   1.721  1.00  0.00     0.043 A 
HETATM    5  N   UNL     1      40.356 -16.118   2.894  1.00  0.00    -0.356 N 
HETATM    6  H   UNL     1      39.822 -16.008   3.748  1.00  0.00     0.166 HD
HETATM    7  C   UNL     1      41.481 -16.882   2.719  1.00  0.00     0.052 A 
HETATM    8  C   UNL     1      41.907 -16.726   1.413  1.00  0.00    -0.019 A 
HETATM    9  C   UNL     1      43.110 -17.428   0.881  1.00  0.00     0.069 C 
HETATM   10  C   UNL     1      43.995 -17.933   2.034  1.00  0.00     0.238 C 
HETATM   11  N   UNL     1      43.165 -18.593   3.111  1.00  0.00    -0.061 N 
HETATM   12  H   UNL     1      42.658 -19.380   2.692  1.00  0.00     0.278 HD
HETATM   13  H   UNL     1      43.780 -18.978   3.835  1.00  0.00     0.278 HD
HETATM   14  C   UNL     1      42.142 -17.701   3.772  1.00  0.00     0.269 C 
HETATM   15  C   UNL     1      39.031 -14.554   1.433  1.00  0.00     0.033 A 
HETATM   16  C   UNL     1      38.980 -14.009   0.142  1.00  0.00     0.039 A 
ENDROOT
BRANCH  14  17
HETATM   17  C   UNL     1      42.765 -16.903   4.904  1.00  0.00    -0.019 A 
HETATM   18  C   UNL     1      42.956 -17.445   6.190  1.00  0.00     0.049 A 
HETATM   19  C   UNL     1      43.497 -16.677   7.227  1.00  0.00     0.102 A 
HETATM   20  C   UNL     1      43.832 -15.332   6.995  1.00  0.00     0.102 A 
HETATM   21  C   UNL     1      43.655 -14.787   5.723  1.00  0.00     0.040 A 
HETATM   22  C   UNL     1      43.121 -15.563   4.688  1.00  0.00     0.012 A 
BRANCH  19  23
HETATM   23  O   UNL     1      43.694 -17.138   8.503  1.00  0.00    -0.353 OA
HETATM   24  C   UNL     1      44.195 -18.458   8.669  1.00  0.00     0.210 C 
ENDBRANCH  19  23
BRANCH  20  25
HETATM   25  O   UNL     1      44.371 -14.652   8.055  1.00  0.00    -0.343 OA
BRANCH  25  26
HETATM   26  C   UNL     1      44.684 -13.272   7.900  1.00  0.00     0.129 C 
HETATM   27  C   UNL     1      44.780 -12.536   9.236  1.00  0.00     0.032 C 
HETATM   28  C   UNL     1      45.736 -11.397   8.939  1.00  0.00     0.002 C 
HETATM   29  C   UNL     1      46.812 -12.058   8.093  1.00  0.00     0.002 C 
HETATM   30  C   UNL     1      46.094 -13.150   7.300  1.00  0.00     0.032 C 
ENDBRANCH  25  26
ENDBRANCH  20  25
ENDBRANCH  14  17
BRANCH   1  31
HETATM   31  O   UNL     1      39.971 -13.873  -2.106  1.00  0.00    -0.356 OA
HETATM   32  C   UNL     1      40.736 -14.618  -3.045  1.00  0.00     0.210 C 
ENDBRANCH   1  31
TORSDOF 5
ENDMDL
MODEL 2
REMARK VINA RESULT:      -8.6      3.673      8.111
REMARK  5 active torsions:
REMARK  status: ('A' for Active; 'I' for Inactive)
REMARK    1  A    between atoms: O_2  and  C_3 
REMARK    2  A    between atoms: C_16  and  C_17 
REMARK    3  A    between atoms: C_19  and  O_20 
REMARK    4  A    between atoms: C_22  and  O_23 
REMARK    5  A    between atoms: O_23  and  C_24 
ROOT
HETATM    1  C   UNL     1      44.360 -20.076   3.997  1.00  0.00     0.069 A 
HETATM    2  C   UNL     1      43.569 -19.005   4.435  1.00  0.00     0.051 A 
HETATM    3  C   UNL     1      42.716 -18.345   3.531  1.00  0.00     0.002 A 
HETATM    4  C   UNL     1      42.674 -18.785   2.208  1.00  0.00     0.043 A 
HETATM    5  N   UNL     1      41.781 -17.984   1.527  1.00  0.00    -0.356 N 
HETATM    6  H   UNL     1      41.584 -18.080   0.538  1.00  0.00     0.166 HD
HETATM    7  C   UNL     1      41.270 -17.040   2.380  1.00  0.00     0.052 A 
HETATM    8  C   UNL     1      41.821 -17.248   3.631  1.00  0.00    -0.019 A 
HETATM    9  C   UNL     1      41.473 -16.397   4.804  1.00  0.00     0.069 C 
HETATM   10  C   UNL     1      40.830 -15.077   4.342  1.00  0.00     0.238 C 
HETATM   11  N   UNL     1      39.795 -15.321   3.268  1.00  0.00    -0.061 N 
HETATM   12  H   UNL     1      39.074 -15.944   3.648  1.00  0.00     0.278 HD
HETATM   13  H   UNL     1      39.336 -14.438   3.023  1.00  0.00     0.278 HD
HETATM   14  C   UNL     1      40.318 -15.958   2.003  1.00  0.00     0.269 C 
HETATM   15  C   UNL     1      43.446 -19.858   1.750  1.00  0.00     0.033 A 
HETATM   16  C   UNL     1      44.292 -20.495   2.670  1.00  0.00     0.039 A 
ENDROOT
BRANCH  14  17
HETATM   17  C   UNL     1      40.883 -14.912   1.059  1.00  0.00    -0.019 A 
HETATM   18  C   UNL     1      40.909 -15.096  -0.338  1.00  0.00     0.049 A 
HETATM   19  C   UNL     1      41.470 -14.134  -1.185  1.00  0.00     0.102 A 
HETATM   20  C   UNL     1      42.045 -12.975  -0.636  1.00  0.00     0.102 A 
HETATM   21  C   UNL     1      42.018 -12.779   0.744  1.00  0.00     0.040 A 
HETATM   22  C   UNL     1      41.448 -13.740   1.585  1.00  0.00     0.012 A 
BRANCH  19  23
HETATM   23  O   UNL     1      41.542 -14.258  -2.548  1.00  0.00    -0.353 OA
HETATM   24  C   UNL     1      40.929 -15.390  -3.151  1.00  0.00     0.210 C 
ENDBRANCH  19  23
BRANCH  20  25
HETATM   25  O   UNL     1      42.559 -12.074  -1.532  1.00  0.00    -0.343 OA
BRANCH  25  26
HETATM   26  C   UNL     1      42.424 -10.683  -1.263  1.00  0.00     0.129 C 
HETATM   27  C   UNL     1      43.768  -9.957  -1.223  1.00  0.00     0.032 C 
HETATM   28  C   UNL     1      43.411  -8.537  -1.618  1.00  0.00     0.002 C 
HETATM   29  C   UNL     1      42.424  -8.732  -2.757  1.00  0.00     0.002 C 
HETATM   30  C   UNL     1      41.674 -10.024  -2.431  1.00  0.00     0.032 C 
ENDBRANCH  25  26
ENDBRANCH  20  25
ENDBRANCH  14  17
BRANCH   1  31
HETATM   31  O   UNL     1      45.153 -20.620   4.971  1.00  0.00    -0.356 OA
HETATM   32  C   UNL     1      45.071 -22.028   5.161  1.00  0.00     0.210 C 
ENDBRANCH   1  31
TORSDOF 5
ENDMDL
MODEL 3
REMARK VINA RESULT:      -8.3      2.949      5.694
REMARK  5 active torsions:
REMARK  status: ('A' for Active; 'I' for Inactive)
REMARK    1  A    between atoms: O_2  and  C_3 
REMARK    2  A    between atoms: C_16  and  C_17 
REMARK    3  A    between atoms: C_19  and  O_20 
REMARK    4  A    between atoms: C_22  and  O_23 
REMARK    5  A    between atoms: O_23  and  C_24 
ROOT
HETATM    1  C   UNL     1      37.844 -15.112  -3.822  1.00  0.00     0.069 A 
HETATM    2  C   UNL     1      37.969 -14.363  -2.644  1.00  0.00     0.051 A 
HETATM    3  C   UNL     1      39.161 -14.418  -1.898  1.00  0.00     0.002 A 
HETATM    4  C   UNL     1      40.203 -15.222  -2.361  1.00  0.00     0.043 A 
HETATM    5  N   UNL     1      41.246 -15.116  -1.464  1.00  0.00    -0.356 N 
HETATM    6  H   UNL     1      42.119 -15.622  -1.557  1.00  0.00     0.166 HD
HETATM    7  C   UNL     1      40.884 -14.280  -0.439  1.00  0.00     0.052 A 
HETATM    8  C   UNL     1      39.603 -13.824  -0.688  1.00  0.00    -0.019 A 
HETATM    9  C   UNL     1      38.903 -12.882   0.232  1.00  0.00     0.069 C 
HETATM   10  C   UNL     1      39.580 -12.873   1.613  1.00  0.00     0.238 C 
HETATM   11  N   UNL     1      41.084 -12.804   1.485  1.00  0.00    -0.061 N 
HETATM   12  H   UNL     1      41.326 -11.949   0.974  1.00  0.00     0.278 HD
HETATM   13  H   UNL     1      41.508 -12.734   2.416  1.00  0.00     0.278 HD
HETATM   14  C   UNL     1      41.720 -13.960   0.752  1.00  0.00     0.269 C 
HETATM   15  C   UNL     1      40.106 -15.970  -3.539  1.00  0.00     0.033 A 
HETATM   16  C   UNL     1      38.906 -15.901  -4.261  1.00  0.00     0.039 A 
ENDROOT
BRANCH  14  17
HETATM   17  C   UNL     1      41.970 -15.129   1.688  1.00  0.00    -0.019 A 
HETATM   18  C   UNL     1      42.661 -14.981   2.907  1.00  0.00     0.049 A 
HETATM   19  C   UNL     1      42.913 -16.081   3.735  1.00  0.00     0.102 A 
HETATM   20  C   UNL     1      42.496 -17.362   3.336  1.00  0.00     0.102 A 
HETATM   21  C   UNL     1      41.803 -17.518   2.135  1.00  0.00     0.040 A 
HETATM   22  C   UNL     1      41.547 -16.414   1.316  1.00  0.00     0.012 A 
BRANCH  19  23
HETATM   23  O   UNL     1      43.593 -16.008   4.923  1.00  0.00    -0.353 OA
HETATM   24  C   UNL     1      42.981 -15.317   6.004  1.00  0.00     0.210 C 
ENDBRANCH  19  23
BRANCH  20  25
HETATM   25  O   UNL     1      42.765 -18.384   4.208  1.00  0.00    -0.343 OA
BRANCH  25  26
HETATM   26  C   UNL     1      44.002 -19.078   4.094  1.00  0.00     0.129 C 
HETATM   27  C   UNL     1      44.234 -20.062   5.240  1.00  0.00     0.032 C 
HETATM   28  C   UNL     1      45.137 -21.112   4.623  1.00  0.00     0.002 C 
HETATM   29  C   UNL     1      44.532 -21.322   3.244  1.00  0.00     0.002 C 
HETATM   30  C   UNL     1      43.957 -19.965   2.840  1.00  0.00     0.032 C 
ENDBRANCH  25  26
ENDBRANCH  20  25
ENDBRANCH  14  17
BRANCH   1  31
HETATM   31  O   UNL     1      36.632 -14.979  -4.444  1.00  0.00    -0.356 OA
HETATM   32  C   UNL     1      36.146 -13.655  -4.636  1.00  0.00     0.210 C 
ENDBRANCH   1  31
TORSDOF 5
ENDMDL
MODEL 4
REMARK VINA RESULT:      -8.2      3.699      8.506
REMARK  5 active torsions:
REMARK  status: ('A' for Active; 'I' for Inactive)
REMARK    1  A    between atoms: O_2  and  C_3 
REMARK    2  A    between atoms: C_16  and  C_17 
REMARK    3  A    between atoms: C_19  and  O_20 
REMARK    4  A    between atoms: C_22  and  O_23 
REMARK    5  A    between atoms: O_23  and  C_24 
ROOT
HETATM    1  C   UNL     1      44.068 -19.497   4.481  1.00  0.00     0.069 A 
HETATM    2  C   UNL     1      43.155 -18.447   4.654  1.00  0.00     0.051 A 
HETATM    3  C   UNL     1      42.452 -17.937   3.547  1.00  0.00     0.002 A 
HETATM    4  C   UNL     1      42.679 -18.503   2.292  1.00  0.00     0.043 A 
HETATM    5  N   UNL     1      41.889 -17.835   1.380  1.00  0.00    -0.356 N 
HETATM    6  H   UNL     1      41.883 -18.038   0.388  1.00  0.00     0.166 HD
HETATM    7  C   UNL     1      41.180 -16.852   2.023  1.00  0.00     0.052 A 
HETATM    8  C   UNL     1      41.500 -16.900   3.367  1.00  0.00    -0.019 A 
HETATM    9  C   UNL     1      40.897 -15.967   4.361  1.00  0.00     0.069 C 
HETATM   10  C   UNL     1      40.284 -14.746   3.654  1.00  0.00     0.238 C 
HETATM   11  N   UNL     1      39.480 -15.162   2.444  1.00  0.00    -0.061 N 
HETATM   12  H   UNL     1      38.735 -15.795   2.752  1.00  0.00     0.278 HD
HETATM   13  H   UNL     1      39.030 -14.341   2.027  1.00  0.00     0.278 HD
HETATM   14  C   UNL     1      40.261 -15.879   1.368  1.00  0.00     0.269 C 
HETATM   15  C   UNL     1      43.577 -19.558   2.097  1.00  0.00     0.033 A 
HETATM   16  C   UNL     1      44.268 -20.044   3.215  1.00  0.00     0.039 A 
ENDROOT
BRANCH  14  17
HETATM   17  C   UNL     1      40.938 -14.891   0.435  1.00  0.00    -0.019 A 
HETATM   18  C   UNL     1      41.483 -13.676   0.894  1.00  0.00     0.049 A 
HETATM   19  C   UNL     1      42.067 -12.763   0.008  1.00  0.00     0.102 A 
HETATM   20  C   UNL     1      42.089 -13.047  -1.368  1.00  0.00     0.102 A 
HETATM   21  C   UNL     1      41.560 -14.251  -1.832  1.00  0.00     0.040 A 
HETATM   22  C   UNL     1      40.984 -15.163  -0.941  1.00  0.00     0.012 A 
BRANCH  19  23
HETATM   23  O   UNL     1      42.600 -11.558   0.387  1.00  0.00    -0.353 OA
HETATM   24  C   UNL     1      41.717 -10.563   0.888  1.00  0.00     0.210 C 
ENDBRANCH  19  23
BRANCH  20  25
HETATM   25  O   UNL     1      42.693 -12.112  -2.168  1.00  0.00    -0.343 OA
BRANCH  25  26
HETATM   26  C   UNL     1      41.885 -11.324  -3.036  1.00  0.00     0.129 C 
HETATM   27  C   UNL     1      41.923  -9.837  -2.688  1.00  0.00     0.032 C 
HETATM   28  C   UNL     1      41.635  -9.159  -4.013  1.00  0.00     0.002 C 
HETATM   29  C   UNL     1      42.460  -9.967  -5.001  1.00  0.00     0.002 C 
HETATM   30  C   UNL     1      42.471 -11.394  -4.455  1.00  0.00     0.032 C 
ENDBRANCH  25  26
ENDBRANCH  20  25
ENDBRANCH  14  17
BRANCH   1  31
HETATM   31  O   UNL     1      44.693 -19.889   5.634  1.00  0.00    -0.356 OA
HETATM   32  C   UNL     1      44.078 -19.518   6.862  1.00  0.00     0.210 C 
ENDBRANCH   1  31
TORSDOF 5
ENDMDL
MODEL 5
REMARK VINA RESULT:      -8.1      3.617      7.813
REMARK  5 active torsions:
REMARK  status: ('A' for Active; 'I' for Inactive)
REMARK    1  A    between atoms: O_2  and  C_3 
REMARK    2  A    between atoms: C_16  and  C_17 
REMARK    3  A    between atoms: C_19  and  O_20 
REMARK    4  A    between atoms: C_22  and  O_23 
REMARK    5  A    between atoms: O_23  and  C_24 
ROOT
HETATM    1  C   UNL     1      44.411 -19.914   3.953  1.00  0.00     0.069 A 
HETATM    2  C   UNL     1      43.708 -18.972   4.717  1.00  0.00     0.051 A 
HETATM    3  C   UNL     1      42.749 -18.144   4.104  1.00  0.00     0.002 A 
HETATM    4  C   UNL     1      42.515 -18.291   2.737  1.00  0.00     0.043 A 
HETATM    5  N   UNL     1      41.551 -17.373   2.375  1.00  0.00    -0.356 N 
HETATM    6  H   UNL     1      41.215 -17.257   1.426  1.00  0.00     0.166 HD
HETATM    7  C   UNL     1      41.180 -16.642   3.474  1.00  0.00     0.052 A 
HETATM    8  C   UNL     1      41.897 -17.106   4.561  1.00  0.00    -0.019 A 
HETATM    9  C   UNL     1      41.730 -16.531   5.926  1.00  0.00     0.069 C 
HETATM   10  C   UNL     1      41.052 -15.151   5.852  1.00  0.00     0.238 C 
HETATM   11  N   UNL     1      39.874 -15.172   4.907  1.00  0.00    -0.061 N 
HETATM   12  H   UNL     1      39.202 -15.871   5.241  1.00  0.00     0.278 HD
HETATM   13  H   UNL     1      39.400 -14.262   4.923  1.00  0.00     0.278 HD
HETATM   14  C   UNL     1      40.204 -15.516   3.474  1.00  0.00     0.269 C 
HETATM   15  C   UNL     1      43.197 -19.230   1.956  1.00  0.00     0.033 A 
HETATM   16  C   UNL     1      44.151 -20.038   2.590  1.00  0.00     0.039 A 
ENDROOT
BRANCH  14  17
HETATM   17  C   UNL     1      40.651 -14.284   2.706  1.00  0.00    -0.019 A 
HETATM   18  C   UNL     1      39.737 -13.430   2.058  1.00  0.00     0.049 A 
HETATM   19  C   UNL     1      40.175 -12.323   1.324  1.00  0.00     0.102 A 
HETATM   20  C   UNL     1      41.552 -12.068   1.205  1.00  0.00     0.102 A 
HETATM   21  C   UNL     1      42.466 -12.903   1.850  1.00  0.00     0.040 A 
HETATM   22  C   UNL     1      42.021 -14.004   2.589  1.00  0.00     0.012 A 
BRANCH  19  23
HETATM   23  O   UNL     1      39.341 -11.463   0.658  1.00  0.00    -0.353 OA
HETATM   24  C   UNL     1      38.447 -10.668   1.425  1.00  0.00     0.210 C 
ENDBRANCH  19  23
BRANCH  20  25
HETATM   25  O   UNL     1      41.901 -10.956   0.484  1.00  0.00    -0.343 OA
BRANCH  25  26
HETATM   26  C   UNL     1      42.651 -11.121  -0.714  1.00  0.00     0.129 C 
HETATM   27  C   UNL     1      41.807 -11.654  -1.870  1.00  0.00     0.032 C 
HETATM   28  C   UNL     1      42.517 -11.119  -3.099  1.00  0.00     0.002 C 
HETATM   29  C   UNL     1      42.868  -9.694  -2.703  1.00  0.00     0.002 C 
HETATM   30  C   UNL     1      43.121  -9.739  -1.196  1.00  0.00     0.032 C 
ENDBRANCH  25  26
ENDBRANCH  20  25
ENDBRANCH  14  17
BRANCH   1  31
HETATM   31  O   UNL     1      45.323 -20.644   4.667  1.00  0.00    -0.356 OA
HETATM   32  C   UNL     1      44.956 -21.974   5.015  1.00  0.00     0.210 C 
ENDBRANCH   1  31
TORSDOF 5
ENDMDL
MODEL 6
REMARK VINA RESULT:      -8.0      2.645      8.105
REMARK  5 active torsions:
REMARK  status: ('A' for Active; 'I' for Inactive)
REMARK    1  A    between atoms: O_2  and  C_3 
REMARK    2  A    between atoms: C_16  and  C_17 
REMARK    3  A    between atoms: C_19  and  O_20 
REMARK    4  A    between atoms: C_22  and  O_23 
REMARK    5  A    between atoms: O_23  and  C_24 
ROOT
HETATM    1  C   UNL     1      43.626 -18.776   7.383  1.00  0.00     0.069 A 
HETATM    2  C   UNL     1      43.731 -19.073   6.018  1.00  0.00     0.051 A 
HETATM    3  C   UNL     1      43.626 -18.044   5.064  1.00  0.00     0.002 A 
HETATM    4  C   UNL     1      43.425 -16.737   5.509  1.00  0.00     0.043 A 
HETATM    5  N   UNL     1      43.348 -15.922   4.399  1.00  0.00    -0.356 N 
HETATM    6  H   UNL     1      43.181 -14.924   4.448  1.00  0.00     0.166 HD
HETATM    7  C   UNL     1      43.479 -16.680   3.264  1.00  0.00     0.052 A 
HETATM    8  C   UNL     1      43.665 -17.996   3.646  1.00  0.00    -0.019 A 
HETATM    9  C   UNL     1      43.851 -19.093   2.653  1.00  0.00     0.069 C 
HETATM   10  C   UNL     1      43.371 -18.647   1.261  1.00  0.00     0.238 C 
HETATM   11  N   UNL     1      43.863 -17.257   0.932  1.00  0.00    -0.061 N 
HETATM   12  H   UNL     1      44.889 -17.261   0.962  1.00  0.00     0.278 HD
HETATM   13  H   UNL     1      43.587 -17.008  -0.023  1.00  0.00     0.278 HD
HETATM   14  C   UNL     1      43.392 -16.170   1.868  1.00  0.00     0.269 C 
HETATM   15  C   UNL     1      43.327 -16.415   6.867  1.00  0.00     0.033 A 
HETATM   16  C   UNL     1      43.430 -17.460   7.796  1.00  0.00     0.039 A 
ENDROOT
BRANCH  14  17
HETATM   17  C   UNL     1      42.023 -15.655   1.461  1.00  0.00    -0.019 A 
HETATM   18  C   UNL     1      41.824 -14.884   0.299  1.00  0.00     0.049 A 
HETATM   19  C   UNL     1      40.559 -14.389  -0.036  1.00  0.00     0.102 A 
HETATM   20  C   UNL     1      39.468 -14.639   0.815  1.00  0.00     0.102 A 
HETATM   21  C   UNL     1      39.651 -15.408   1.964  1.00  0.00     0.040 A 
HETATM   22  C   UNL     1      40.917 -15.907   2.288  1.00  0.00     0.012 A 
BRANCH  19  23
HETATM   23  O   UNL     1      40.302 -13.620  -1.141  1.00  0.00    -0.353 OA
HETATM   24  C   UNL     1      40.805 -14.061  -2.395  1.00  0.00     0.210 C 
ENDBRANCH  19  23
BRANCH  20  25
HETATM   25  O   UNL     1      38.260 -14.134   0.411  1.00  0.00    -0.343 OA
BRANCH  25  26
HETATM   26  C   UNL     1      37.602 -13.179   1.236  1.00  0.00     0.129 C 
HETATM   27  C   UNL     1      38.577 -12.230   1.931  1.00  0.00     0.032 C 
HETATM   28  C   UNL     1      37.753 -10.975   2.145  1.00  0.00     0.002 C 
HETATM   29  C   UNL     1      36.995 -10.832   0.836  1.00  0.00     0.002 C 
HETATM   30  C   UNL     1      36.752 -12.259   0.346  1.00  0.00     0.032 C 
ENDBRANCH  25  26
ENDBRANCH  20  25
ENDBRANCH  14  17
BRANCH   1  31
HETATM   31  O   UNL     1      43.732 -19.868   8.203  1.00  0.00    -0.356 OA
HETATM   32  C   UNL     1      43.617 -21.148   7.592  1.00  0.00     0.210 C 
ENDBRANCH   1  31
TORSDOF 5
ENDMDL
MODEL 7
REMARK VINA RESULT:      -7.9      3.499      5.740
REMARK  5 active torsions:
REMARK  status: ('A' for Active; 'I' for Inactive)
REMARK    1  A    between atoms: O_2  and  C_3 
REMARK    2  A    between atoms: C_16  and  C_17 
REMARK    3  A    between atoms: C_19  and  O_20 
REMARK    4  A    between atoms: C_22  and  O_23 
REMARK    5  A    between atoms: O_23  and  C_24 
ROOT
HETATM    1  C   UNL     1      39.783 -10.846   3.951  1.00  0.00     0.069 A 
HETATM    2  C   UNL     1      40.092 -11.674   2.863  1.00  0.00     0.051 A 
HETATM    3  C   UNL     1      40.092 -13.072   3.021  1.00  0.00     0.002 A 
HETATM    4  C   UNL     1      39.772 -13.604   4.271  1.00  0.00     0.043 A 
HETATM    5  N   UNL     1      39.848 -14.978   4.174  1.00  0.00    -0.356 N 
HETATM    6  H   UNL     1      39.684 -15.604   4.953  1.00  0.00     0.166 HD
HETATM    7  C   UNL     1      40.222 -15.328   2.902  1.00  0.00     0.052 A 
HETATM    8  C   UNL     1      40.368 -14.168   2.163  1.00  0.00    -0.019 A 
HETATM    9  C   UNL     1      40.763 -14.187   0.726  1.00  0.00     0.069 C 
HETATM   10  C   UNL     1      41.389 -15.542   0.355  1.00  0.00     0.238 C 
HETATM   11  N   UNL     1      40.582 -16.689   0.918  1.00  0.00    -0.061 N 
HETATM   12  H   UNL     1      39.631 -16.632   0.541  1.00  0.00     0.278 HD
HETATM   13  H   UNL     1      40.982 -17.580   0.605  1.00  0.00     0.278 HD
HETATM   14  C   UNL     1      40.467 -16.717   2.423  1.00  0.00     0.269 C 
HETATM   15  C   UNL     1      39.451 -12.798   5.368  1.00  0.00     0.033 A 
HETATM   16  C   UNL     1      39.463 -11.408   5.185  1.00  0.00     0.039 A 
ENDROOT
BRANCH  14  17
HETATM   17  C   UNL     1      41.667 -17.405   3.050  1.00  0.00    -0.019 A 
HETATM   18  C   UNL     1      41.699 -17.768   4.411  1.00  0.00     0.049 A 
HETATM   19  C   UNL     1      42.831 -18.367   4.975  1.00  0.00     0.102 A 
HETATM   20  C   UNL     1      43.969 -18.587   4.180  1.00  0.00     0.102 A 
HETATM   21  C   UNL     1      43.945 -18.240   2.830  1.00  0.00     0.040 A 
HETATM   22  C   UNL     1      42.808 -17.649   2.270  1.00  0.00     0.012 A 
BRANCH  19  23
HETATM   23  O   UNL     1      42.933 -18.728   6.293  1.00  0.00    -0.353 OA
HETATM   24  C   UNL     1      42.828 -17.709   7.278  1.00  0.00     0.210 C 
ENDBRANCH  19  23
BRANCH  20  25
HETATM   25  O   UNL     1      45.030 -19.192   4.801  1.00  0.00    -0.343 OA
BRANCH  25  26
HETATM   26  C   UNL     1      45.400 -20.509   4.405  1.00  0.00     0.129 C 
HETATM   27  C   UNL     1      44.685 -21.590   5.214  1.00  0.00     0.032 C 
HETATM   28  C   UNL     1      44.647 -22.771   4.263  1.00  0.00     0.002 C 
HETATM   29  C   UNL     1      44.291 -22.132   2.931  1.00  0.00     0.002 C 
HETATM   30  C   UNL     1      44.925 -20.742   2.962  1.00  0.00     0.032 C 
ENDBRANCH  25  26
ENDBRANCH  20  25
ENDBRANCH  14  17
BRANCH   1  31
HETATM   31  O   UNL     1      39.832  -9.508   3.667  1.00  0.00    -0.356 OA
HETATM   32  C   UNL     1      40.413  -9.132   2.424  1.00  0.00     0.210 C 
ENDBRANCH   1  31
TORSDOF 5
ENDMDL
MODEL 8
REMARK VINA RESULT:      -7.9      3.554      8.961
REMARK  5 active torsions:
REMARK  status: ('A' for Active; 'I' for Inactive)
REMARK    1  A    between atoms: O_2  and  C_3 
REMARK    2  A    between atoms: C_16  and  C_17 
REMARK    3  A    between atoms: C_19  and  O_20 
REMARK    4  A    between atoms: C_22  and  O_23 
REMARK    5  A    between atoms: O_23  and  C_24 
ROOT
HETATM    1  C   UNL     1      44.235 -19.651   3.798  1.00  0.00     0.069 A 
HETATM    2  C   UNL     1      43.651 -18.409   4.085  1.00  0.00     0.051 A 
HETATM    3  C   UNL     1      42.728 -17.841   3.187  1.00  0.00     0.002 A 
HETATM    4  C   UNL     1      42.409 -18.541   2.024  1.00  0.00     0.043 A 
HETATM    5  N   UNL     1      41.502 -17.784   1.313  1.00  0.00    -0.356 N 
HETATM    6  H   UNL     1      41.125 -18.059   0.413  1.00  0.00     0.166 HD
HETATM    7  C   UNL     1      41.251 -16.617   1.988  1.00  0.00     0.052 A 
HETATM    8  C   UNL     1      41.988 -16.631   3.158  1.00  0.00    -0.019 A 
HETATM    9  C   UNL     1      41.942 -15.509   4.139  1.00  0.00     0.069 C 
HETATM   10  C   UNL     1      41.373 -14.240   3.481  1.00  0.00     0.238 C 
HETATM   11  N   UNL     1      40.146 -14.555   2.657  1.00  0.00    -0.061 N 
HETATM   12  H   UNL     1      39.441 -14.974   3.272  1.00  0.00     0.278 HD
HETATM   13  H   UNL     1      39.747 -13.688   2.282  1.00  0.00     0.278 HD
HETATM   14  C   UNL     1      40.369 -15.515   1.513  1.00  0.00     0.269 C 
HETATM   15  C   UNL     1      42.971 -19.786   1.721  1.00  0.00     0.033 A 
HETATM   16  C   UNL     1      43.891 -20.327   2.629  1.00  0.00     0.039 A 
ENDROOT
BRANCH  14  17
HETATM   17  C   UNL     1      40.869 -14.785   0.278  1.00  0.00    -0.019 A 
HETATM   18  C   UNL     1      40.691 -15.299  -1.021  1.00  0.00     0.049 A 
HETATM   19  C   UNL     1      41.194 -14.627  -2.141  1.00  0.00     0.102 A 
HETATM   20  C   UNL     1      41.915 -13.433  -1.969  1.00  0.00     0.102 A 
HETATM   21  C   UNL     1      42.090 -12.911  -0.687  1.00  0.00     0.040 A 
HETATM   22  C   UNL     1      41.577 -13.583   0.427  1.00  0.00     0.012 A 
BRANCH  19  23
HETATM   23  O   UNL     1      41.069 -15.079  -3.429  1.00  0.00    -0.353 OA
HETATM   24  C   UNL     1      39.787 -15.509  -3.867  1.00  0.00     0.210 C 
ENDBRANCH  19  23
BRANCH  20  25
HETATM   25  O   UNL     1      42.361 -12.827  -3.115  1.00  0.00    -0.343 OA
BRANCH  25  26
HETATM   26  C   UNL     1      41.920 -11.506  -3.411  1.00  0.00     0.129 C 
HETATM   27  C   UNL     1      42.462 -10.988  -4.742  1.00  0.00     0.032 C 
HETATM   28  C   UNL     1      41.413  -9.985  -5.181  1.00  0.00     0.002 C 
HETATM   29  C   UNL     1      40.105 -10.684  -4.848  1.00  0.00     0.002 C 
HETATM   30  C   UNL     1      40.396 -11.526  -3.606  1.00  0.00     0.032 C 
ENDBRANCH  25  26
ENDBRANCH  20  25
ENDBRANCH  14  17
BRANCH   1  31
HETATM   31  O   UNL     1      45.124 -20.083   4.745  1.00  0.00    -0.356 OA
HETATM   32  C   UNL     1      44.784 -21.267   5.457  1.00  0.00     0.210 C 
ENDBRANCH   1  31
TORSDOF 5
ENDMDL
MODEL 9
REMARK VINA RESULT:      -7.8      2.994      5.468
REMARK  5 active torsions:
REMARK  status: ('A' for Active; 'I' for Inactive)
REMARK    1  A    between atoms: O_2  and  C_3 
REMARK    2  A    between atoms: C_16  and  C_17 
REMARK    3  A    between atoms: C_19  and  O_20 
REMARK    4  A    between atoms: C_22  and  O_23 
REMARK    5  A    between atoms: O_23  and  C_24 
ROOT
HETATM    1  C   UNL     1      39.698 -12.417   0.104  1.00  0.00     0.069 A 
HETATM    2  C   UNL     1      39.463 -12.769   1.441  1.00  0.00     0.051 A 
HETATM    3  C   UNL     1      40.543 -13.107   2.279  1.00  0.00     0.002 A 
HETATM    4  C   UNL     1      41.834 -13.073   1.752  1.00  0.00     0.043 A 
HETATM    5  N   UNL     1      42.706 -13.447   2.754  1.00  0.00    -0.356 N 
HETATM    6  H   UNL     1      43.707 -13.527   2.624  1.00  0.00     0.166 HD
HETATM    7  C   UNL     1      41.998 -13.730   3.894  1.00  0.00     0.052 A 
HETATM    8  C   UNL     1      40.658 -13.516   3.632  1.00  0.00    -0.019 A 
HETATM    9  C   UNL     1      39.604 -13.724   4.666  1.00  0.00     0.069 C 
HETATM   10  C   UNL     1      40.140 -14.592   5.818  1.00  0.00     0.238 C 
HETATM   11  N   UNL     1      41.519 -14.143   6.243  1.00  0.00    -0.061 N 
HETATM   12  H   UNL     1      41.463 -13.163   6.543  1.00  0.00     0.278 HD
HETATM   13  H   UNL     1      41.828 -14.692   7.052  1.00  0.00     0.278 HD
HETATM   14  C   UNL     1      42.581 -14.223   5.173  1.00  0.00     0.269 C 
HETATM   15  C   UNL     1      42.093 -12.715   0.425  1.00  0.00     0.033 A 
HETATM   16  C   UNL     1      41.000 -12.389  -0.390  1.00  0.00     0.039 A 
ENDROOT
BRANCH  14  17
HETATM   17  C   UNL     1      43.182 -15.616   5.105  1.00  0.00    -0.019 A 
HETATM   18  C   UNL     1      43.816 -16.216   6.211  1.00  0.00     0.049 A 
HETATM   19  C   UNL     1      44.397 -17.485   6.114  1.00  0.00     0.102 A 
HETATM   20  C   UNL     1      44.374 -18.167   4.885  1.00  0.00     0.102 A 
HETATM   21  C   UNL     1      43.742 -17.586   3.785  1.00  0.00     0.040 A 
HETATM   22  C   UNL     1      43.156 -16.321   3.892  1.00  0.00     0.012 A 
BRANCH  19  23
HETATM   23  O   UNL     1      45.042 -18.117   7.145  1.00  0.00    -0.353 OA
HETATM   24  C   UNL     1      44.259 -18.608   8.225  1.00  0.00     0.210 C 
ENDBRANCH  19  23
BRANCH  20  25
HETATM   25  O   UNL     1      44.949 -19.411   4.874  1.00  0.00    -0.343 OA
BRANCH  25  26
HETATM   26  C   UNL     1      44.253 -20.485   4.251  1.00  0.00     0.129 C 
HETATM   27  C   UNL     1      44.733 -20.751   2.825  1.00  0.00     0.032 C 
HETATM   28  C   UNL     1      44.432 -22.223   2.622  1.00  0.00     0.002 C 
HETATM   29  C   UNL     1      44.854 -22.847   3.942  1.00  0.00     0.002 C 
HETATM   30  C   UNL     1      44.574 -21.785   5.005  1.00  0.00     0.032 C 
ENDBRANCH  25  26
ENDBRANCH  20  25
ENDBRANCH  14  17
BRANCH   1  31
HETATM   31  O   UNL     1      38.563 -12.125  -0.604  1.00  0.00    -0.356 OA
HETATM   32  C   UNL     1      38.020 -13.164  -1.411  1.00  0.00     0.210 C 
ENDBRANCH   1  31
TORSDOF 5
ENDMDL
MODEL 10
REMARK VINA RESULT:      -7.8      4.421      8.967
REMARK  5 active torsions:
REMARK  status: ('A' for Active; 'I' for Inactive)
REMARK    1  A    between atoms: O_2  and  C_3 
REMARK    2  A    between atoms: C_16  and  C_17 
REMARK    3  A    between atoms: C_19  and  O_20 
REMARK    4  A    between atoms: C_22  and  O_23 
REMARK    5  A    between atoms: O_23  and  C_24 
ROOT
HETATM    1  C   UNL     1      41.245  -9.022  11.474  1.00  0.00     0.069 A 
HETATM    2  C   UNL     1      41.308  -8.815  10.090  1.00  0.00     0.051 A 
HETATM    3  C   UNL     1      40.773  -9.775   9.210  1.00  0.00     0.002 A 
HETATM    4  C   UNL     1      40.178 -10.917   9.746  1.00  0.00     0.043 A 
HETATM    5  N   UNL     1      39.743 -11.697   8.696  1.00  0.00    -0.356 N 
HETATM    6  H   UNL     1      39.294 -12.597   8.815  1.00  0.00     0.166 HD
HETATM    7  C   UNL     1      40.060 -11.086   7.510  1.00  0.00     0.052 A 
HETATM    8  C   UNL     1      40.687  -9.888   7.798  1.00  0.00    -0.019 A 
HETATM    9  C   UNL     1      41.160  -8.962   6.730  1.00  0.00     0.069 C 
HETATM   10  C   UNL     1      41.262  -9.699   5.383  1.00  0.00     0.238 C 
HETATM   11  N   UNL     1      40.042 -10.557   5.135  1.00  0.00    -0.061 N 
HETATM   12  H   UNL     1      39.215  -9.951   5.138  1.00  0.00     0.278 HD
HETATM   13  H   UNL     1      40.103 -10.986   4.206  1.00  0.00     0.278 HD
HETATM   14  C   UNL     1      39.805 -11.646   6.153  1.00  0.00     0.269 C 
HETATM   15  C   UNL     1      40.095 -11.140  11.125  1.00  0.00     0.033 A 
HETATM   16  C   UNL     1      40.640 -10.172  11.979  1.00  0.00     0.039 A 
ENDROOT
BRANCH  14  17
HETATM   17  C   UNL     1      40.606 -12.891   5.817  1.00  0.00    -0.019 A 
HETATM   18  C   UNL     1      42.011 -12.931   5.916  1.00  0.00     0.049 A 
HETATM   19  C   UNL     1      42.730 -14.078   5.563  1.00  0.00     0.102 A 
HETATM   20  C   UNL     1      42.046 -15.205   5.074  1.00  0.00     0.102 A 
HETATM   21  C   UNL     1      40.655 -15.179   4.980  1.00  0.00     0.040 A 
HETATM   22  C   UNL     1      39.941 -14.032   5.342  1.00  0.00     0.012 A 
BRANCH  19  23
HETATM   23  O   UNL     1      44.096 -14.177   5.621  1.00  0.00    -0.353 OA
HETATM   24  C   UNL     1      44.719 -14.113   6.897  1.00  0.00     0.210 C 
ENDBRANCH  19  23
BRANCH  20  25
HETATM   25  O   UNL     1      42.819 -16.293   4.766  1.00  0.00    -0.343 OA
BRANCH  25  26
HETATM   26  C   UNL     1      42.687 -16.889   3.480  1.00  0.00     0.129 C 
HETATM   27  C   UNL     1      43.626 -16.272   2.445  1.00  0.00     0.032 C 
HETATM   28  C   UNL     1      43.844 -17.399   1.454  1.00  0.00     0.002 C 
HETATM   29  C   UNL     1      44.017 -18.617   2.346  1.00  0.00     0.002 C 
HETATM   30  C   UNL     1      43.134 -18.357   3.567  1.00  0.00     0.032 C 
ENDBRANCH  25  26
ENDBRANCH  20  25
ENDBRANCH  14  17
BRANCH   1  31
HETATM   31  O   UNL     1      41.813  -8.022  12.216  1.00  0.00    -0.356 OA
HETATM   32  C   UNL     1      42.711  -8.412  13.248  1.00  0.00     0.210 C 
ENDBRANCH   1  31
TORSDOF 5
ENDMDL
