MODEL 1
REMARK VINA RESULT:      -9.4      0.000      0.000
REMARK  7 active torsions:
REMARK  status: ('A' for Active; 'I' for Inactive)
REMARK    1  A    between atoms: C_3  and  C_4 
REMARK    2  A    between atoms: C_6  and  O_7 
REMARK    3  A    between atoms: C_9  and  O_10 
REMARK    4  A    between atoms: O_10  and  C_11 
REMARK    5  A    between atoms: C_11  and  C_12 
REMARK       I    between atoms: C_12  and  N_13 
REMARK    6  A    between atoms: N_13  and  N_14 
REMARK       I    between atoms: N_14  and  C_15 
REMARK    7  A    between atoms: C_15  and  C_16 
ROOT
HETATM    1  C   UNL     1      45.037 -13.681   7.275  1.00  0.00     0.260 C 
HETATM    2  N   UNL     1      43.978 -14.566   7.253  1.00  0.00    -0.265 N 
HETATM    3  O   UNL     1      45.841 -13.575   6.348  1.00  0.00    -0.269 OA
HETATM    4  H   UNL     1      43.220 -14.496   7.933  1.00  0.00     0.190 HD
ENDROOT
BRANCH   2   5
HETATM    5  N   UNL     1      43.715 -15.254   6.067  1.00  0.00    -0.263 N 
HETATM    6  C   UNL     1      43.414 -16.600   6.109  1.00  0.00     0.272 C 
HETATM    7  O   UNL     1      43.490 -17.256   7.147  1.00  0.00    -0.266 OA
HETATM    8  H   UNL     1      43.682 -14.708   5.214  1.00  0.00     0.190 HD
BRANCH   6   9
HETATM    9  C   UNL     1      43.070 -17.195   4.820  1.00  0.00     0.061 A 
HETATM   10  C   UNL     1      43.572 -18.372   4.161  1.00  0.00     0.008 A 
HETATM   11  C   UNL     1      42.850 -18.529   2.968  1.00  0.00     0.045 A 
HETATM   12  C   UNL     1      44.584 -19.319   4.453  1.00  0.00     0.015 A 
HETATM   13  C   UNL     1      43.065 -19.617   2.103  1.00  0.00     0.030 A 
HETATM   14  N   UNL     1      41.990 -17.458   2.875  1.00  0.00    -0.359 N 
HETATM   15  C   UNL     1      44.045 -20.552   2.440  1.00  0.00     0.002 A 
HETATM   16  C   UNL     1      44.802 -20.402   3.594  1.00  0.00     0.001 A 
HETATM   17  C   UNL     1      41.069 -17.178   1.796  1.00  0.00     0.156 C 
HETATM   18  C   UNL     1      42.128 -16.646   3.968  1.00  0.00     0.108 A 
ENDBRANCH   6   9
ENDBRANCH   2   5
BRANCH   1  19
HETATM   19  C   UNL     1      45.094 -12.798   8.518  1.00  0.00     0.280 C 
BRANCH  19  20
HETATM   20  O   UNL     1      44.028 -11.852   8.499  1.00  0.00    -0.339 OA
BRANCH  20  21
HETATM   21  C   UNL     1      43.759 -11.265   9.711  1.00  0.00     0.102 A 
HETATM   22  C   UNL     1      42.526 -10.601   9.844  1.00  0.00     0.102 A 
HETATM   23  C   UNL     1      42.231  -9.936  11.039  1.00  0.00     0.051 A 
HETATM   24  C   UNL     1      43.140  -9.944  12.105  1.00  0.00    -0.034 A 
HETATM   25  C   UNL     1      44.365 -10.603  11.958  1.00  0.00     0.014 A 
HETATM   26  C   UNL     1      44.678 -11.255  10.764  1.00  0.00     0.040 A 
BRANCH  22  27
HETATM   27  O   UNL     1      41.690 -10.657   8.756  1.00  0.00    -0.353 OA
HETATM   28  C   UNL     1      40.298 -10.786   9.016  1.00  0.00     0.210 C 
ENDBRANCH  22  27
BRANCH  24  29
HETATM   29  C   UNL     1      42.809  -9.213  13.332  1.00  0.00     0.007 C 
HETATM   30  C   UNL     1      42.523  -9.827  14.491  1.00  0.00    -0.030 C 
HETATM   31  C   UNL     1      42.169  -9.098  15.747  1.00  0.00     0.036 C 
ENDBRANCH  24  29
ENDBRANCH  20  21
ENDBRANCH  19  20
ENDBRANCH   1  19
TORSDOF 7
ENDMDL
MODEL 2
REMARK VINA RESULT:      -9.0      2.356     10.541
REMARK  7 active torsions:
REMARK  status: ('A' for Active; 'I' for Inactive)
REMARK    1  A    between atoms: C_3  and  C_4 
REMARK    2  A    between atoms: C_6  and  O_7 
REMARK    3  A    between atoms: C_9  and  O_10 
REMARK    4  A    between atoms: O_10  and  C_11 
REMARK    5  A    between atoms: C_11  and  C_12 
REMARK       I    between atoms: C_12  and  N_13 
REMARK    6  A    between atoms: N_13  and  N_14 
REMARK       I    between atoms: N_14  and  C_15 
REMARK    7  A    between atoms: C_15  and  C_16 
ROOT
HETATM    1  C   UNL     1      44.539 -13.001   8.311  1.00  0.00     0.260 C 
HETATM    2  N   UNL     1      43.411 -12.234   8.094  1.00  0.00    -0.265 N 
HETATM    3  O   UNL     1      45.182 -12.964   9.361  1.00  0.00    -0.269 OA
HETATM    4  H   UNL     1      42.789 -12.425   7.308  1.00  0.00     0.190 HD
ENDROOT
BRANCH   2   5
HETATM    5  N   UNL     1      42.888 -11.508   9.166  1.00  0.00    -0.263 N 
HETATM    6  C   UNL     1      42.296 -10.283   8.938  1.00  0.00     0.272 C 
HETATM    7  O   UNL     1      42.320  -9.739   7.835  1.00  0.00    -0.266 OA
HETATM    8  H   UNL     1      42.899 -11.955  10.075  1.00  0.00     0.190 HD
BRANCH   6   9
HETATM    9  C   UNL     1      41.706  -9.655  10.118  1.00  0.00     0.061 A 
HETATM   10  C   UNL     1      42.213  -9.498  11.455  1.00  0.00     0.008 A 
HETATM   11  C   UNL     1      41.268  -8.757  12.181  1.00  0.00     0.045 A 
HETATM   12  C   UNL     1      43.382  -9.925  12.132  1.00  0.00     0.015 A 
HETATM   13  C   UNL     1      41.480  -8.387  13.522  1.00  0.00     0.030 A 
HETATM   14  N   UNL     1      40.203  -8.528  11.339  1.00  0.00    -0.359 N 
HETATM   15  C   UNL     1      42.660  -8.794  14.147  1.00  0.00     0.002 A 
HETATM   16  C   UNL     1      43.596  -9.561  13.466  1.00  0.00     0.001 A 
HETATM   17  C   UNL     1      38.978  -7.831  11.661  1.00  0.00     0.156 C 
HETATM   18  C   UNL     1      40.448  -9.078  10.110  1.00  0.00     0.108 A 
ENDBRANCH   6   9
ENDBRANCH   2   5
BRANCH   1  19
HETATM   19  C   UNL     1      44.888 -13.946   7.165  1.00  0.00     0.280 C 
BRANCH  19  20
HETATM   20  O   UNL     1      43.705 -14.543   6.642  1.00  0.00    -0.339 OA
BRANCH  20  21
HETATM   21  C   UNL     1      43.888 -15.776   6.066  1.00  0.00     0.102 A 
HETATM   22  C   UNL     1      43.332 -15.980   4.791  1.00  0.00     0.102 A 
HETATM   23  C   UNL     1      43.442 -17.238   4.188  1.00  0.00     0.051 A 
HETATM   24  C   UNL     1      44.115 -18.284   4.833  1.00  0.00    -0.034 A 
HETATM   25  C   UNL     1      44.659 -18.070   6.104  1.00  0.00     0.014 A 
HETATM   26  C   UNL     1      44.541 -16.823   6.723  1.00  0.00     0.040 A 
BRANCH  22  27
HETATM   27  O   UNL     1      42.705 -14.897   4.226  1.00  0.00    -0.353 OA
HETATM   28  C   UNL     1      43.027 -14.594   2.875  1.00  0.00     0.210 C 
ENDBRANCH  22  27
BRANCH  24  29
HETATM   29  C   UNL     1      44.186 -19.596   4.184  1.00  0.00     0.007 C 
HETATM   30  C   UNL     1      44.073 -19.759   2.857  1.00  0.00    -0.030 C 
HETATM   31  C   UNL     1      44.129 -21.091   2.180  1.00  0.00     0.036 C 
ENDBRANCH  24  29
ENDBRANCH  20  21
ENDBRANCH  19  20
ENDBRANCH   1  19
TORSDOF 7
ENDMDL
MODEL 3
REMARK VINA RESULT:      -8.9      1.716      2.973
REMARK  7 active torsions:
REMARK  status: ('A' for Active; 'I' for Inactive)
REMARK    1  A    between atoms: C_3  and  C_4 
REMARK    2  A    between atoms: C_6  and  O_7 
REMARK    3  A    between atoms: C_9  and  O_10 
REMARK    4  A    between atoms: O_10  and  C_11 
REMARK    5  A    between atoms: C_11  and  C_12 
REMARK       I    between atoms: C_12  and  N_13 
REMARK    6  A    between atoms: N_13  and  N_14 
REMARK       I    between atoms: N_14  and  C_15 
REMARK    7  A    between atoms: C_15  and  C_16 
ROOT
HETATM    1  C   UNL     1      41.568 -12.180   6.684  1.00  0.00     0.260 C 
HETATM    2  N   UNL     1      42.772 -12.855   6.734  1.00  0.00    -0.265 N 
HETATM    3  O   UNL     1      40.556 -12.653   6.166  1.00  0.00    -0.269 OA
HETATM    4  H   UNL     1      43.530 -12.532   7.336  1.00  0.00     0.190 HD
ENDROOT
BRANCH   2   5
HETATM    5  N   UNL     1      42.801 -14.189   6.324  1.00  0.00    -0.263 N 
HETATM    6  C   UNL     1      43.410 -14.525   5.133  1.00  0.00     0.272 C 
HETATM    7  O   UNL     1      43.825 -13.674   4.346  1.00  0.00    -0.266 OA
HETATM    8  H   UNL     1      42.430 -14.878   6.968  1.00  0.00     0.190 HD
BRANCH   6   9
HETATM    9  C   UNL     1      43.458 -15.957   4.848  1.00  0.00     0.061 A 
HETATM   10  C   UNL     1      43.510 -16.668   3.597  1.00  0.00     0.008 A 
HETATM   11  C   UNL     1      43.611 -18.036   3.894  1.00  0.00     0.045 A 
HETATM   12  C   UNL     1      43.467 -16.287   2.234  1.00  0.00     0.015 A 
HETATM   13  C   UNL     1      43.727 -19.011   2.887  1.00  0.00     0.030 A 
HETATM   14  N   UNL     1      43.558 -18.156   5.265  1.00  0.00    -0.359 N 
HETATM   15  C   UNL     1      43.719 -18.596   1.553  1.00  0.00     0.002 A 
HETATM   16  C   UNL     1      43.582 -17.253   1.229  1.00  0.00     0.001 A 
HETATM   17  C   UNL     1      43.594 -19.382   6.029  1.00  0.00     0.156 C 
HETATM   18  C   UNL     1      43.448 -16.920   5.841  1.00  0.00     0.108 A 
ENDBRANCH   6   9
ENDBRANCH   2   5
BRANCH   1  19
HETATM   19  C   UNL     1      41.578 -10.823   7.381  1.00  0.00     0.280 C 
BRANCH  19  20
HETATM   20  O   UNL     1      42.841 -10.595   7.999  1.00  0.00    -0.339 OA
BRANCH  20  21
HETATM   21  C   UNL     1      42.798 -10.465   9.366  1.00  0.00     0.102 A 
HETATM   22  C   UNL     1      44.015 -10.574  10.061  1.00  0.00     0.102 A 
HETATM   23  C   UNL     1      44.016 -10.506  11.459  1.00  0.00     0.051 A 
HETATM   24  C   UNL     1      42.821 -10.313  12.165  1.00  0.00    -0.034 A 
HETATM   25  C   UNL     1      41.616 -10.213  11.462  1.00  0.00     0.014 A 
HETATM   26  C   UNL     1      41.602 -10.295  10.068  1.00  0.00     0.040 A 
BRANCH  22  27
HETATM   27  O   UNL     1      45.138 -10.745   9.289  1.00  0.00    -0.353 OA
HETATM   28  C   UNL     1      45.674 -12.059   9.209  1.00  0.00     0.210 C 
ENDBRANCH  22  27
BRANCH  24  29
HETATM   29  C   UNL     1      42.855 -10.276  13.630  1.00  0.00     0.007 C 
HETATM   30  C   UNL     1      42.106  -9.432  14.355  1.00  0.00    -0.030 C 
HETATM   31  C   UNL     1      42.139  -9.370  15.848  1.00  0.00     0.036 C 
ENDBRANCH  24  29
ENDBRANCH  20  21
ENDBRANCH  19  20
ENDBRANCH   1  19
TORSDOF 7
ENDMDL
MODEL 4
REMARK VINA RESULT:      -8.8      6.878      9.125
REMARK  7 active torsions:
REMARK  status: ('A' for Active; 'I' for Inactive)
REMARK    1  A    between atoms: C_3  and  C_4 
REMARK    2  A    between atoms: C_6  and  O_7 
REMARK    3  A    between atoms: C_9  and  O_10 
REMARK    4  A    between atoms: O_10  and  C_11 
REMARK    5  A    between atoms: C_11  and  C_12 
REMARK       I    between atoms: C_12  and  N_13 
REMARK    6  A    between atoms: N_13  and  N_14 
REMARK       I    between atoms: N_14  and  C_15 
REMARK    7  A    between atoms: C_15  and  C_16 
ROOT
HETATM    1  C   UNL     1      39.422 -15.047   2.336  1.00  0.00     0.260 C 
HETATM    2  N   UNL     1      39.635 -16.335   1.884  1.00  0.00    -0.265 N 
HETATM    3  O   UNL     1      39.905 -14.616   3.384  1.00  0.00    -0.269 OA
HETATM    4  H   UNL     1      39.396 -16.602   0.930  1.00  0.00     0.190 HD
ENDROOT
BRANCH   2   5
HETATM    5  N   UNL     1      40.565 -17.127   2.561  1.00  0.00    -0.263 N 
HETATM    6  C   UNL     1      41.841 -17.267   2.055  1.00  0.00     0.272 C 
HETATM    7  O   UNL     1      42.163 -16.818   0.956  1.00  0.00    -0.266 OA
HETATM    8  H   UNL     1      40.278 -17.515   3.452  1.00  0.00     0.190 HD
BRANCH   6   9
HETATM    9  C   UNL     1      42.752 -18.045   2.890  1.00  0.00     0.061 A 
HETATM   10  C   UNL     1      43.282 -19.373   2.723  1.00  0.00     0.008 A 
HETATM   11  C   UNL     1      44.169 -19.610   3.785  1.00  0.00     0.045 A 
HETATM   12  C   UNL     1      43.087 -20.409   1.778  1.00  0.00     0.015 A 
HETATM   13  C   UNL     1      44.897 -20.809   3.895  1.00  0.00     0.030 A 
HETATM   14  N   UNL     1      44.131 -18.499   4.596  1.00  0.00    -0.359 N 
HETATM   15  C   UNL     1      44.708 -21.795   2.925  1.00  0.00     0.002 A 
HETATM   16  C   UNL     1      43.808 -21.604   1.885  1.00  0.00     0.001 A 
HETATM   17  C   UNL     1      44.858 -18.303   5.831  1.00  0.00     0.156 C 
HETATM   18  C   UNL     1      43.273 -17.567   4.080  1.00  0.00     0.108 A 
ENDBRANCH   6   9
ENDBRANCH   2   5
BRANCH   1  19
HETATM   19  C   UNL     1      38.589 -14.180   1.396  1.00  0.00     0.280 C 
BRANCH  19  20
HETATM   20  O   UNL     1      39.094 -14.269   0.067  1.00  0.00    -0.339 OA
BRANCH  20  21
HETATM   21  C   UNL     1      40.062 -13.345  -0.244  1.00  0.00     0.102 A 
HETATM   22  C   UNL     1      41.128 -13.778  -1.052  1.00  0.00     0.102 A 
HETATM   23  C   UNL     1      42.169 -12.891  -1.348  1.00  0.00     0.051 A 
HETATM   24  C   UNL     1      42.147 -11.576  -0.863  1.00  0.00    -0.034 A 
HETATM   25  C   UNL     1      41.084 -11.160  -0.055  1.00  0.00     0.014 A 
HETATM   26  C   UNL     1      40.048 -12.042   0.261  1.00  0.00     0.040 A 
BRANCH  22  27
HETATM   27  O   UNL     1      41.061 -15.076  -1.497  1.00  0.00    -0.353 OA
HETATM   28  C   UNL     1      40.873 -15.273  -2.892  1.00  0.00     0.210 C 
ENDBRANCH  22  27
BRANCH  24  29
HETATM   29  C   UNL     1      43.268 -10.683  -1.170  1.00  0.00     0.007 C 
HETATM   30  C   UNL     1      43.257  -9.373  -0.878  1.00  0.00    -0.030 C 
HETATM   31  C   UNL     1      44.385  -8.445  -1.196  1.00  0.00     0.036 C 
ENDBRANCH  24  29
ENDBRANCH  20  21
ENDBRANCH  19  20
ENDBRANCH   1  19
TORSDOF 7
ENDMDL
MODEL 5
REMARK VINA RESULT:      -8.7      2.339     10.666
REMARK  7 active torsions:
REMARK  status: ('A' for Active; 'I' for Inactive)
REMARK    1  A    between atoms: C_3  and  C_4 
REMARK    2  A    between atoms: C_6  and  O_7 
REMARK    3  A    between atoms: C_9  and  O_10 
REMARK    4  A    between atoms: O_10  and  C_11 
REMARK    5  A    between atoms: C_11  and  C_12 
REMARK       I    between atoms: C_12  and  N_13 
REMARK    6  A    between atoms: N_13  and  N_14 
REMARK       I    between atoms: N_14  and  C_15 
REMARK    7  A    between atoms: C_15  and  C_16 
ROOT
HETATM    1  C   UNL     1      44.728 -13.156   7.982  1.00  0.00     0.260 C 
HETATM    2  N   UNL     1      43.545 -12.447   8.062  1.00  0.00    -0.265 N 
HETATM    3  O   UNL     1      45.587 -13.129   8.865  1.00  0.00    -0.269 OA
HETATM    4  H   UNL     1      42.773 -12.640   7.423  1.00  0.00     0.190 HD
ENDROOT
BRANCH   2   5
HETATM    5  N   UNL     1      43.241 -11.801   9.262  1.00  0.00    -0.263 N 
HETATM    6  C   UNL     1      42.623 -10.568   9.236  1.00  0.00     0.272 C 
HETATM    7  O   UNL     1      42.438  -9.949   8.189  1.00  0.00    -0.266 OA
HETATM    8  H   UNL     1      43.424 -12.310  10.119  1.00  0.00     0.190 HD
BRANCH   6   9
HETATM    9  C   UNL     1      42.273 -10.027  10.548  1.00  0.00     0.061 A 
HETATM   10  C   UNL     1      41.016  -9.563  11.072  1.00  0.00     0.008 A 
HETATM   11  C   UNL     1      41.222  -9.210  12.414  1.00  0.00     0.045 A 
HETATM   12  C   UNL     1      39.717  -9.393  10.534  1.00  0.00     0.015 A 
HETATM   13  C   UNL     1      40.174  -8.756  13.235  1.00  0.00     0.030 A 
HETATM   14  N   UNL     1      42.561  -9.392  12.677  1.00  0.00    -0.359 N 
HETATM   15  C   UNL     1      38.898  -8.635  12.682  1.00  0.00     0.002 A 
HETATM   16  C   UNL     1      38.672  -8.940  11.347  1.00  0.00     0.001 A 
HETATM   17  C   UNL     1      43.243  -9.125  13.923  1.00  0.00     0.156 C 
HETATM   18  C   UNL     1      43.200  -9.862  11.562  1.00  0.00     0.108 A 
ENDBRANCH   6   9
ENDBRANCH   2   5
BRANCH   1  19
HETATM   19  C   UNL     1      44.856 -14.028   6.736  1.00  0.00     0.280 C 
BRANCH  19  20
HETATM   20  O   UNL     1      43.693 -14.836   6.579  1.00  0.00    -0.339 OA
BRANCH  20  21
HETATM   21  C   UNL     1      43.918 -16.066   6.011  1.00  0.00     0.102 A 
HETATM   22  C   UNL     1      43.233 -16.358   4.818  1.00  0.00     0.102 A 
HETATM   23  C   UNL     1      43.385 -17.620   4.231  1.00  0.00     0.051 A 
HETATM   24  C   UNL     1      44.224 -18.581   4.810  1.00  0.00    -0.034 A 
HETATM   25  C   UNL     1      44.895 -18.279   6.000  1.00  0.00     0.014 A 
HETATM   26  C   UNL     1      44.739 -17.030   6.603  1.00  0.00     0.040 A 
BRANCH  22  27
HETATM   27  O   UNL     1      42.445 -15.353   4.312  1.00  0.00    -0.353 OA
HETATM   28  C   UNL     1      41.121 -15.700   3.930  1.00  0.00     0.210 C 
ENDBRANCH  22  27
BRANCH  24  29
HETATM   29  C   UNL     1      44.337 -19.901   4.183  1.00  0.00     0.007 C 
HETATM   30  C   UNL     1      44.246 -20.089   2.858  1.00  0.00    -0.030 C 
HETATM   31  C   UNL     1      44.344 -21.429   2.204  1.00  0.00     0.036 C 
ENDBRANCH  24  29
ENDBRANCH  20  21
ENDBRANCH  19  20
ENDBRANCH   1  19
TORSDOF 7
ENDMDL
MODEL 6
REMARK VINA RESULT:      -8.7      2.324     10.252
REMARK  7 active torsions:
REMARK  status: ('A' for Active; 'I' for Inactive)
REMARK    1  A    between atoms: C_3  and  C_4 
REMARK    2  A    between atoms: C_6  and  O_7 
REMARK    3  A    between atoms: C_9  and  O_10 
REMARK    4  A    between atoms: O_10  and  C_11 
REMARK    5  A    between atoms: C_11  and  C_12 
REMARK       I    between atoms: C_12  and  N_13 
REMARK    6  A    between atoms: N_13  and  N_14 
REMARK       I    between atoms: N_14  and  C_15 
REMARK    7  A    between atoms: C_15  and  C_16 
ROOT
HETATM    1  C   UNL     1      42.963 -13.307   4.693  1.00  0.00     0.260 C 
HETATM    2  N   UNL     1      41.944 -12.534   5.214  1.00  0.00    -0.265 N 
HETATM    3  O   UNL     1      43.956 -13.633   5.344  1.00  0.00    -0.269 OA
HETATM    4  H   UNL     1      41.051 -12.445   4.729  1.00  0.00     0.190 HD
ENDROOT
BRANCH   2   5
HETATM    5  N   UNL     1      41.965 -12.246   6.581  1.00  0.00    -0.263 N 
HETATM    6  C   UNL     1      41.663 -10.972   7.015  1.00  0.00     0.272 C 
HETATM    7  O   UNL     1      41.496 -10.035   6.235  1.00  0.00    -0.266 OA
HETATM    8  H   UNL     1      42.131 -13.020   7.213  1.00  0.00     0.190 HD
BRANCH   6   9
HETATM    9  C   UNL     1      41.629 -10.808   8.467  1.00  0.00     0.061 A 
HETATM   10  C   UNL     1      42.688 -10.814   9.441  1.00  0.00     0.008 A 
HETATM   11  C   UNL     1      42.112 -10.543  10.692  1.00  0.00     0.045 A 
HETATM   12  C   UNL     1      44.085 -11.037   9.389  1.00  0.00     0.015 A 
HETATM   13  C   UNL     1      42.886 -10.433  11.861  1.00  0.00     0.030 A 
HETATM   14  N   UNL     1      40.753 -10.441  10.495  1.00  0.00    -0.359 N 
HETATM   15  C   UNL     1      44.266 -10.623  11.767  1.00  0.00     0.002 A 
HETATM   16  C   UNL     1      44.859 -10.929  10.550  1.00  0.00     0.001 A 
HETATM   17  C   UNL     1      39.748 -10.201  11.506  1.00  0.00     0.156 C 
HETATM   18  C   UNL     1      40.454 -10.617   9.172  1.00  0.00     0.108 A 
ENDBRANCH   6   9
ENDBRANCH   2   5
BRANCH   1  19
HETATM   19  C   UNL     1      42.727 -13.776   3.261  1.00  0.00     0.280 C 
BRANCH  19  20
HETATM   20  O   UNL     1      41.806 -14.864   3.245  1.00  0.00    -0.339 OA
BRANCH  20  21
HETATM   21  C   UNL     1      42.379 -16.100   3.069  1.00  0.00     0.102 A 
HETATM   22  C   UNL     1      42.166 -17.056   4.077  1.00  0.00     0.102 A 
HETATM   23  C   UNL     1      42.776 -18.311   3.972  1.00  0.00     0.051 A 
HETATM   24  C   UNL     1      43.577 -18.626   2.867  1.00  0.00    -0.034 A 
HETATM   25  C   UNL     1      43.786 -17.664   1.873  1.00  0.00     0.014 A 
HETATM   26  C   UNL     1      43.195 -16.402   1.976  1.00  0.00     0.040 A 
BRANCH  22  27
HETATM   27  O   UNL     1      41.355 -16.669   5.116  1.00  0.00    -0.353 OA
HETATM   28  C   UNL     1      41.957 -16.550   6.398  1.00  0.00     0.210 C 
ENDBRANCH  22  27
BRANCH  24  29
HETATM   29  C   UNL     1      44.223 -19.940   2.804  1.00  0.00     0.007 C 
HETATM   30  C   UNL     1      43.861 -20.890   1.927  1.00  0.00    -0.030 C 
HETATM   31  C   UNL     1      44.499 -22.239   1.859  1.00  0.00     0.036 C 
ENDBRANCH  24  29
ENDBRANCH  20  21
ENDBRANCH  19  20
ENDBRANCH   1  19
TORSDOF 7
ENDMDL
MODEL 7
REMARK VINA RESULT:      -8.5      2.610     10.642
REMARK  7 active torsions:
REMARK  status: ('A' for Active; 'I' for Inactive)
REMARK    1  A    between atoms: C_3  and  C_4 
REMARK    2  A    between atoms: C_6  and  O_7 
REMARK    3  A    between atoms: C_9  and  O_10 
REMARK    4  A    between atoms: O_10  and  C_11 
REMARK    5  A    between atoms: C_11  and  C_12 
REMARK       I    between atoms: C_12  and  N_13 
REMARK    6  A    between atoms: N_13  and  N_14 
REMARK       I    between atoms: N_14  and  C_15 
REMARK    7  A    between atoms: C_15  and  C_16 
ROOT
HETATM    1  C   UNL     1      42.416 -13.342   5.455  1.00  0.00     0.260 C 
HETATM    2  N   UNL     1      41.522 -12.354   5.818  1.00  0.00    -0.265 N 
HETATM    3  O   UNL     1      43.229 -13.831   6.241  1.00  0.00    -0.269 OA
HETATM    4  H   UNL     1      40.736 -12.110   5.215  1.00  0.00     0.190 HD
ENDROOT
BRANCH   2   5
HETATM    5  N   UNL     1      41.428 -12.010   7.168  1.00  0.00    -0.263 N 
HETATM    6  C   UNL     1      41.587 -10.694   7.550  1.00  0.00     0.272 C 
HETATM    7  O   UNL     1      41.936  -9.819   6.759  1.00  0.00    -0.266 OA
HETATM    8  H   UNL     1      41.167 -12.746   7.814  1.00  0.00     0.190 HD
BRANCH   6   9
HETATM    9  C   UNL     1      41.381 -10.437   8.974  1.00  0.00     0.061 A 
HETATM   10  C   UNL     1      42.314 -10.392  10.069  1.00  0.00     0.008 A 
HETATM   11  C   UNL     1      41.596 -10.036  11.221  1.00  0.00     0.045 A 
HETATM   12  C   UNL     1      43.703 -10.633  10.201  1.00  0.00     0.015 A 
HETATM   13  C   UNL     1      42.224  -9.860  12.467  1.00  0.00     0.030 A 
HETATM   14  N   UNL     1      40.273  -9.932  10.854  1.00  0.00    -0.359 N 
HETATM   15  C   UNL     1      43.602 -10.069  12.554  1.00  0.00     0.002 A 
HETATM   16  C   UNL     1      44.332 -10.460  11.439  1.00  0.00     0.001 A 
HETATM   17  C   UNL     1      39.157  -9.617  11.718  1.00  0.00     0.156 C 
HETATM   18  C   UNL     1      40.133 -10.189   9.518  1.00  0.00     0.108 A 
ENDBRANCH   6   9
ENDBRANCH   2   5
BRANCH   1  19
HETATM   19  C   UNL     1      42.272 -13.824   4.014  1.00  0.00     0.280 C 
BRANCH  19  20
HETATM   20  O   UNL     1      41.353 -14.911   3.949  1.00  0.00    -0.339 OA
BRANCH  20  21
HETATM   21  C   UNL     1      41.881 -16.081   3.461  1.00  0.00     0.102 A 
HETATM   22  C   UNL     1      41.397 -16.537   2.222  1.00  0.00     0.102 A 
HETATM   23  C   UNL     1      41.861 -17.755   1.710  1.00  0.00     0.051 A 
HETATM   24  C   UNL     1      42.812 -18.508   2.410  1.00  0.00    -0.034 A 
HETATM   25  C   UNL     1      43.281 -18.046   3.644  1.00  0.00     0.014 A 
HETATM   26  C   UNL     1      42.813 -16.841   4.172  1.00  0.00     0.040 A 
BRANCH  22  27
HETATM   27  O   UNL     1      40.479 -15.729   1.597  1.00  0.00    -0.353 OA
HETATM   28  C   UNL     1      40.833 -15.213   0.321  1.00  0.00     0.210 C 
ENDBRANCH  22  27
BRANCH  24  29
HETATM   29  C   UNL     1      43.254 -19.792   1.858  1.00  0.00     0.007 C 
HETATM   30  C   UNL     1      44.061 -20.633   2.523  1.00  0.00    -0.030 C 
HETATM   31  C   UNL     1      44.533 -21.938   1.969  1.00  0.00     0.036 C 
ENDBRANCH  24  29
ENDBRANCH  20  21
ENDBRANCH  19  20
ENDBRANCH   1  19
TORSDOF 7
ENDMDL
MODEL 8
REMARK VINA RESULT:      -8.4      6.850     10.343
REMARK  7 active torsions:
REMARK  status: ('A' for Active; 'I' for Inactive)
REMARK    1  A    between atoms: C_3  and  C_4 
REMARK    2  A    between atoms: C_6  and  O_7 
REMARK    3  A    between atoms: C_9  and  O_10 
REMARK    4  A    between atoms: O_10  and  C_11 
REMARK    5  A    between atoms: C_11  and  C_12 
REMARK       I    between atoms: C_12  and  N_13 
REMARK    6  A    between atoms: N_13  and  N_14 
REMARK       I    between atoms: N_14  and  C_15 
REMARK    7  A    between atoms: C_15  and  C_16 
ROOT
HETATM    1  C   UNL     1      42.379 -13.863   1.957  1.00  0.00     0.260 C 
HETATM    2  N   UNL     1      41.834 -15.118   1.772  1.00  0.00    -0.265 N 
HETATM    3  O   UNL     1      43.130 -13.591   2.895  1.00  0.00    -0.269 OA
HETATM    4  H   UNL     1      41.384 -15.370   0.891  1.00  0.00     0.190 HD
ENDROOT
BRANCH   2   5
HETATM    5  N   UNL     1      42.277 -16.160   2.589  1.00  0.00    -0.263 N 
HETATM    6  C   UNL     1      43.008 -17.194   2.041  1.00  0.00     0.272 C 
HETATM    7  O   UNL     1      43.182 -17.303   0.828  1.00  0.00    -0.266 OA
HETATM    8  H   UNL     1      42.104 -16.073   3.583  1.00  0.00     0.190 HD
BRANCH   6   9
HETATM    9  C   UNL     1      43.494 -18.181   3.002  1.00  0.00     0.061 A 
HETATM   10  C   UNL     1      43.759 -19.588   2.856  1.00  0.00     0.008 A 
HETATM   11  C   UNL     1      44.278 -20.049   4.076  1.00  0.00     0.045 A 
HETATM   12  C   UNL     1      43.597 -20.527   1.809  1.00  0.00     0.015 A 
HETATM   13  C   UNL     1      44.686 -21.383   4.257  1.00  0.00     0.030 A 
HETATM   14  N   UNL     1      44.269 -18.981   4.946  1.00  0.00    -0.359 N 
HETATM   15  C   UNL     1      44.547 -22.273   3.191  1.00  0.00     0.002 A 
HETATM   16  C   UNL     1      44.001 -21.855   1.984  1.00  0.00     0.001 A 
HETATM   17  C   UNL     1      44.684 -18.989   6.331  1.00  0.00     0.156 C 
HETATM   18  C   UNL     1      43.785 -17.867   4.318  1.00  0.00     0.108 A 
ENDBRANCH   6   9
ENDBRANCH   2   5
BRANCH   1  19
HETATM   19  C   UNL     1      42.026 -12.856   0.867  1.00  0.00     0.280 C 
BRANCH  19  20
HETATM   20  O   UNL     1      41.823 -13.525  -0.375  1.00  0.00    -0.339 OA
BRANCH  20  21
HETATM   21  C   UNL     1      41.953 -12.728  -1.486  1.00  0.00     0.102 A 
HETATM   22  C   UNL     1      41.530 -13.264  -2.714  1.00  0.00     0.102 A 
HETATM   23  C   UNL     1      41.695 -12.514  -3.884  1.00  0.00     0.051 A 
HETATM   24  C   UNL     1      42.257 -11.231  -3.837  1.00  0.00    -0.034 A 
HETATM   25  C   UNL     1      42.679 -10.711  -2.608  1.00  0.00     0.014 A 
HETATM   26  C   UNL     1      42.535 -11.458  -1.437  1.00  0.00     0.040 A 
BRANCH  22  27
HETATM   27  O   UNL     1      40.976 -14.520  -2.667  1.00  0.00    -0.353 OA
HETATM   28  C   UNL     1      39.914 -14.794  -3.571  1.00  0.00     0.210 C 
ENDBRANCH  22  27
BRANCH  24  29
HETATM   29  C   UNL     1      42.441 -10.485  -5.085  1.00  0.00     0.007 C 
HETATM   30  C   UNL     1      42.381  -9.146  -5.149  1.00  0.00    -0.030 C 
HETATM   31  C   UNL     1      42.552  -8.370  -6.415  1.00  0.00     0.036 C 
ENDBRANCH  24  29
ENDBRANCH  20  21
ENDBRANCH  19  20
ENDBRANCH   1  19
TORSDOF 7
ENDMDL
MODEL 9
REMARK VINA RESULT:      -8.3      7.247     10.290
REMARK  7 active torsions:
REMARK  status: ('A' for Active; 'I' for Inactive)
REMARK    1  A    between atoms: C_3  and  C_4 
REMARK    2  A    between atoms: C_6  and  O_7 
REMARK    3  A    between atoms: C_9  and  O_10 
REMARK    4  A    between atoms: O_10  and  C_11 
REMARK    5  A    between atoms: C_11  and  C_12 
REMARK       I    between atoms: C_12  and  N_13 
REMARK    6  A    between atoms: N_13  and  N_14 
REMARK       I    between atoms: N_14  and  C_15 
REMARK    7  A    between atoms: C_15  and  C_16 
ROOT
HETATM    1  C   UNL     1      40.855 -15.734   0.791  1.00  0.00     0.260 C 
HETATM    2  N   UNL     1      41.993 -16.450   0.477  1.00  0.00    -0.265 N 
HETATM    3  O   UNL     1      40.117 -16.029   1.732  1.00  0.00    -0.269 OA
HETATM    4  H   UNL     1      42.687 -16.076  -0.171  1.00  0.00     0.190 HD
ENDROOT
BRANCH   2   5
HETATM    5  N   UNL     1      42.410 -17.451   1.357  1.00  0.00    -0.263 N 
HETATM    6  C   UNL     1      43.495 -17.228   2.180  1.00  0.00     0.272 C 
HETATM    7  O   UNL     1      44.196 -16.222   2.083  1.00  0.00    -0.266 OA
HETATM    8  H   UNL     1      41.841 -18.287   1.408  1.00  0.00     0.190 HD
BRANCH   6   9
HETATM    9  C   UNL     1      43.786 -18.308   3.121  1.00  0.00     0.061 A 
HETATM   10  C   UNL     1      43.994 -19.715   2.905  1.00  0.00     0.008 A 
HETATM   11  C   UNL     1      44.308 -20.291   4.146  1.00  0.00     0.045 A 
HETATM   12  C   UNL     1      43.933 -20.568   1.776  1.00  0.00     0.015 A 
HETATM   13  C   UNL     1      44.615 -21.657   4.278  1.00  0.00     0.030 A 
HETATM   14  N   UNL     1      44.233 -19.287   5.085  1.00  0.00    -0.359 N 
HETATM   15  C   UNL     1      44.581 -22.462   3.137  1.00  0.00     0.002 A 
HETATM   16  C   UNL     1      44.236 -21.928   1.903  1.00  0.00     0.001 A 
HETATM   17  C   UNL     1      44.445 -19.417   6.509  1.00  0.00     0.156 C 
HETATM   18  C   UNL     1      43.902 -18.103   4.484  1.00  0.00     0.108 A 
ENDBRANCH   6   9
ENDBRANCH   2   5
BRANCH   1  19
HETATM   19  C   UNL     1      40.620 -14.508  -0.086  1.00  0.00     0.280 C 
BRANCH  19  20
HETATM   20  O   UNL     1      41.827 -13.764  -0.226  1.00  0.00    -0.339 OA
BRANCH  20  21
HETATM   21  C   UNL     1      41.968 -13.116  -1.428  1.00  0.00     0.102 A 
HETATM   22  C   UNL     1      42.430 -11.789  -1.393  1.00  0.00     0.102 A 
HETATM   23  C   UNL     1      42.535 -11.066  -2.587  1.00  0.00     0.051 A 
HETATM   24  C   UNL     1      42.201 -11.659  -3.812  1.00  0.00    -0.034 A 
HETATM   25  C   UNL     1      41.737 -12.978  -3.833  1.00  0.00     0.014 A 
HETATM   26  C   UNL     1      41.613 -13.703  -2.646  1.00  0.00     0.040 A 
BRANCH  22  27
HETATM   27  O   UNL     1      42.749 -11.293  -0.152  1.00  0.00    -0.353 OA
HETATM   28  C   UNL     1      42.919  -9.886  -0.042  1.00  0.00     0.210 C 
ENDBRANCH  22  27
BRANCH  24  29
HETATM   29  C   UNL     1      42.296 -10.864  -5.040  1.00  0.00     0.007 C 
HETATM   30  C   UNL     1      42.534  -9.543  -5.036  1.00  0.00    -0.030 C 
HETATM   31  C   UNL     1      42.619  -8.714  -6.277  1.00  0.00     0.036 C 
ENDBRANCH  24  29
ENDBRANCH  20  21
ENDBRANCH  19  20
ENDBRANCH   1  19
TORSDOF 7
ENDMDL
MODEL 10
REMARK VINA RESULT:      -8.3      2.262     10.699
REMARK  7 active torsions:
REMARK  status: ('A' for Active; 'I' for Inactive)
REMARK    1  A    between atoms: C_3  and  C_4 
REMARK    2  A    between atoms: C_6  and  O_7 
REMARK    3  A    between atoms: C_9  and  O_10 
REMARK    4  A    between atoms: O_10  and  C_11 
REMARK    5  A    between atoms: C_11  and  C_12 
REMARK       I    between atoms: C_12  and  N_13 
REMARK    6  A    between atoms: N_13  and  N_14 
REMARK       I    between atoms: N_14  and  C_15 
REMARK    7  A    between atoms: C_15  and  C_16 
ROOT
HETATM    1  C   UNL     1      42.721 -13.191   6.129  1.00  0.00     0.260 C 
HETATM    2  N   UNL     1      43.599 -12.913   7.159  1.00  0.00    -0.265 N 
HETATM    3  O   UNL     1      41.553 -12.800   6.120  1.00  0.00    -0.269 OA
HETATM    4  H   UNL     1      44.600 -13.073   7.052  1.00  0.00     0.190 HD
ENDROOT
BRANCH   2   5
HETATM    5  N   UNL     1      43.192 -12.018   8.151  1.00  0.00    -0.263 N 
HETATM    6  C   UNL     1      43.857 -11.989   9.359  1.00  0.00     0.272 C 
HETATM    7  O   UNL     1      44.724 -12.812   9.650  1.00  0.00    -0.266 OA
HETATM    8  H   UNL     1      42.458 -11.363   7.909  1.00  0.00     0.190 HD
BRANCH   6   9
HETATM    9  C   UNL     1      43.404 -10.955  10.287  1.00  0.00     0.061 A 
HETATM   10  C   UNL     1      42.441  -9.898  10.123  1.00  0.00     0.008 A 
HETATM   11  C   UNL     1      42.335  -9.230  11.353  1.00  0.00     0.045 A 
HETATM   12  C   UNL     1      41.654  -9.429   9.044  1.00  0.00     0.015 A 
HETATM   13  C   UNL     1      41.438  -8.164  11.547  1.00  0.00     0.030 A 
HETATM   14  N   UNL     1      43.241  -9.816  12.209  1.00  0.00    -0.359 N 
HETATM   15  C   UNL     1      40.650  -7.751  10.472  1.00  0.00     0.002 A 
HETATM   16  C   UNL     1      40.762  -8.368   9.232  1.00  0.00     0.001 A 
HETATM   17  C   UNL     1      43.508  -9.437  13.578  1.00  0.00     0.156 C 
HETATM   18  C   UNL     1      43.897 -10.835  11.574  1.00  0.00     0.108 A 
ENDBRANCH   6   9
ENDBRANCH   2   5
BRANCH   1  19
HETATM   19  C   UNL     1      43.336 -13.972   4.971  1.00  0.00     0.280 C 
BRANCH  19  20
HETATM   20  O   UNL     1      42.344 -14.774   4.337  1.00  0.00    -0.339 OA
BRANCH  20  21
HETATM   21  C   UNL     1      42.799 -15.975   3.852  1.00  0.00     0.102 A 
HETATM   22  C   UNL     1      42.509 -17.125   4.607  1.00  0.00     0.102 A 
HETATM   23  C   UNL     1      43.002 -18.366   4.186  1.00  0.00     0.051 A 
HETATM   24  C   UNL     1      43.760 -18.472   3.013  1.00  0.00    -0.034 A 
HETATM   25  C   UNL     1      44.047 -17.320   2.273  1.00  0.00     0.014 A 
HETATM   26  C   UNL     1      43.575 -16.074   2.693  1.00  0.00     0.040 A 
BRANCH  22  27
HETATM   27  O   UNL     1      41.747 -16.931   5.733  1.00  0.00    -0.353 OA
HETATM   28  C   UNL     1      42.400 -17.067   6.988  1.00  0.00     0.210 C 
ENDBRANCH  22  27
BRANCH  24  29
HETATM   29  C   UNL     1      44.283 -19.783   2.616  1.00  0.00     0.007 C 
HETATM   30  C   UNL     1      43.568 -20.668   1.906  1.00  0.00    -0.030 C 
HETATM   31  C   UNL     1      44.080 -22.014   1.506  1.00  0.00     0.036 C 
ENDBRANCH  24  29
ENDBRANCH  20  21
ENDBRANCH  19  20
ENDBRANCH   1  19
TORSDOF 7
ENDMDL
