MODEL 1
REMARK VINA RESULT:      -9.7      0.000      0.000
REMARK  6 active torsions:
REMARK  status: ('A' for Active; 'I' for Inactive)
REMARK    1  A    between atoms: O_2  and  C_3 
REMARK    2  A    between atoms: C_4  and  C_5 
REMARK    3  A    between atoms: N_7  and  C_8 
REMARK    4  A    between atoms: C_15  and  C_16 
REMARK       I    between atoms: C_16  and  N_17 
REMARK    5  A    between atoms: N_17  and  N_18 
REMARK       I    between atoms: N_18  and  C_19 
REMARK    6  A    between atoms: C_19  and  C_20 
ROOT
HETATM    1  C   UNL     1      43.249 -16.680   4.355  1.00  0.00     0.107 A 
HETATM    2  N   UNL     1      43.443 -17.667   3.468  1.00  0.00    -0.166 NA
HETATM    3  N   UNL     1      43.903 -18.716   4.179  1.00  0.00    -0.244 N 
HETATM    4  C   UNL     1      44.101 -18.375   5.497  1.00  0.00     0.138 A 
HETATM    5  C   UNL     1      43.682 -17.065   5.661  1.00  0.00     0.082 A 
ENDROOT
BRANCH   5   6
HETATM    6  C   UNL     1      43.673 -16.284   6.891  1.00  0.00     0.274 C 
HETATM    7  N   UNL     1      44.124 -14.983   6.769  1.00  0.00    -0.263 N 
HETATM    8  H   UNL     1      44.365 -14.544   5.884  1.00  0.00     0.190 HD
HETATM    9  O   UNL     1      43.280 -16.718   7.971  1.00  0.00    -0.266 OA
BRANCH   7  10
HETATM   10  N   UNL     1      44.037 -14.131   7.876  1.00  0.00    -0.262 N 
HETATM   11  C   UNL     1      45.042 -13.209   8.083  1.00  0.00     0.286 C 
HETATM   12  O   UNL     1      46.033 -13.166   7.354  1.00  0.00    -0.264 OA
HETATM   13  H   UNL     1      43.174 -14.158   8.413  1.00  0.00     0.190 HD
BRANCH  11  14
HETATM   14  C   UNL     1      44.851 -12.309   9.197  1.00  0.00     0.102 A 
HETATM   15  N   UNL     1      43.946 -12.592  10.201  1.00  0.00    -0.361 N 
HETATM   16  H   UNL     1      43.373 -13.428  10.221  1.00  0.00     0.165 HD
HETATM   17  C   UNL     1      43.944 -11.594  11.135  1.00  0.00     0.088 A 
HETATM   18  C   UNL     1      44.859 -10.647  10.742  1.00  0.00     0.019 A 
HETATM   19  C   UNL     1      45.430 -11.092   9.524  1.00  0.00     0.036 A 
ENDBRANCH  11  14
ENDBRANCH   7  10
ENDBRANCH   5   6
BRANCH   1  20
HETATM   20  C   UNL     1      42.684 -15.406   3.910  1.00  0.00     0.029 A 
HETATM   21  C   UNL     1      41.355 -15.052   4.196  1.00  0.00     0.080 A 
HETATM   22  C   UNL     1      40.839 -13.821   3.778  1.00  0.00     0.037 A 
HETATM   23  C   UNL     1      41.633 -12.949   3.036  1.00  0.00     0.003 A 
HETATM   24  C   UNL     1      42.944 -13.300   2.721  1.00  0.00     0.001 A 
HETATM   25  C   UNL     1      43.467 -14.522   3.155  1.00  0.00     0.017 A 
BRANCH  21  26
HETATM   26  O   UNL     1      40.561 -15.869   4.963  1.00  0.00    -0.355 OA
HETATM   27  C   UNL     1      40.187 -15.198   6.168  1.00  0.00     0.210 C 
ENDBRANCH  21  26
ENDBRANCH   1  20
BRANCH   3  28
HETATM   28  C   UNL     1      44.123 -19.978   3.556  1.00  0.00     0.058 A 
HETATM   29  C   UNL     1      43.768 -20.152   2.209  1.00  0.00     0.031 A 
HETATM   30  C   UNL     1      43.958 -21.384   1.582  1.00  0.00     0.002 A 
HETATM   31  C   UNL     1      44.505 -22.451   2.291  1.00  0.00     0.000 A 
HETATM   32  C   UNL     1      44.863 -22.288   3.628  1.00  0.00     0.002 A 
HETATM   33  C   UNL     1      44.675 -21.057   4.264  1.00  0.00     0.031 A 
ENDBRANCH   3  28
TORSDOF 6
ENDMDL
MODEL 2
REMARK VINA RESULT:      -9.0      1.604      2.104
REMARK  6 active torsions:
REMARK  status: ('A' for Active; 'I' for Inactive)
REMARK    1  A    between atoms: O_2  and  C_3 
REMARK    2  A    between atoms: C_4  and  C_5 
REMARK    3  A    between atoms: N_7  and  C_8 
REMARK    4  A    between atoms: C_15  and  C_16 
REMARK       I    between atoms: C_16  and  N_17 
REMARK    5  A    between atoms: N_17  and  N_18 
REMARK       I    between atoms: N_18  and  C_19 
REMARK    6  A    between atoms: C_19  and  C_20 
ROOT
HETATM    1  C   UNL     1      42.299 -16.134   2.911  1.00  0.00     0.107 A 
HETATM    2  N   UNL     1      42.440 -17.376   2.425  1.00  0.00    -0.166 NA
HETATM    3  N   UNL     1      43.354 -17.979   3.211  1.00  0.00    -0.244 N 
HETATM    4  C   UNL     1      43.874 -17.100   4.132  1.00  0.00     0.138 A 
HETATM    5  C   UNL     1      43.213 -15.892   3.982  1.00  0.00     0.082 A 
ENDROOT
BRANCH   5   6
HETATM    6  C   UNL     1      43.405 -14.674   4.759  1.00  0.00     0.274 C 
HETATM    7  N   UNL     1      42.911 -14.711   6.050  1.00  0.00    -0.263 N 
HETATM    8  H   UNL     1      42.520 -15.541   6.486  1.00  0.00     0.190 HD
HETATM    9  O   UNL     1      43.978 -13.674   4.329  1.00  0.00    -0.266 OA
BRANCH   7  10
HETATM   10  N   UNL     1      43.159 -13.626   6.899  1.00  0.00    -0.262 N 
HETATM   11  C   UNL     1      44.240 -13.689   7.754  1.00  0.00     0.286 C 
HETATM   12  O   UNL     1      44.945 -14.695   7.825  1.00  0.00    -0.264 OA
HETATM   13  H   UNL     1      42.592 -12.794   6.762  1.00  0.00     0.190 HD
BRANCH  11  14
HETATM   14  C   UNL     1      44.485 -12.504   8.545  1.00  0.00     0.102 A 
HETATM   15  N   UNL     1      43.444 -11.732   9.021  1.00  0.00    -0.361 N 
HETATM   16  H   UNL     1      42.467 -11.939   8.850  1.00  0.00     0.165 HD
HETATM   17  C   UNL     1      43.927 -10.671   9.735  1.00  0.00     0.088 A 
HETATM   18  C   UNL     1      45.300 -10.749   9.731  1.00  0.00     0.019 A 
HETATM   19  C   UNL     1      45.653 -11.900   8.983  1.00  0.00     0.036 A 
ENDBRANCH  11  14
ENDBRANCH   7  10
ENDBRANCH   5   6
BRANCH   1  20
HETATM   20  C   UNL     1      41.318 -15.228   2.315  1.00  0.00     0.029 A 
HETATM   21  C   UNL     1      40.242 -14.717   3.060  1.00  0.00     0.080 A 
HETATM   22  C   UNL     1      39.325 -13.836   2.477  1.00  0.00     0.037 A 
HETATM   23  C   UNL     1      39.450 -13.489   1.132  1.00  0.00     0.003 A 
HETATM   24  C   UNL     1      40.496 -14.011   0.375  1.00  0.00     0.001 A 
HETATM   25  C   UNL     1      41.425 -14.876   0.962  1.00  0.00     0.017 A 
BRANCH  21  26
HETATM   26  O   UNL     1      40.115 -15.003   4.397  1.00  0.00    -0.355 OA
HETATM   27  C   UNL     1      39.694 -13.839   5.110  1.00  0.00     0.210 C 
ENDBRANCH  21  26
ENDBRANCH   1  20
BRANCH   3  28
HETATM   28  C   UNL     1      43.673 -19.356   3.033  1.00  0.00     0.058 A 
HETATM   29  C   UNL     1      44.416 -20.022   4.021  1.00  0.00     0.031 A 
HETATM   30  C   UNL     1      44.756 -21.367   3.862  1.00  0.00     0.002 A 
HETATM   31  C   UNL     1      44.358 -22.056   2.719  1.00  0.00     0.000 A 
HETATM   32  C   UNL     1      43.618 -21.404   1.734  1.00  0.00     0.002 A 
HETATM   33  C   UNL     1      43.275 -20.057   1.886  1.00  0.00     0.031 A 
ENDBRANCH   3  28
TORSDOF 6
ENDMDL
MODEL 3
REMARK VINA RESULT:      -8.7      4.522      8.115
REMARK  6 active torsions:
REMARK  status: ('A' for Active; 'I' for Inactive)
REMARK    1  A    between atoms: O_2  and  C_3 
REMARK    2  A    between atoms: C_4  and  C_5 
REMARK    3  A    between atoms: N_7  and  C_8 
REMARK    4  A    between atoms: C_15  and  C_16 
REMARK       I    between atoms: C_16  and  N_17 
REMARK    5  A    between atoms: N_17  and  N_18 
REMARK       I    between atoms: N_18  and  C_19 
REMARK    6  A    between atoms: C_19  and  C_20 
ROOT
HETATM    1  C   UNL     1      41.395 -15.689   3.336  1.00  0.00     0.107 A 
HETATM    2  N   UNL     1      42.236 -16.632   3.785  1.00  0.00    -0.166 NA
HETATM    3  N   UNL     1      42.201 -17.623   2.872  1.00  0.00    -0.244 N 
HETATM    4  C   UNL     1      41.266 -17.366   1.896  1.00  0.00     0.138 A 
HETATM    5  C   UNL     1      40.723 -16.117   2.151  1.00  0.00     0.082 A 
ENDROOT
BRANCH   5   6
HETATM    6  C   UNL     1      39.716 -15.411   1.369  1.00  0.00     0.274 C 
HETATM    7  N   UNL     1      40.090 -15.087   0.077  1.00  0.00    -0.263 N 
HETATM    8  H   UNL     1      40.960 -15.384  -0.355  1.00  0.00     0.190 HD
HETATM    9  O   UNL     1      38.598 -15.127   1.793  1.00  0.00    -0.266 OA
BRANCH   7  10
HETATM   10  N   UNL     1      39.140 -14.514  -0.777  1.00  0.00    -0.262 N 
HETATM   11  C   UNL     1      39.285 -14.687  -2.138  1.00  0.00     0.286 C 
HETATM   12  O   UNL     1      40.258 -15.276  -2.610  1.00  0.00    -0.264 OA
HETATM   13  H   UNL     1      38.324 -14.093  -0.343  1.00  0.00     0.190 HD
BRANCH  11  14
HETATM   14  C   UNL     1      38.229 -14.139  -2.957  1.00  0.00     0.102 A 
HETATM   15  N   UNL     1      37.415 -14.954  -3.718  1.00  0.00    -0.361 N 
HETATM   16  H   UNL     1      37.504 -15.964  -3.750  1.00  0.00     0.165 HD
HETATM   17  C   UNL     1      36.499 -14.207  -4.404  1.00  0.00     0.088 A 
HETATM   18  C   UNL     1      36.712 -12.886  -4.088  1.00  0.00     0.019 A 
HETATM   19  C   UNL     1      37.799 -12.839  -3.180  1.00  0.00     0.036 A 
ENDBRANCH  11  14
ENDBRANCH   7  10
ENDBRANCH   5   6
BRANCH   1  20
HETATM   20  C   UNL     1      41.251 -14.435   4.075  1.00  0.00     0.029 A 
HETATM   21  C   UNL     1      41.966 -13.282   3.710  1.00  0.00     0.080 A 
HETATM   22  C   UNL     1      41.801 -12.086   4.417  1.00  0.00     0.037 A 
HETATM   23  C   UNL     1      40.950 -12.041   5.520  1.00  0.00     0.003 A 
HETATM   24  C   UNL     1      40.257 -13.184   5.909  1.00  0.00     0.001 A 
HETATM   25  C   UNL     1      40.406 -14.375   5.192  1.00  0.00     0.017 A 
BRANCH  21  26
HETATM   26  O   UNL     1      42.778 -13.280   2.602  1.00  0.00    -0.355 OA
HETATM   27  C   UNL     1      42.159 -12.548   1.542  1.00  0.00     0.210 C 
ENDBRANCH  21  26
ENDBRANCH   1  20
BRANCH   3  28
HETATM   28  C   UNL     1      43.061 -18.752   2.987  1.00  0.00     0.058 A 
HETATM   29  C   UNL     1      43.069 -19.718   1.968  1.00  0.00     0.031 A 
HETATM   30  C   UNL     1      43.890 -20.842   2.067  1.00  0.00     0.002 A 
HETATM   31  C   UNL     1      44.711 -21.011   3.180  1.00  0.00     0.000 A 
HETATM   32  C   UNL     1      44.712 -20.056   4.195  1.00  0.00     0.002 A 
HETATM   33  C   UNL     1      43.891 -18.929   4.104  1.00  0.00     0.031 A 
ENDBRANCH   3  28
TORSDOF 6
ENDMDL
MODEL 4
REMARK VINA RESULT:      -8.5      3.209      4.221
REMARK  6 active torsions:
REMARK  status: ('A' for Active; 'I' for Inactive)
REMARK    1  A    between atoms: O_2  and  C_3 
REMARK    2  A    between atoms: C_4  and  C_5 
REMARK    3  A    between atoms: N_7  and  C_8 
REMARK    4  A    between atoms: C_15  and  C_16 
REMARK       I    between atoms: C_16  and  N_17 
REMARK    5  A    between atoms: N_17  and  N_18 
REMARK       I    between atoms: N_18  and  C_19 
REMARK    6  A    between atoms: C_19  and  C_20 
ROOT
HETATM    1  C   UNL     1      41.390 -15.480   2.693  1.00  0.00     0.107 A 
HETATM    2  N   UNL     1      41.851 -16.661   2.255  1.00  0.00    -0.166 NA
HETATM    3  N   UNL     1      42.698 -17.101   3.207  1.00  0.00    -0.244 N 
HETATM    4  C   UNL     1      42.860 -16.163   4.200  1.00  0.00     0.138 A 
HETATM    5  C   UNL     1      42.024 -15.097   3.914  1.00  0.00     0.082 A 
ENDROOT
BRANCH   5   6
HETATM    6  C   UNL     1      41.833 -13.884   4.699  1.00  0.00     0.274 C 
HETATM    7  N   UNL     1      40.979 -14.008   5.780  1.00  0.00    -0.263 N 
HETATM    8  H   UNL     1      40.570 -14.886   6.085  1.00  0.00     0.190 HD
HETATM    9  O   UNL     1      42.392 -12.818   4.454  1.00  0.00    -0.266 OA
BRANCH   7  10
HETATM   10  N   UNL     1      40.833 -12.923   6.653  1.00  0.00    -0.262 N 
HETATM   11  C   UNL     1      39.594 -12.331   6.772  1.00  0.00     0.286 C 
HETATM   12  O   UNL     1      38.639 -12.696   6.085  1.00  0.00    -0.264 OA
HETATM   13  H   UNL     1      41.628 -12.697   7.244  1.00  0.00     0.190 HD
BRANCH  11  14
HETATM   14  C   UNL     1      39.494 -11.269   7.747  1.00  0.00     0.102 A 
HETATM   15  N   UNL     1      39.387 -11.543   9.096  1.00  0.00    -0.361 N 
HETATM   16  H   UNL     1      39.372 -12.482   9.479  1.00  0.00     0.165 HD
HETATM   17  C   UNL     1      39.305 -10.382   9.813  1.00  0.00     0.088 A 
HETATM   18  C   UNL     1      39.361  -9.334   8.925  1.00  0.00     0.019 A 
HETATM   19  C   UNL     1      39.479  -9.888   7.626  1.00  0.00     0.036 A 
ENDBRANCH  11  14
ENDBRANCH   7  10
ENDBRANCH   5   6
BRANCH   1  20
HETATM   20  C   UNL     1      40.385 -14.759   1.911  1.00  0.00     0.029 A 
HETATM   21  C   UNL     1      40.731 -13.666   1.099  1.00  0.00     0.080 A 
HETATM   22  C   UNL     1      39.759 -13.002   0.344  1.00  0.00     0.037 A 
HETATM   23  C   UNL     1      38.424 -13.398   0.424  1.00  0.00     0.003 A 
HETATM   24  C   UNL     1      38.064 -14.462   1.247  1.00  0.00     0.001 A 
HETATM   25  C   UNL     1      39.037 -15.139   1.987  1.00  0.00     0.017 A 
BRANCH  21  26
HETATM   26  O   UNL     1      42.042 -13.279   0.964  1.00  0.00    -0.355 OA
HETATM   27  C   UNL     1      42.125 -11.856   0.872  1.00  0.00     0.210 C 
ENDBRANCH  21  26
ENDBRANCH   1  20
BRANCH   3  28
HETATM   28  C   UNL     1      43.299 -18.389   3.108  1.00  0.00     0.058 A 
HETATM   29  C   UNL     1      43.004 -19.203   2.002  1.00  0.00     0.031 A 
HETATM   30  C   UNL     1      43.567 -20.475   1.893  1.00  0.00     0.002 A 
HETATM   31  C   UNL     1      44.428 -20.945   2.882  1.00  0.00     0.000 A 
HETATM   32  C   UNL     1      44.729 -20.143   3.982  1.00  0.00     0.002 A 
HETATM   33  C   UNL     1      44.168 -18.868   4.100  1.00  0.00     0.031 A 
ENDBRANCH   3  28
TORSDOF 6
ENDMDL
MODEL 5
REMARK VINA RESULT:      -8.3      4.396      7.424
REMARK  6 active torsions:
REMARK  status: ('A' for Active; 'I' for Inactive)
REMARK    1  A    between atoms: O_2  and  C_3 
REMARK    2  A    between atoms: C_4  and  C_5 
REMARK    3  A    between atoms: N_7  and  C_8 
REMARK    4  A    between atoms: C_15  and  C_16 
REMARK       I    between atoms: C_16  and  N_17 
REMARK    5  A    between atoms: N_17  and  N_18 
REMARK       I    between atoms: N_18  and  C_19 
REMARK    6  A    between atoms: C_19  and  C_20 
ROOT
HETATM    1  C   UNL     1      41.945 -15.642   2.273  1.00  0.00     0.107 A 
HETATM    2  N   UNL     1      42.354 -16.650   3.057  1.00  0.00    -0.166 NA
HETATM    3  N   UNL     1      42.847 -17.588   2.224  1.00  0.00    -0.244 N 
HETATM    4  C   UNL     1      42.663 -17.231   0.908  1.00  0.00     0.138 A 
HETATM    5  C   UNL     1      42.090 -15.970   0.890  1.00  0.00     0.082 A 
ENDROOT
BRANCH   5   6
HETATM    6  C   UNL     1      41.740 -15.172  -0.278  1.00  0.00     0.274 C 
HETATM    7  N   UNL     1      42.489 -14.023  -0.454  1.00  0.00    -0.263 N 
HETATM    8  H   UNL     1      43.290 -13.772   0.118  1.00  0.00     0.190 HD
HETATM    9  O   UNL     1      40.860 -15.482  -1.077  1.00  0.00    -0.266 OA
BRANCH   7  10
HETATM   10  N   UNL     1      42.296 -13.263  -1.614  1.00  0.00    -0.262 N 
HETATM   11  C   UNL     1      42.720 -11.950  -1.623  1.00  0.00     0.286 C 
HETATM   12  O   UNL     1      43.202 -11.424  -0.620  1.00  0.00    -0.264 OA
HETATM   13  H   UNL     1      41.954 -13.754  -2.436  1.00  0.00     0.190 HD
BRANCH  11  14
HETATM   14  C   UNL     1      42.563 -11.248  -2.876  1.00  0.00     0.102 A 
HETATM   15  N   UNL     1      42.351 -11.928  -4.058  1.00  0.00    -0.361 N 
HETATM   16  H   UNL     1      42.293 -12.938  -4.122  1.00  0.00     0.165 HD
HETATM   17  C   UNL     1      42.238 -11.050  -5.100  1.00  0.00     0.088 A 
HETATM   18  C   UNL     1      42.375  -9.778  -4.596  1.00  0.00     0.019 A 
HETATM   19  C   UNL     1      42.581  -9.899  -3.198  1.00  0.00     0.036 A 
ENDBRANCH  11  14
ENDBRANCH   7  10
ENDBRANCH   5   6
BRANCH   1  20
HETATM   20  C   UNL     1      41.412 -14.422   2.879  1.00  0.00     0.029 A 
HETATM   21  C   UNL     1      40.039 -14.127   2.849  1.00  0.00     0.080 A 
HETATM   22  C   UNL     1      39.546 -12.964   3.451  1.00  0.00     0.037 A 
HETATM   23  C   UNL     1      40.425 -12.066   4.055  1.00  0.00     0.003 A 
HETATM   24  C   UNL     1      41.791 -12.334   4.067  1.00  0.00     0.001 A 
HETATM   25  C   UNL     1      42.284 -13.504   3.482  1.00  0.00     0.017 A 
BRANCH  21  26
HETATM   26  O   UNL     1      39.143 -15.010   2.301  1.00  0.00    -0.355 OA
HETATM   27  C   UNL     1      38.368 -14.361   1.291  1.00  0.00     0.210 C 
ENDBRANCH  21  26
ENDBRANCH   1  20
BRANCH   3  28
HETATM   28  C   UNL     1      43.463 -18.766   2.736  1.00  0.00     0.058 A 
HETATM   29  C   UNL     1      43.568 -19.900   1.914  1.00  0.00     0.031 A 
HETATM   30  C   UNL     1      44.152 -21.072   2.399  1.00  0.00     0.002 A 
HETATM   31  C   UNL     1      44.636 -21.122   3.704  1.00  0.00     0.000 A 
HETATM   32  C   UNL     1      44.538 -20.001   4.526  1.00  0.00     0.002 A 
HETATM   33  C   UNL     1      43.954 -18.824   4.049  1.00  0.00     0.031 A 
ENDBRANCH   3  28
TORSDOF 6
ENDMDL
MODEL 6
REMARK VINA RESULT:      -8.0      3.943      7.135
REMARK  6 active torsions:
REMARK  status: ('A' for Active; 'I' for Inactive)
REMARK    1  A    between atoms: O_2  and  C_3 
REMARK    2  A    between atoms: C_4  and  C_5 
REMARK    3  A    between atoms: N_7  and  C_8 
REMARK    4  A    between atoms: C_15  and  C_16 
REMARK       I    between atoms: C_16  and  N_17 
REMARK    5  A    between atoms: N_17  and  N_18 
REMARK       I    between atoms: N_18  and  C_19 
REMARK    6  A    between atoms: C_19  and  C_20 
ROOT
HETATM    1  C   UNL     1      42.202 -16.220   2.960  1.00  0.00     0.107 A 
HETATM    2  N   UNL     1      42.707 -17.333   3.512  1.00  0.00    -0.166 NA
HETATM    3  N   UNL     1      42.832 -18.220   2.504  1.00  0.00    -0.244 N 
HETATM    4  C   UNL     1      42.315 -17.717   1.333  1.00  0.00     0.138 A 
HETATM    5  C   UNL     1      41.902 -16.418   1.578  1.00  0.00     0.082 A 
ENDROOT
BRANCH   5   6
HETATM    6  C   UNL     1      41.319 -15.479   0.628  1.00  0.00     0.274 C 
HETATM    7  N   UNL     1      42.147 -15.096  -0.410  1.00  0.00    -0.263 N 
HETATM    8  H   UNL     1      43.069 -15.490  -0.578  1.00  0.00     0.190 HD
HETATM    9  O   UNL     1      40.168 -15.055   0.708  1.00  0.00    -0.266 OA
BRANCH   7  10
HETATM   10  N   UNL     1      41.625 -14.289  -1.429  1.00  0.00    -0.262 N 
HETATM   11  C   UNL     1      41.952 -12.949  -1.445  1.00  0.00     0.286 C 
HETATM   12  O   UNL     1      42.636 -12.444  -0.555  1.00  0.00    -0.264 OA
HETATM   13  H   UNL     1      41.119 -14.759  -2.175  1.00  0.00     0.190 HD
BRANCH  11  14
HETATM   14  C   UNL     1      41.445 -12.192  -2.567  1.00  0.00     0.102 A 
HETATM   15  N   UNL     1      40.126 -11.787  -2.621  1.00  0.00    -0.361 N 
HETATM   16  H   UNL     1      39.446 -11.989  -1.897  1.00  0.00     0.165 HD
HETATM   17  C   UNL     1      39.889 -11.092  -3.775  1.00  0.00     0.088 A 
HETATM   18  C   UNL     1      41.065 -11.039  -4.484  1.00  0.00     0.019 A 
HETATM   19  C   UNL     1      42.045 -11.730  -3.728  1.00  0.00     0.036 A 
ENDBRANCH  11  14
ENDBRANCH   7  10
ENDBRANCH   5   6
BRANCH   1  20
HETATM   20  C   UNL     1      42.005 -15.027   3.784  1.00  0.00     0.029 A 
HETATM   21  C   UNL     1      41.107 -15.022   4.865  1.00  0.00     0.080 A 
HETATM   22  C   UNL     1      40.947 -13.877   5.653  1.00  0.00     0.037 A 
HETATM   23  C   UNL     1      41.652 -12.715   5.345  1.00  0.00     0.003 A 
HETATM   24  C   UNL     1      42.524 -12.699   4.260  1.00  0.00     0.001 A 
HETATM   25  C   UNL     1      42.700 -13.847   3.482  1.00  0.00     0.017 A 
BRANCH  21  26
HETATM   26  O   UNL     1      40.431 -16.162   5.222  1.00  0.00    -0.355 OA
HETATM   27  C   UNL     1      40.915 -16.647   6.477  1.00  0.00     0.210 C 
ENDBRANCH  21  26
ENDBRANCH   1  20
BRANCH   3  28
HETATM   28  C   UNL     1      43.437 -19.491   2.723  1.00  0.00     0.058 A 
HETATM   29  C   UNL     1      44.219 -19.692   3.871  1.00  0.00     0.031 A 
HETATM   30  C   UNL     1      44.837 -20.923   4.098  1.00  0.00     0.002 A 
HETATM   31  C   UNL     1      44.678 -21.962   3.185  1.00  0.00     0.000 A 
HETATM   32  C   UNL     1      43.900 -21.773   2.043  1.00  0.00     0.002 A 
HETATM   33  C   UNL     1      43.280 -20.543   1.808  1.00  0.00     0.031 A 
ENDBRANCH   3  28
TORSDOF 6
ENDMDL
MODEL 7
REMARK VINA RESULT:      -7.9      4.155      7.614
REMARK  6 active torsions:
REMARK  status: ('A' for Active; 'I' for Inactive)
REMARK    1  A    between atoms: O_2  and  C_3 
REMARK    2  A    between atoms: C_4  and  C_5 
REMARK    3  A    between atoms: N_7  and  C_8 
REMARK    4  A    between atoms: C_15  and  C_16 
REMARK       I    between atoms: C_16  and  N_17 
REMARK    5  A    between atoms: N_17  and  N_18 
REMARK       I    between atoms: N_18  and  C_19 
REMARK    6  A    between atoms: C_19  and  C_20 
ROOT
HETATM    1  C   UNL     1      42.269 -16.582   3.249  1.00  0.00     0.107 A 
HETATM    2  N   UNL     1      43.032 -17.614   3.638  1.00  0.00    -0.166 NA
HETATM    3  N   UNL     1      42.801 -18.599   2.747  1.00  0.00    -0.244 N 
HETATM    4  C   UNL     1      41.819 -18.240   1.853  1.00  0.00     0.138 A 
HETATM    5  C   UNL     1      41.450 -16.935   2.134  1.00  0.00     0.082 A 
ENDROOT
BRANCH   5   6
HETATM    6  C   UNL     1      40.466 -16.121   1.431  1.00  0.00     0.274 C 
HETATM    7  N   UNL     1      40.824 -15.734   0.153  1.00  0.00    -0.263 N 
HETATM    8  H   UNL     1      41.663 -16.051  -0.324  1.00  0.00     0.190 HD
HETATM    9  O   UNL     1      39.380 -15.802   1.908  1.00  0.00    -0.266 OA
BRANCH   7  10
HETATM   10  N   UNL     1      39.888 -15.050  -0.632  1.00  0.00    -0.262 N 
HETATM   11  C   UNL     1      40.007 -15.109  -2.005  1.00  0.00     0.286 C 
HETATM   12  O   UNL     1      40.947 -15.694  -2.544  1.00  0.00    -0.264 OA
HETATM   13  H   UNL     1      39.096 -14.636  -0.150  1.00  0.00     0.190 HD
BRANCH  11  14
HETATM   14  C   UNL     1      38.964 -14.449  -2.756  1.00  0.00     0.102 A 
HETATM   15  N   UNL     1      37.889 -15.154  -3.260  1.00  0.00    -0.361 N 
HETATM   16  H   UNL     1      37.765 -16.153  -3.140  1.00  0.00     0.165 HD
HETATM   17  C   UNL     1      37.042 -14.315  -3.932  1.00  0.00     0.088 A 
HETATM   18  C   UNL     1      37.567 -13.046  -3.865  1.00  0.00     0.019 A 
HETATM   19  C   UNL     1      38.775 -13.127  -3.127  1.00  0.00     0.036 A 
ENDBRANCH  11  14
ENDBRANCH   7  10
ENDBRANCH   5   6
BRANCH   1  20
HETATM   20  C   UNL     1      42.338 -15.315   3.977  1.00  0.00     0.029 A 
HETATM   21  C   UNL     1      42.153 -15.257   5.369  1.00  0.00     0.080 A 
HETATM   22  C   UNL     1      42.241 -14.038   6.050  1.00  0.00     0.037 A 
HETATM   23  C   UNL     1      42.476 -12.860   5.342  1.00  0.00     0.003 A 
HETATM   24  C   UNL     1      42.633 -12.901   3.959  1.00  0.00     0.001 A 
HETATM   25  C   UNL     1      42.564 -14.121   3.279  1.00  0.00     0.017 A 
BRANCH  21  26
HETATM   26  O   UNL     1      41.964 -16.403   6.101  1.00  0.00    -0.355 OA
HETATM   27  C   UNL     1      40.571 -16.603   6.350  1.00  0.00     0.210 C 
ENDBRANCH  21  26
ENDBRANCH   1  20
BRANCH   3  28
HETATM   28  C   UNL     1      43.531 -19.821   2.805  1.00  0.00     0.058 A 
HETATM   29  C   UNL     1      43.451 -20.722   1.731  1.00  0.00     0.031 A 
HETATM   30  C   UNL     1      44.144 -21.933   1.773  1.00  0.00     0.002 A 
HETATM   31  C   UNL     1      44.922 -22.255   2.883  1.00  0.00     0.000 A 
HETATM   32  C   UNL     1      45.010 -21.365   3.952  1.00  0.00     0.002 A 
HETATM   33  C   UNL     1      44.318 -20.151   3.919  1.00  0.00     0.031 A 
ENDBRANCH   3  28
TORSDOF 6
ENDMDL
MODEL 8
REMARK VINA RESULT:      -7.9      3.297      5.626
REMARK  6 active torsions:
REMARK  status: ('A' for Active; 'I' for Inactive)
REMARK    1  A    between atoms: O_2  and  C_3 
REMARK    2  A    between atoms: C_4  and  C_5 
REMARK    3  A    between atoms: N_7  and  C_8 
REMARK    4  A    between atoms: C_15  and  C_16 
REMARK       I    between atoms: C_16  and  N_17 
REMARK    5  A    between atoms: N_17  and  N_18 
REMARK       I    between atoms: N_18  and  C_19 
REMARK    6  A    between atoms: C_19  and  C_20 
ROOT
HETATM    1  C   UNL     1      42.244 -16.003   1.933  1.00  0.00     0.107 A 
HETATM    2  N   UNL     1      41.431 -16.122   0.872  1.00  0.00    -0.166 NA
HETATM    3  N   UNL     1      41.142 -14.864   0.486  1.00  0.00    -0.244 N 
HETATM    4  C   UNL     1      41.681 -13.942   1.354  1.00  0.00     0.138 A 
HETATM    5  C   UNL     1      42.413 -14.635   2.304  1.00  0.00     0.082 A 
ENDROOT
BRANCH   5   6
HETATM    6  C   UNL     1      43.185 -14.078   3.407  1.00  0.00     0.274 C 
HETATM    7  N   UNL     1      42.528 -14.025   4.622  1.00  0.00    -0.263 N 
HETATM    8  H   UNL     1      41.606 -14.420   4.789  1.00  0.00     0.190 HD
HETATM    9  O   UNL     1      44.347 -13.693   3.300  1.00  0.00    -0.266 OA
BRANCH   7  10
HETATM   10  N   UNL     1      43.238 -13.615   5.757  1.00  0.00    -0.262 N 
HETATM   11  C   UNL     1      42.679 -12.655   6.576  1.00  0.00     0.286 C 
HETATM   12  O   UNL     1      41.608 -12.116   6.295  1.00  0.00    -0.264 OA
HETATM   13  H   UNL     1      44.084 -14.130   5.984  1.00  0.00     0.190 HD
BRANCH  11  14
HETATM   14  C   UNL     1      43.426 -12.335   7.770  1.00  0.00     0.102 A 
HETATM   15  N   UNL     1      43.009 -11.341   8.632  1.00  0.00    -0.361 N 
HETATM   16  H   UNL     1      42.174 -10.785   8.486  1.00  0.00     0.165 HD
HETATM   17  C   UNL     1      43.878 -11.225   9.682  1.00  0.00     0.088 A 
HETATM   18  C   UNL     1      44.874 -12.156   9.509  1.00  0.00     0.019 A 
HETATM   19  C   UNL     1      44.594 -12.855   8.308  1.00  0.00     0.036 A 
ENDBRANCH  11  14
ENDBRANCH   7  10
ENDBRANCH   5   6
BRANCH   1  20
HETATM   20  C   UNL     1      42.801 -17.203   2.558  1.00  0.00     0.029 A 
HETATM   21  C   UNL     1      42.395 -17.620   3.837  1.00  0.00     0.080 A 
HETATM   22  C   UNL     1      42.925 -18.781   4.410  1.00  0.00     0.037 A 
HETATM   23  C   UNL     1      43.895 -19.515   3.728  1.00  0.00     0.003 A 
HETATM   24  C   UNL     1      44.325 -19.096   2.471  1.00  0.00     0.001 A 
HETATM   25  C   UNL     1      43.783 -17.947   1.889  1.00  0.00     0.017 A 
BRANCH  21  26
HETATM   26  O   UNL     1      41.411 -16.946   4.516  1.00  0.00    -0.355 OA
HETATM   27  C   UNL     1      41.552 -17.158   5.922  1.00  0.00     0.210 C 
ENDBRANCH  21  26
ENDBRANCH   1  20
BRANCH   3  28
HETATM   28  C   UNL     1      40.371 -14.620  -0.686  1.00  0.00     0.058 A 
HETATM   29  C   UNL     1      40.838 -15.085  -1.926  1.00  0.00     0.031 A 
HETATM   30  C   UNL     1      40.108 -14.843  -3.091  1.00  0.00     0.002 A 
HETATM   31  C   UNL     1      38.908 -14.138  -3.029  1.00  0.00     0.000 A 
HETATM   32  C   UNL     1      38.435 -13.676  -1.803  1.00  0.00     0.002 A 
HETATM   33  C   UNL     1      39.160 -13.913  -0.632  1.00  0.00     0.031 A 
ENDBRANCH   3  28
TORSDOF 6
ENDMDL
MODEL 9
REMARK VINA RESULT:      -7.8      3.610      6.877
REMARK  6 active torsions:
REMARK  status: ('A' for Active; 'I' for Inactive)
REMARK    1  A    between atoms: O_2  and  C_3 
REMARK    2  A    between atoms: C_4  and  C_5 
REMARK    3  A    between atoms: N_7  and  C_8 
REMARK    4  A    between atoms: C_15  and  C_16 
REMARK       I    between atoms: C_16  and  N_17 
REMARK    5  A    between atoms: N_17  and  N_18 
REMARK       I    between atoms: N_18  and  C_19 
REMARK    6  A    between atoms: C_19  and  C_20 
ROOT
HETATM    1  C   UNL     1      42.592 -16.847   2.984  1.00  0.00     0.107 A 
HETATM    2  N   UNL     1      43.143 -17.878   3.642  1.00  0.00    -0.166 NA
HETATM    3  N   UNL     1      43.164 -18.904   2.768  1.00  0.00    -0.244 N 
HETATM    4  C   UNL     1      42.538 -18.567   1.591  1.00  0.00     0.138 A 
HETATM    5  C   UNL     1      42.159 -17.238   1.681  1.00  0.00     0.082 A 
ENDROOT
BRANCH   5   6
HETATM    6  C   UNL     1      41.491 -16.435   0.664  1.00  0.00     0.274 C 
HETATM    7  N   UNL     1      40.261 -15.920   1.031  1.00  0.00    -0.263 N 
HETATM    8  H   UNL     1      39.865 -16.000   1.964  1.00  0.00     0.190 HD
HETATM    9  O   UNL     1      41.970 -16.200  -0.443  1.00  0.00    -0.266 OA
BRANCH   7  10
HETATM   10  N   UNL     1      39.609 -15.042   0.157  1.00  0.00    -0.262 N 
HETATM   11  C   UNL     1      38.600 -14.243   0.653  1.00  0.00     0.286 C 
HETATM   12  O   UNL     1      38.226 -14.332   1.823  1.00  0.00    -0.264 OA
HETATM   13  H   UNL     1      39.990 -14.956  -0.781  1.00  0.00     0.190 HD
BRANCH  11  14
HETATM   14  C   UNL     1      38.023 -13.305  -0.283  1.00  0.00     0.102 A 
HETATM   15  N   UNL     1      38.082 -13.523  -1.645  1.00  0.00    -0.361 N 
HETATM   16  H   UNL     1      38.522 -14.334  -2.066  1.00  0.00     0.165 HD
HETATM   17  C   UNL     1      37.473 -12.500  -2.318  1.00  0.00     0.088 A 
HETATM   18  C   UNL     1      37.007 -11.602  -1.387  1.00  0.00     0.019 A 
HETATM   19  C   UNL     1      37.352 -12.105  -0.107  1.00  0.00     0.036 A 
ENDBRANCH  11  14
ENDBRANCH   7  10
ENDBRANCH   5   6
BRANCH   1  20
HETATM   20  C   UNL     1      42.482 -15.545   3.640  1.00  0.00     0.029 A 
HETATM   21  C   UNL     1      41.492 -15.289   4.604  1.00  0.00     0.080 A 
HETATM   22  C   UNL     1      41.415 -14.042   5.234  1.00  0.00     0.037 A 
HETATM   23  C   UNL     1      42.301 -13.026   4.879  1.00  0.00     0.003 A 
HETATM   24  C   UNL     1      43.269 -13.258   3.905  1.00  0.00     0.001 A 
HETATM   25  C   UNL     1      43.360 -14.509   3.288  1.00  0.00     0.017 A 
BRANCH  21  26
HETATM   26  O   UNL     1      40.633 -16.280   5.008  1.00  0.00    -0.355 OA
HETATM   27  C   UNL     1      40.944 -16.685   6.343  1.00  0.00     0.210 C 
ENDBRANCH  21  26
ENDBRANCH   1  20
BRANCH   3  28
HETATM   28  C   UNL     1      43.781 -20.142   3.112  1.00  0.00     0.058 A 
HETATM   29  C   UNL     1      44.324 -20.306   4.396  1.00  0.00     0.031 A 
HETATM   30  C   UNL     1      44.949 -21.503   4.750  1.00  0.00     0.002 A 
HETATM   31  C   UNL     1      45.035 -22.545   3.829  1.00  0.00     0.000 A 
HETATM   32  C   UNL     1      44.496 -22.391   2.553  1.00  0.00     0.002 A 
HETATM   33  C   UNL     1      43.870 -21.195   2.190  1.00  0.00     0.031 A 
ENDBRANCH   3  28
TORSDOF 6
ENDMDL
MODEL 10
REMARK VINA RESULT:      -7.6      3.950      8.292
REMARK  6 active torsions:
REMARK  status: ('A' for Active; 'I' for Inactive)
REMARK    1  A    between atoms: O_2  and  C_3 
REMARK    2  A    between atoms: C_4  and  C_5 
REMARK    3  A    between atoms: N_7  and  C_8 
REMARK    4  A    between atoms: C_15  and  C_16 
REMARK       I    between atoms: C_16  and  N_17 
REMARK    5  A    between atoms: N_17  and  N_18 
REMARK       I    between atoms: N_18  and  C_19 
REMARK    6  A    between atoms: C_19  and  C_20 
ROOT
HETATM    1  C   UNL     1      41.819 -14.246   1.335  1.00  0.00     0.107 A 
HETATM    2  N   UNL     1      41.541 -13.142   0.626  1.00  0.00    -0.166 NA
HETATM    3  N   UNL     1      41.232 -13.568  -0.614  1.00  0.00    -0.244 N 
HETATM    4  C   UNL     1      41.409 -14.927  -0.731  1.00  0.00     0.138 A 
HETATM    5  C   UNL     1      41.781 -15.413   0.512  1.00  0.00     0.082 A 
ENDROOT
BRANCH   5   6
HETATM    6  C   UNL     1      42.047 -16.797   0.880  1.00  0.00     0.274 C 
HETATM    7  N   UNL     1      43.384 -17.143   0.950  1.00  0.00    -0.263 N 
HETATM    8  H   UNL     1      44.149 -16.483   0.848  1.00  0.00     0.190 HD
HETATM    9  O   UNL     1      41.167 -17.617   1.134  1.00  0.00    -0.266 OA
BRANCH   7  10
HETATM   10  N   UNL     1      43.728 -18.420   1.411  1.00  0.00    -0.262 N 
HETATM   11  C   UNL     1      43.993 -18.589   2.754  1.00  0.00     0.286 C 
HETATM   12  O   UNL     1      43.993 -17.636   3.534  1.00  0.00    -0.264 OA
HETATM   13  H   UNL     1      43.653 -19.186   0.747  1.00  0.00     0.190 HD
BRANCH  11  14
HETATM   14  C   UNL     1      44.262 -19.945   3.176  1.00  0.00     0.102 A 
HETATM   15  N   UNL     1      44.096 -21.010   2.314  1.00  0.00    -0.361 N 
HETATM   16  H   UNL     1      43.782 -20.914   1.355  1.00  0.00     0.165 HD
HETATM   17  C   UNL     1      44.409 -22.184   2.942  1.00  0.00     0.088 A 
HETATM   18  C   UNL     1      44.788 -21.885   4.229  1.00  0.00     0.019 A 
HETATM   19  C   UNL     1      44.696 -20.479   4.380  1.00  0.00     0.036 A 
ENDBRANCH  11  14
ENDBRANCH   7  10
ENDBRANCH   5   6
BRANCH   1  20
HETATM   20  C   UNL     1      42.132 -14.134   2.759  1.00  0.00     0.029 A 
HETATM   21  C   UNL     1      41.125 -13.944   3.720  1.00  0.00     0.080 A 
HETATM   22  C   UNL     1      41.443 -13.858   5.080  1.00  0.00     0.037 A 
HETATM   23  C   UNL     1      42.775 -13.921   5.489  1.00  0.00     0.003 A 
HETATM   24  C   UNL     1      43.785 -14.081   4.544  1.00  0.00     0.001 A 
HETATM   25  C   UNL     1      43.467 -14.186   3.186  1.00  0.00     0.017 A 
BRANCH  21  26
HETATM   26  O   UNL     1      39.802 -13.922   3.356  1.00  0.00    -0.355 OA
HETATM   27  C   UNL     1      39.238 -12.639   3.634  1.00  0.00     0.210 C 
ENDBRANCH  21  26
ENDBRANCH   1  20
BRANCH   3  28
HETATM   28  C   UNL     1      40.787 -12.652  -1.610  1.00  0.00     0.058 A 
HETATM   29  C   UNL     1      40.252 -11.414  -1.217  1.00  0.00     0.031 A 
HETATM   30  C   UNL     1      39.793 -10.508  -2.173  1.00  0.00     0.002 A 
HETATM   31  C   UNL     1      39.865 -10.826  -3.527  1.00  0.00     0.000 A 
HETATM   32  C   UNL     1      40.396 -12.051  -3.928  1.00  0.00     0.002 A 
HETATM   33  C   UNL     1      40.857 -12.965  -2.976  1.00  0.00     0.031 A 
ENDBRANCH   3  28
TORSDOF 6
ENDMDL
