MODEL 1
REMARK VINA RESULT:      -8.9      0.000      0.000
REMARK  6 active torsions:
REMARK  status: ('A' for Active; 'I' for Inactive)
REMARK    1  A    between atoms: C_2  and  O_3 
REMARK    2  A    between atoms: O_3  and  C_4 
REMARK    3  A    between atoms: C_5  and  O_6 
REMARK    4  A    between atoms: C_9  and  C_10 
REMARK    5  A    between atoms: C_19  and  C_20 
REMARK    6  A    between atoms: C_22  and  O_23 
ROOT
HETATM    1  C   UNL     1      43.594 -17.276   2.033  1.00  0.00     0.156 A 
HETATM    2  N   UNL     1      43.219 -17.088   0.617  1.00  0.00    -0.343 N 
HETATM    3  C   UNL     1      41.935 -16.594   0.424  1.00  0.00     0.271 A 
HETATM    4  O   UNL     1      41.368 -16.395  -0.633  1.00  0.00    -0.266 OA
HETATM    5  C   UNL     1      41.467 -16.381   1.739  1.00  0.00     0.128 A 
HETATM    6  C   UNL     1      42.375 -16.754   2.688  1.00  0.00     0.034 A 
HETATM    7  N   UNL     1      40.397 -15.869   2.363  1.00  0.00    -0.272 N 
HETATM    8  H   UNL     1      39.536 -15.503   1.969  1.00  0.00     0.189 HD
HETATM    9  N   UNL     1      40.589 -15.815   3.703  1.00  0.00    -0.173 NA
HETATM   10  C   UNL     1      41.820 -16.343   3.912  1.00  0.00     0.098 A 
HETATM   11  H   UNL     1      43.780 -17.399  -0.163  1.00  0.00     0.163 HD
ENDROOT
BRANCH   1  12
HETATM   12  C   UNL     1      43.773 -18.741   2.360  1.00  0.00    -0.028 A 
HETATM   13  C   UNL     1      43.666 -19.751   1.382  1.00  0.00     0.012 A 
HETATM   14  C   UNL     1      43.912 -21.085   1.698  1.00  0.00     0.040 A 
HETATM   15  C   UNL     1      44.274 -21.419   2.995  1.00  0.00     0.099 A 
HETATM   16  C   UNL     1      44.382 -20.450   3.996  1.00  0.00     0.102 A 
HETATM   17  C   UNL     1      44.135 -19.113   3.674  1.00  0.00     0.049 A 
BRANCH  15  18
HETATM   18  O   UNL     1      44.530 -22.733   3.275  1.00  0.00    -0.358 OA
HETATM   19  H   UNL     1      43.688 -23.199   3.102  1.00  0.00     0.218 HD
ENDBRANCH  15  18
BRANCH  16  20
HETATM   20  O   UNL     1      44.754 -20.935   5.224  1.00  0.00    -0.349 OA
BRANCH  20  21
HETATM   21  C   UNL     1      44.310 -20.211   6.369  1.00  0.00     0.171 C 
HETATM   22  C   UNL     1      43.582 -21.186   7.277  1.00  0.00     0.034 C 
ENDBRANCH  20  21
ENDBRANCH  16  20
ENDBRANCH   1  12
BRANCH  10  23
HETATM   23  C   UNL     1      42.416 -16.341   5.245  1.00  0.00    -0.002 A 
HETATM   24  C   UNL     1      43.441 -15.422   5.537  1.00  0.00     0.050 A 
HETATM   25  C   UNL     1      44.053 -15.412   6.791  1.00  0.00     0.069 A 
HETATM   26  C   UNL     1      43.635 -16.325   7.760  1.00  0.00     0.037 A 
HETATM   27  C   UNL     1      42.608 -17.229   7.489  1.00  0.00     0.004 A 
HETATM   28  C   UNL     1      41.997 -17.236   6.233  1.00  0.00     0.014 A 
BRANCH  25  29
HETATM   29  O   UNL     1      45.060 -14.575   7.186  1.00  0.00    -0.356 OA
HETATM   30  C   UNL     1      44.674 -13.353   7.806  1.00  0.00     0.210 C 
ENDBRANCH  25  29
ENDBRANCH  10  23
TORSDOF 6
ENDMDL
MODEL 2
REMARK VINA RESULT:      -8.6      1.138      5.455
REMARK  6 active torsions:
REMARK  status: ('A' for Active; 'I' for Inactive)
REMARK    1  A    between atoms: C_2  and  O_3 
REMARK    2  A    between atoms: O_3  and  C_4 
REMARK    3  A    between atoms: C_5  and  O_6 
REMARK    4  A    between atoms: C_9  and  C_10 
REMARK    5  A    between atoms: C_19  and  C_20 
REMARK    6  A    between atoms: C_22  and  O_23 
ROOT
HETATM    1  C   UNL     1      41.109 -17.334   3.452  1.00  0.00     0.156 A 
HETATM    2  N   UNL     1      40.383 -16.166   2.913  1.00  0.00    -0.343 N 
HETATM    3  C   UNL     1      40.954 -15.611   1.773  1.00  0.00     0.271 A 
HETATM    4  O   UNL     1      40.584 -14.625   1.165  1.00  0.00    -0.266 OA
HETATM    5  C   UNL     1      42.043 -16.468   1.505  1.00  0.00     0.128 A 
HETATM    6  C   UNL     1      42.172 -17.462   2.432  1.00  0.00     0.034 A 
HETATM    7  N   UNL     1      42.989 -16.641   0.571  1.00  0.00    -0.272 N 
HETATM    8  H   UNL     1      43.188 -16.085  -0.255  1.00  0.00     0.189 HD
HETATM    9  N   UNL     1      43.704 -17.769   0.800  1.00  0.00    -0.173 NA
HETATM   10  C   UNL     1      43.192 -18.294   1.940  1.00  0.00     0.098 A 
HETATM   11  H   UNL     1      39.610 -15.715   3.381  1.00  0.00     0.163 HD
ENDROOT
BRANCH   1  12
HETATM   12  C   UNL     1      41.717 -17.022   4.801  1.00  0.00    -0.028 A 
HETATM   13  C   UNL     1      41.858 -17.998   5.808  1.00  0.00     0.012 A 
HETATM   14  C   UNL     1      42.491 -17.699   7.013  1.00  0.00     0.040 A 
HETATM   15  C   UNL     1      42.996 -16.424   7.215  1.00  0.00     0.099 A 
HETATM   16  C   UNL     1      42.869 -15.425   6.246  1.00  0.00     0.102 A 
HETATM   17  C   UNL     1      42.233 -15.729   5.040  1.00  0.00     0.049 A 
BRANCH  15  18
HETATM   18  O   UNL     1      43.631 -16.161   8.398  1.00  0.00    -0.358 OA
HETATM   19  H   UNL     1      44.343 -16.828   8.456  1.00  0.00     0.218 HD
ENDBRANCH  15  18
BRANCH  16  20
HETATM   20  O   UNL     1      43.423 -14.219   6.591  1.00  0.00    -0.349 OA
BRANCH  20  21
HETATM   21  C   UNL     1      44.785 -14.002   6.227  1.00  0.00     0.171 C 
HETATM   22  C   UNL     1      45.484 -13.367   7.416  1.00  0.00     0.034 C 
ENDBRANCH  20  21
ENDBRANCH  16  20
ENDBRANCH   1  12
BRANCH  10  23
HETATM   23  C   UNL     1      43.648 -19.591   2.434  1.00  0.00    -0.002 A 
HETATM   24  C   UNL     1      44.063 -19.707   3.773  1.00  0.00     0.050 A 
HETATM   25  C   UNL     1      44.531 -20.924   4.272  1.00  0.00     0.069 A 
HETATM   26  C   UNL     1      44.581 -22.032   3.425  1.00  0.00     0.037 A 
HETATM   27  C   UNL     1      44.155 -21.935   2.100  1.00  0.00     0.004 A 
HETATM   28  C   UNL     1      43.686 -20.716   1.605  1.00  0.00     0.014 A 
BRANCH  25  29
HETATM   29  O   UNL     1      44.968 -21.154   5.547  1.00  0.00    -0.356 OA
HETATM   30  C   UNL     1      43.981 -21.156   6.573  1.00  0.00     0.210 C 
ENDBRANCH  25  29
ENDBRANCH  10  23
TORSDOF 6
ENDMDL
MODEL 3
REMARK VINA RESULT:      -8.2      1.516      5.227
REMARK  6 active torsions:
REMARK  status: ('A' for Active; 'I' for Inactive)
REMARK    1  A    between atoms: C_2  and  O_3 
REMARK    2  A    between atoms: O_3  and  C_4 
REMARK    3  A    between atoms: C_5  and  O_6 
REMARK    4  A    between atoms: C_9  and  C_10 
REMARK    5  A    between atoms: C_19  and  C_20 
REMARK    6  A    between atoms: C_22  and  O_23 
ROOT
HETATM    1  C   UNL     1      40.927 -16.292   4.106  1.00  0.00     0.156 A 
HETATM    2  N   UNL     1      39.881 -15.286   3.831  1.00  0.00    -0.343 N 
HETATM    3  C   UNL     1      39.707 -14.995   2.483  1.00  0.00     0.271 A 
HETATM    4  O   UNL     1      38.952 -14.176   1.993  1.00  0.00    -0.266 OA
HETATM    5  C   UNL     1      40.605 -15.874   1.840  1.00  0.00     0.128 A 
HETATM    6  C   UNL     1      41.321 -16.632   2.722  1.00  0.00     0.034 A 
HETATM    7  N   UNL     1      40.951 -16.239   0.598  1.00  0.00    -0.272 N 
HETATM    8  H   UNL     1      40.623 -15.881  -0.293  1.00  0.00     0.189 HD
HETATM    9  N   UNL     1      41.823 -17.276   0.615  1.00  0.00    -0.173 NA
HETATM   10  C   UNL     1      42.042 -17.539   1.927  1.00  0.00     0.098 A 
HETATM   11  H   UNL     1      39.406 -14.753   4.545  1.00  0.00     0.163 HD
ENDROOT
BRANCH   1  12
HETATM   12  C   UNL     1      42.094 -15.676   4.844  1.00  0.00    -0.028 A 
HETATM   13  C   UNL     1      42.750 -14.517   4.384  1.00  0.00     0.012 A 
HETATM   14  C   UNL     1      43.773 -13.930   5.125  1.00  0.00     0.040 A 
HETATM   15  C   UNL     1      44.143 -14.494   6.337  1.00  0.00     0.099 A 
HETATM   16  C   UNL     1      43.523 -15.648   6.825  1.00  0.00     0.102 A 
HETATM   17  C   UNL     1      42.498 -16.234   6.077  1.00  0.00     0.049 A 
BRANCH  15  18
HETATM   18  O   UNL     1      45.135 -13.887   7.056  1.00  0.00    -0.358 OA
HETATM   19  H   UNL     1      45.099 -12.946   6.795  1.00  0.00     0.218 HD
ENDBRANCH  15  18
BRANCH  16  20
HETATM   20  O   UNL     1      43.994 -16.081   8.038  1.00  0.00    -0.349 OA
BRANCH  20  21
HETATM   21  C   UNL     1      43.389 -17.248   8.590  1.00  0.00     0.171 C 
HETATM   22  C   UNL     1      44.355 -18.404   8.399  1.00  0.00     0.034 C 
ENDBRANCH  20  21
ENDBRANCH  16  20
ENDBRANCH   1  12
BRANCH  10  23
HETATM   23  C   UNL     1      42.853 -18.684   2.333  1.00  0.00    -0.002 A 
HETATM   24  C   UNL     1      43.345 -18.743   3.650  1.00  0.00     0.050 A 
HETATM   25  C   UNL     1      44.146 -19.809   4.065  1.00  0.00     0.069 A 
HETATM   26  C   UNL     1      44.454 -20.822   3.155  1.00  0.00     0.037 A 
HETATM   27  C   UNL     1      43.957 -20.784   1.852  1.00  0.00     0.004 A 
HETATM   28  C   UNL     1      43.155 -19.718   1.442  1.00  0.00     0.014 A 
BRANCH  25  29
HETATM   29  O   UNL     1      44.687 -19.970   5.311  1.00  0.00    -0.356 OA
HETATM   30  C   UNL     1      44.356 -21.168   6.004  1.00  0.00     0.210 C 
ENDBRANCH  25  29
ENDBRANCH  10  23
TORSDOF 6
ENDMDL
MODEL 4
REMARK VINA RESULT:      -8.0      1.673      5.635
REMARK  6 active torsions:
REMARK  status: ('A' for Active; 'I' for Inactive)
REMARK    1  A    between atoms: C_2  and  O_3 
REMARK    2  A    between atoms: O_3  and  C_4 
REMARK    3  A    between atoms: C_5  and  O_6 
REMARK    4  A    between atoms: C_9  and  C_10 
REMARK    5  A    between atoms: C_19  and  C_20 
REMARK    6  A    between atoms: C_22  and  O_23 
ROOT
HETATM    1  C   UNL     1      40.918 -16.622   2.609  1.00  0.00     0.156 A 
HETATM    2  N   UNL     1      40.445 -16.114   1.305  1.00  0.00    -0.343 N 
HETATM    3  C   UNL     1      41.379 -16.208   0.280  1.00  0.00     0.271 A 
HETATM    4  O   UNL     1      41.261 -15.822  -0.867  1.00  0.00    -0.266 OA
HETATM    5  C   UNL     1      42.473 -16.856   0.894  1.00  0.00     0.128 A 
HETATM    6  C   UNL     1      42.258 -17.112   2.218  1.00  0.00     0.034 A 
HETATM    7  N   UNL     1      43.672 -17.353   0.562  1.00  0.00    -0.272 N 
HETATM    8  H   UNL     1      44.151 -17.336  -0.333  1.00  0.00     0.189 HD
HETATM    9  N   UNL     1      44.240 -18.006   1.605  1.00  0.00    -0.173 NA
HETATM   10  C   UNL     1      43.361 -17.878   2.629  1.00  0.00     0.098 A 
HETATM   11  H   UNL     1      39.573 -15.624   1.172  1.00  0.00     0.163 HD
ENDROOT
BRANCH   1  12
HETATM   12  C   UNL     1      41.047 -15.501   3.616  1.00  0.00    -0.028 A 
HETATM   13  C   UNL     1      39.925 -14.882   4.203  1.00  0.00     0.012 A 
HETATM   14  C   UNL     1      40.077 -13.905   5.184  1.00  0.00     0.040 A 
HETATM   15  C   UNL     1      41.353 -13.544   5.591  1.00  0.00     0.099 A 
HETATM   16  C   UNL     1      42.491 -14.128   5.028  1.00  0.00     0.102 A 
HETATM   17  C   UNL     1      42.334 -15.108   4.044  1.00  0.00     0.049 A 
BRANCH  15  18
HETATM   18  O   UNL     1      41.475 -12.598   6.571  1.00  0.00    -0.358 OA
HETATM   19  H   UNL     1      41.731 -11.779   6.102  1.00  0.00     0.218 HD
ENDBRANCH  15  18
BRANCH  16  20
HETATM   20  O   UNL     1      43.680 -13.672   5.538  1.00  0.00    -0.349 OA
BRANCH  20  21
HETATM   21  C   UNL     1      44.331 -14.496   6.503  1.00  0.00     0.171 C 
HETATM   22  C   UNL     1      45.213 -13.600   7.355  1.00  0.00     0.034 C 
ENDBRANCH  20  21
ENDBRANCH  16  20
ENDBRANCH   1  12
BRANCH  10  23
HETATM   23  C   UNL     1      43.591 -18.563   3.899  1.00  0.00    -0.002 A 
HETATM   24  C   UNL     1      44.261 -19.800   3.899  1.00  0.00     0.050 A 
HETATM   25  C   UNL     1      44.472 -20.496   5.090  1.00  0.00     0.069 A 
HETATM   26  C   UNL     1      44.012 -19.949   6.289  1.00  0.00     0.037 A 
HETATM   27  C   UNL     1      43.362 -18.715   6.304  1.00  0.00     0.004 A 
HETATM   28  C   UNL     1      43.154 -18.020   5.111  1.00  0.00     0.014 A 
BRANCH  25  29
HETATM   29  O   UNL     1      45.100 -21.706   5.213  1.00  0.00    -0.356 OA
HETATM   30  C   UNL     1      44.734 -22.716   4.281  1.00  0.00     0.210 C 
ENDBRANCH  25  29
ENDBRANCH  10  23
TORSDOF 6
ENDMDL
MODEL 5
REMARK VINA RESULT:      -7.9      2.074      5.357
REMARK  6 active torsions:
REMARK  status: ('A' for Active; 'I' for Inactive)
REMARK    1  A    between atoms: C_2  and  O_3 
REMARK    2  A    between atoms: O_3  and  C_4 
REMARK    3  A    between atoms: C_5  and  O_6 
REMARK    4  A    between atoms: C_9  and  C_10 
REMARK    5  A    between atoms: C_19  and  C_20 
REMARK    6  A    between atoms: C_22  and  O_23 
ROOT
HETATM    1  C   UNL     1      42.801 -16.498   6.337  1.00  0.00     0.156 A 
HETATM    2  N   UNL     1      43.364 -15.894   7.562  1.00  0.00    -0.343 N 
HETATM    3  C   UNL     1      44.142 -14.764   7.339  1.00  0.00     0.271 A 
HETATM    4  O   UNL     1      44.754 -14.112   8.163  1.00  0.00    -0.266 OA
HETATM    5  C   UNL     1      44.041 -14.568   5.945  1.00  0.00     0.128 A 
HETATM    6  C   UNL     1      43.287 -15.529   5.332  1.00  0.00     0.034 A 
HETATM    7  N   UNL     1      44.425 -13.682   5.015  1.00  0.00    -0.272 N 
HETATM    8  H   UNL     1      44.997 -12.850   5.117  1.00  0.00     0.189 HD
HETATM    9  N   UNL     1      43.889 -13.975   3.806  1.00  0.00    -0.173 NA
HETATM   10  C   UNL     1      43.167 -15.106   3.997  1.00  0.00     0.098 A 
HETATM   11  H   UNL     1      43.306 -16.314   8.478  1.00  0.00     0.163 HD
ENDROOT
BRANCH   1  12
HETATM   12  C   UNL     1      43.398 -17.862   6.078  1.00  0.00    -0.028 A 
HETATM   13  C   UNL     1      43.490 -18.848   7.081  1.00  0.00     0.012 A 
HETATM   14  C   UNL     1      43.976 -20.122   6.792  1.00  0.00     0.040 A 
HETATM   15  C   UNL     1      44.367 -20.420   5.496  1.00  0.00     0.099 A 
HETATM   16  C   UNL     1      44.301 -19.469   4.475  1.00  0.00     0.102 A 
HETATM   17  C   UNL     1      43.812 -18.193   4.769  1.00  0.00     0.049 A 
BRANCH  15  18
HETATM   18  O   UNL     1      44.821 -21.684   5.233  1.00  0.00    -0.358 OA
HETATM   19  H   UNL     1      44.021 -22.200   5.013  1.00  0.00     0.218 HD
ENDBRANCH  15  18
BRANCH  16  20
HETATM   20  O   UNL     1      44.717 -19.916   3.247  1.00  0.00    -0.349 OA
BRANCH  20  21
HETATM   21  C   UNL     1      43.711 -20.134   2.260  1.00  0.00     0.171 C 
HETATM   22  C   UNL     1      43.815 -21.581   1.808  1.00  0.00     0.034 C 
ENDBRANCH  20  21
ENDBRANCH  16  20
ENDBRANCH   1  12
BRANCH  10  23
HETATM   23  C   UNL     1      42.346 -15.658   2.922  1.00  0.00    -0.002 A 
HETATM   24  C   UNL     1      40.970 -15.367   2.893  1.00  0.00     0.050 A 
HETATM   25  C   UNL     1      40.149 -15.900   1.897  1.00  0.00     0.069 A 
HETATM   26  C   UNL     1      40.712 -16.727   0.923  1.00  0.00     0.037 A 
HETATM   27  C   UNL     1      42.078 -17.008   0.931  1.00  0.00     0.004 A 
HETATM   28  C   UNL     1      42.896 -16.471   1.928  1.00  0.00     0.014 A 
BRANCH  25  29
HETATM   29  O   UNL     1      38.802 -15.697   1.772  1.00  0.00    -0.356 OA
HETATM   30  C   UNL     1      38.387 -14.416   1.310  1.00  0.00     0.210 C 
ENDBRANCH  25  29
ENDBRANCH  10  23
TORSDOF 6
ENDMDL
MODEL 6
REMARK VINA RESULT:      -7.9      2.427      6.802
REMARK  6 active torsions:
REMARK  status: ('A' for Active; 'I' for Inactive)
REMARK    1  A    between atoms: C_2  and  O_3 
REMARK    2  A    between atoms: O_3  and  C_4 
REMARK    3  A    between atoms: C_5  and  O_6 
REMARK    4  A    between atoms: C_9  and  C_10 
REMARK    5  A    between atoms: C_19  and  C_20 
REMARK    6  A    between atoms: C_22  and  O_23 
ROOT
HETATM    1  C   UNL     1      43.123 -14.624   3.568  1.00  0.00     0.156 A 
HETATM    2  N   UNL     1      43.032 -13.363   4.331  1.00  0.00    -0.343 N 
HETATM    3  C   UNL     1      42.712 -13.527   5.674  1.00  0.00     0.271 A 
HETATM    4  O   UNL     1      42.531 -12.657   6.504  1.00  0.00    -0.266 OA
HETATM    5  C   UNL     1      42.657 -14.929   5.827  1.00  0.00     0.128 A 
HETATM    6  C   UNL     1      42.884 -15.596   4.657  1.00  0.00     0.034 A 
HETATM    7  N   UNL     1      42.492 -15.837   6.800  1.00  0.00    -0.272 N 
HETATM    8  H   UNL     1      42.300 -15.695   7.786  1.00  0.00     0.189 HD
HETATM    9  N   UNL     1      42.678 -17.095   6.334  1.00  0.00    -0.173 NA
HETATM   10  C   UNL     1      42.941 -16.954   5.012  1.00  0.00     0.098 A 
HETATM   11  H   UNL     1      43.072 -12.445   3.914  1.00  0.00     0.163 HD
ENDROOT
BRANCH   1  12
HETATM   12  C   UNL     1      42.022 -14.717   2.536  1.00  0.00    -0.028 A 
HETATM   13  C   UNL     1      40.706 -15.095   2.869  1.00  0.00     0.012 A 
HETATM   14  C   UNL     1      39.696 -15.098   1.910  1.00  0.00     0.040 A 
HETATM   15  C   UNL     1      39.993 -14.715   0.611  1.00  0.00     0.099 A 
HETATM   16  C   UNL     1      41.287 -14.342   0.237  1.00  0.00     0.102 A 
HETATM   17  C   UNL     1      42.297 -14.341   1.203  1.00  0.00     0.049 A 
BRANCH  15  18
HETATM   18  O   UNL     1      38.980 -14.706  -0.308  1.00  0.00    -0.358 OA
HETATM   19  H   UNL     1      38.221 -14.301   0.155  1.00  0.00     0.218 HD
ENDBRANCH  15  18
BRANCH  16  20
HETATM   20  O   UNL     1      41.422 -13.985  -1.080  1.00  0.00    -0.349 OA
BRANCH  20  21
HETATM   21  C   UNL     1      42.097 -12.759  -1.355  1.00  0.00     0.171 C 
HETATM   22  C   UNL     1      42.720 -12.875  -2.735  1.00  0.00     0.034 C 
ENDBRANCH  20  21
ENDBRANCH  16  20
ENDBRANCH   1  12
BRANCH  10  23
HETATM   23  C   UNL     1      43.311 -18.109   4.197  1.00  0.00    -0.002 A 
HETATM   24  C   UNL     1      44.170 -19.083   4.738  1.00  0.00     0.050 A 
HETATM   25  C   UNL     1      44.567 -20.185   3.979  1.00  0.00     0.069 A 
HETATM   26  C   UNL     1      44.099 -20.313   2.670  1.00  0.00     0.037 A 
HETATM   27  C   UNL     1      43.233 -19.363   2.128  1.00  0.00     0.004 A 
HETATM   28  C   UNL     1      42.837 -18.263   2.891  1.00  0.00     0.014 A 
BRANCH  25  29
HETATM   29  O   UNL     1      45.401 -21.187   4.393  1.00  0.00    -0.356 OA
HETATM   30  C   UNL     1      44.806 -22.262   5.112  1.00  0.00     0.210 C 
ENDBRANCH  25  29
ENDBRANCH  10  23
TORSDOF 6
ENDMDL
MODEL 7
REMARK VINA RESULT:      -7.9      2.696      6.526
REMARK  6 active torsions:
REMARK  status: ('A' for Active; 'I' for Inactive)
REMARK    1  A    between atoms: C_2  and  O_3 
REMARK    2  A    between atoms: O_3  and  C_4 
REMARK    3  A    between atoms: C_5  and  O_6 
REMARK    4  A    between atoms: C_9  and  C_10 
REMARK    5  A    between atoms: C_19  and  C_20 
REMARK    6  A    between atoms: C_22  and  O_23 
ROOT
HETATM    1  C   UNL     1      41.922 -14.546   3.942  1.00  0.00     0.156 A 
HETATM    2  N   UNL     1      41.126 -13.419   4.469  1.00  0.00    -0.343 N 
HETATM    3  C   UNL     1      40.192 -13.778   5.433  1.00  0.00     0.271 A 
HETATM    4  O   UNL     1      39.385 -13.057   5.988  1.00  0.00    -0.266 OA
HETATM    5  C   UNL     1      40.416 -15.161   5.606  1.00  0.00     0.128 A 
HETATM    6  C   UNL     1      41.391 -15.643   4.779  1.00  0.00     0.034 A 
HETATM    7  N   UNL     1      39.991 -16.167   6.382  1.00  0.00    -0.272 N 
HETATM    8  H   UNL     1      39.274 -16.167   7.101  1.00  0.00     0.189 HD
HETATM    9  N   UNL     1      40.704 -17.297   6.157  1.00  0.00    -0.173 NA
HETATM   10  C   UNL     1      41.587 -16.976   5.180  1.00  0.00     0.098 A 
HETATM   11  H   UNL     1      41.152 -12.483   4.091  1.00  0.00     0.163 HD
ENDROOT
BRANCH   1  12
HETATM   12  C   UNL     1      41.606 -14.803   2.486  1.00  0.00    -0.028 A 
HETATM   13  C   UNL     1      42.403 -15.638   1.677  1.00  0.00     0.012 A 
HETATM   14  C   UNL     1      42.044 -15.915   0.360  1.00  0.00     0.040 A 
HETATM   15  C   UNL     1      40.880 -15.366  -0.156  1.00  0.00     0.099 A 
HETATM   16  C   UNL     1      40.066 -14.526   0.610  1.00  0.00     0.102 A 
HETATM   17  C   UNL     1      40.431 -14.251   1.930  1.00  0.00     0.049 A 
BRANCH  15  18
HETATM   18  O   UNL     1      40.538 -15.670  -1.445  1.00  0.00    -0.358 OA
HETATM   19  H   UNL     1      41.336 -16.083  -1.829  1.00  0.00     0.218 HD
ENDBRANCH  15  18
BRANCH  16  20
HETATM   20  O   UNL     1      38.948 -14.067  -0.037  1.00  0.00    -0.349 OA
BRANCH  20  21
HETATM   21  C   UNL     1      37.716 -14.116   0.680  1.00  0.00     0.171 C 
HETATM   22  C   UNL     1      37.125 -12.717   0.676  1.00  0.00     0.034 C 
ENDBRANCH  20  21
ENDBRANCH  16  20
ENDBRANCH   1  12
BRANCH  10  23
HETATM   23  C   UNL     1      42.609 -17.929   4.755  1.00  0.00    -0.002 A 
HETATM   24  C   UNL     1      42.528 -18.494   3.469  1.00  0.00     0.050 A 
HETATM   25  C   UNL     1      43.471 -19.429   3.040  1.00  0.00     0.069 A 
HETATM   26  C   UNL     1      44.504 -19.799   3.904  1.00  0.00     0.037 A 
HETATM   27  C   UNL     1      44.605 -19.232   5.174  1.00  0.00     0.004 A 
HETATM   28  C   UNL     1      43.661 -18.296   5.599  1.00  0.00     0.014 A 
BRANCH  25  29
HETATM   29  O   UNL     1      43.490 -20.050   1.821  1.00  0.00    -0.356 OA
HETATM   30  C   UNL     1      43.835 -21.431   1.810  1.00  0.00     0.210 C 
ENDBRANCH  25  29
ENDBRANCH  10  23
TORSDOF 6
ENDMDL
MODEL 8
REMARK VINA RESULT:      -7.8      2.484      5.094
REMARK  6 active torsions:
REMARK  status: ('A' for Active; 'I' for Inactive)
REMARK    1  A    between atoms: C_2  and  O_3 
REMARK    2  A    between atoms: O_3  and  C_4 
REMARK    3  A    between atoms: C_5  and  O_6 
REMARK    4  A    between atoms: C_9  and  C_10 
REMARK    5  A    between atoms: C_19  and  C_20 
REMARK    6  A    between atoms: C_22  and  O_23 
ROOT
HETATM    1  C   UNL     1      41.976 -17.335   5.706  1.00  0.00     0.156 A 
HETATM    2  N   UNL     1      42.341 -17.740   7.079  1.00  0.00    -0.343 N 
HETATM    3  C   UNL     1      43.115 -16.812   7.765  1.00  0.00     0.271 A 
HETATM    4  O   UNL     1      43.585 -16.919   8.881  1.00  0.00    -0.266 OA
HETATM    5  C   UNL     1      43.212 -15.735   6.858  1.00  0.00     0.128 A 
HETATM    6  C   UNL     1      42.579 -15.985   5.673  1.00  0.00     0.034 A 
HETATM    7  N   UNL     1      43.705 -14.489   6.812  1.00  0.00    -0.272 N 
HETATM    8  H   UNL     1      44.236 -13.981   7.513  1.00  0.00     0.189 HD
HETATM    9  N   UNL     1      43.357 -13.864   5.662  1.00  0.00    -0.173 NA
HETATM   10  C   UNL     1      42.643 -14.777   4.958  1.00  0.00     0.098 A 
HETATM   11  H   UNL     1      42.161 -18.655   7.466  1.00  0.00     0.163 HD
ENDROOT
BRANCH   1  12
HETATM   12  C   UNL     1      42.639 -18.227   4.681  1.00  0.00    -0.028 A 
HETATM   13  C   UNL     1      42.327 -18.159   3.308  1.00  0.00     0.012 A 
HETATM   14  C   UNL     1      43.009 -18.941   2.378  1.00  0.00     0.040 A 
HETATM   15  C   UNL     1      44.013 -19.791   2.814  1.00  0.00     0.099 A 
HETATM   16  C   UNL     1      44.348 -19.895   4.167  1.00  0.00     0.102 A 
HETATM   17  C   UNL     1      43.661 -19.109   5.096  1.00  0.00     0.049 A 
BRANCH  15  18
HETATM   18  O   UNL     1      44.682 -20.533   1.879  1.00  0.00    -0.358 OA
HETATM   19  H   UNL     1      43.988 -20.879   1.286  1.00  0.00     0.218 HD
ENDBRANCH  15  18
BRANCH  16  20
HETATM   20  O   UNL     1      45.365 -20.773   4.440  1.00  0.00    -0.349 OA
BRANCH  20  21
HETATM   21  C   UNL     1      45.046 -21.907   5.244  1.00  0.00     0.171 C 
HETATM   22  C   UNL     1      44.658 -23.040   4.310  1.00  0.00     0.034 C 
ENDBRANCH  20  21
ENDBRANCH  16  20
ENDBRANCH   1  12
BRANCH  10  23
HETATM   23  C   UNL     1      42.000 -14.412   3.699  1.00  0.00    -0.002 A 
HETATM   24  C   UNL     1      40.713 -14.906   3.418  1.00  0.00     0.050 A 
HETATM   25  C   UNL     1      40.080 -14.600   2.211  1.00  0.00     0.069 A 
HETATM   26  C   UNL     1      40.740 -13.794   1.282  1.00  0.00     0.037 A 
HETATM   27  C   UNL     1      42.009 -13.284   1.557  1.00  0.00     0.004 A 
HETATM   28  C   UNL     1      42.638 -13.590   2.765  1.00  0.00     0.014 A 
BRANCH  25  29
HETATM   29  O   UNL     1      38.839 -15.027   1.825  1.00  0.00    -0.356 OA
HETATM   30  C   UNL     1      38.062 -14.122   1.049  1.00  0.00     0.210 C 
ENDBRANCH  25  29
ENDBRANCH  10  23
TORSDOF 6
ENDMDL
MODEL 9
REMARK VINA RESULT:      -7.8      2.811      6.937
REMARK  6 active torsions:
REMARK  status: ('A' for Active; 'I' for Inactive)
REMARK    1  A    between atoms: C_2  and  O_3 
REMARK    2  A    between atoms: O_3  and  C_4 
REMARK    3  A    between atoms: C_5  and  O_6 
REMARK    4  A    between atoms: C_9  and  C_10 
REMARK    5  A    between atoms: C_19  and  C_20 
REMARK    6  A    between atoms: C_22  and  O_23 
ROOT
HETATM    1  C   UNL     1      41.367 -14.205   3.642  1.00  0.00     0.156 A 
HETATM    2  N   UNL     1      40.730 -13.166   4.476  1.00  0.00    -0.343 N 
HETATM    3  C   UNL     1      40.074 -13.655   5.600  1.00  0.00     0.271 A 
HETATM    4  O   UNL     1      39.434 -13.022   6.418  1.00  0.00    -0.266 OA
HETATM    5  C   UNL     1      40.336 -15.041   5.554  1.00  0.00     0.128 A 
HETATM    6  C   UNL     1      41.069 -15.402   4.458  1.00  0.00     0.034 A 
HETATM    7  N   UNL     1      40.125 -16.137   6.295  1.00  0.00    -0.272 N 
HETATM    8  H   UNL     1      39.615 -16.236   7.167  1.00  0.00     0.189 HD
HETATM    9  N   UNL     1      40.759 -17.214   5.771  1.00  0.00    -0.173 NA
HETATM   10  C   UNL     1      41.362 -16.763   4.644  1.00  0.00     0.098 A 
HETATM   11  H   UNL     1      40.657 -12.195   4.212  1.00  0.00     0.163 HD
ENDROOT
BRANCH   1  12
HETATM   12  C   UNL     1      40.690 -14.313   2.294  1.00  0.00    -0.028 A 
HETATM   13  C   UNL     1      39.290 -14.401   2.158  1.00  0.00     0.012 A 
HETATM   14  C   UNL     1      38.691 -14.422   0.900  1.00  0.00     0.040 A 
HETATM   15  C   UNL     1      39.489 -14.348  -0.232  1.00  0.00     0.099 A 
HETATM   16  C   UNL     1      40.881 -14.269  -0.141  1.00  0.00     0.102 A 
HETATM   17  C   UNL     1      41.477 -14.248   1.123  1.00  0.00     0.049 A 
BRANCH  15  18
HETATM   18  O   UNL     1      38.877 -14.350  -1.454  1.00  0.00    -0.358 OA
HETATM   19  H   UNL     1      38.717 -15.292  -1.657  1.00  0.00     0.218 HD
ENDBRANCH  15  18
BRANCH  16  20
HETATM   20  O   UNL     1      41.531 -14.196  -1.346  1.00  0.00    -0.349 OA
BRANCH  20  21
HETATM   21  C   UNL     1      42.323 -13.035  -1.588  1.00  0.00     0.171 C 
HETATM   22  C   UNL     1      42.197 -12.689  -3.061  1.00  0.00     0.034 C 
ENDBRANCH  20  21
ENDBRANCH  16  20
ENDBRANCH   1  12
BRANCH  10  23
HETATM   23  C   UNL     1      42.243 -17.634   3.870  1.00  0.00    -0.002 A 
HETATM   24  C   UNL     1      43.228 -18.383   4.540  1.00  0.00     0.050 A 
HETATM   25  C   UNL     1      44.106 -19.204   3.829  1.00  0.00     0.069 A 
HETATM   26  C   UNL     1      43.995 -19.276   2.439  1.00  0.00     0.037 A 
HETATM   27  C   UNL     1      43.012 -18.552   1.766  1.00  0.00     0.004 A 
HETATM   28  C   UNL     1      42.134 -17.733   2.480  1.00  0.00     0.014 A 
BRANCH  25  29
HETATM   29  O   UNL     1      45.103 -19.969   4.368  1.00  0.00    -0.356 OA
HETATM   30  C   UNL     1      44.802 -21.338   4.612  1.00  0.00     0.210 C 
ENDBRANCH  25  29
ENDBRANCH  10  23
TORSDOF 6
ENDMDL
MODEL 10
REMARK VINA RESULT:      -7.7      2.566      5.491
REMARK  6 active torsions:
REMARK  status: ('A' for Active; 'I' for Inactive)
REMARK    1  A    between atoms: C_2  and  O_3 
REMARK    2  A    between atoms: O_3  and  C_4 
REMARK    3  A    between atoms: C_5  and  O_6 
REMARK    4  A    between atoms: C_9  and  C_10 
REMARK    5  A    between atoms: C_19  and  C_20 
REMARK    6  A    between atoms: C_22  and  O_23 
ROOT
HETATM    1  C   UNL     1      42.384 -17.638   6.195  1.00  0.00     0.156 A 
HETATM    2  N   UNL     1      42.694 -18.073   7.572  1.00  0.00    -0.343 N 
HETATM    3  C   UNL     1      43.385 -17.133   8.328  1.00  0.00     0.271 A 
HETATM    4  O   UNL     1      43.800 -17.256   9.464  1.00  0.00    -0.266 OA
HETATM    5  C   UNL     1      43.477 -16.022   7.462  1.00  0.00     0.128 A 
HETATM    6  C   UNL     1      42.921 -16.261   6.237  1.00  0.00     0.034 A 
HETATM    7  N   UNL     1      43.911 -14.754   7.483  1.00  0.00    -0.272 N 
HETATM    8  H   UNL     1      44.378 -14.246   8.228  1.00  0.00     0.189 HD
HETATM    9  N   UNL     1      43.595 -14.107   6.336  1.00  0.00    -0.173 NA
HETATM   10  C   UNL     1      42.964 -15.028   5.566  1.00  0.00     0.098 A 
HETATM   11  H   UNL     1      42.539 -19.008   7.919  1.00  0.00     0.163 HD
ENDROOT
BRANCH   1  12
HETATM   12  C   UNL     1      43.142 -18.462   5.180  1.00  0.00    -0.028 A 
HETATM   13  C   UNL     1      43.945 -19.561   5.548  1.00  0.00     0.012 A 
HETATM   14  C   UNL     1      44.571 -20.347   4.583  1.00  0.00     0.040 A 
HETATM   15  C   UNL     1      44.392 -20.045   3.242  1.00  0.00     0.099 A 
HETATM   16  C   UNL     1      43.610 -18.960   2.834  1.00  0.00     0.102 A 
HETATM   17  C   UNL     1      42.985 -18.174   3.806  1.00  0.00     0.049 A 
BRANCH  15  18
HETATM   18  O   UNL     1      44.999 -20.845   2.313  1.00  0.00    -0.358 OA
HETATM   19  H   UNL     1      45.192 -21.679   2.784  1.00  0.00     0.218 HD
ENDBRANCH  15  18
BRANCH  16  20
HETATM   20  O   UNL     1      43.524 -18.795   1.476  1.00  0.00    -0.349 OA
BRANCH  20  21
HETATM   21  C   UNL     1      43.571 -17.459   0.980  1.00  0.00     0.171 C 
HETATM   22  C   UNL     1      42.162 -17.071   0.566  1.00  0.00     0.034 C 
ENDBRANCH  20  21
ENDBRANCH  16  20
ENDBRANCH   1  12
BRANCH  10  23
HETATM   23  C   UNL     1      42.372 -14.650   4.285  1.00  0.00    -0.002 A 
HETATM   24  C   UNL     1      41.033 -14.994   4.021  1.00  0.00     0.050 A 
HETATM   25  C   UNL     1      40.444 -14.674   2.797  1.00  0.00     0.069 A 
HETATM   26  C   UNL     1      41.198 -14.004   1.832  1.00  0.00     0.037 A 
HETATM   27  C   UNL     1      42.521 -13.642   2.089  1.00  0.00     0.004 A 
HETATM   28  C   UNL     1      43.107 -13.962   3.316  1.00  0.00     0.014 A 
BRANCH  25  29
HETATM   29  O   UNL     1      39.159 -14.963   2.425  1.00  0.00    -0.356 OA
HETATM   30  C   UNL     1      38.661 -14.297   1.269  1.00  0.00     0.210 C 
ENDBRANCH  25  29
ENDBRANCH  10  23
TORSDOF 6
ENDMDL
