MODEL 1
REMARK VINA RESULT:      -8.5      0.000      0.000
REMARK  3 active torsions:
REMARK  status: ('A' for Active; 'I' for Inactive)
REMARK    1  A    between atoms: N_2  and  C_5 
REMARK    2  A    between atoms: C_5  and  C_6 
REMARK       I    between atoms: C_6  and  N_7 
REMARK    3  A    between atoms: N_7  and  C_8 
ROOT
HETATM    1  C   UNL     1      43.815 -15.199   6.742  1.00  0.00     0.036 A 
HETATM    2  C   UNL     1      43.883 -16.588   6.872  1.00  0.00     0.059 A 
HETATM    3  C   UNL     1      43.503 -17.456   5.829  1.00  0.00     0.041 A 
HETATM    4  C   UNL     1      43.040 -16.901   4.633  1.00  0.00    -0.031 A 
HETATM    5  C   UNL     1      42.633 -17.778   3.481  1.00  0.00     0.045 C 
HETATM    6  C   UNL     1      43.818 -18.583   2.961  1.00  0.00     0.045 C 
HETATM    7  C   UNL     1      44.148 -19.816   3.768  1.00  0.00    -0.031 A 
HETATM    8  C   UNL     1      44.054 -19.894   5.167  1.00  0.00     0.039 A 
HETATM    9  N   UNL     1      43.709 -18.832   6.026  1.00  0.00    -0.355 N 
HETATM   10  C   UNL     1      44.617 -20.935   3.046  1.00  0.00     0.009 A 
HETATM   11  C   UNL     1      44.947 -22.129   3.683  1.00  0.00     0.001 A 
HETATM   12  C   UNL     1      44.812 -22.227   5.058  1.00  0.00     0.002 A 
HETATM   13  C   UNL     1      44.371 -21.124   5.786  1.00  0.00     0.030 A 
HETATM   14  C   UNL     1      42.935 -15.506   4.510  1.00  0.00     0.012 A 
HETATM   15  C   UNL     1      43.324 -14.663   5.552  1.00  0.00     0.030 A 
HETATM   16  H   UNL     1      43.741 -19.092   7.005  1.00  0.00     0.166 HD
ENDROOT
BRANCH   1  17
HETATM   17  N   UNL     1      44.273 -14.292   7.726  1.00  0.00    -0.326 N 
HETATM   18  C   UNL     1      45.300 -13.384   7.589  1.00  0.00     0.247 C 
HETATM   19  O   UNL     1      46.109 -13.294   6.664  1.00  0.00    -0.271 OA
HETATM   20  H   UNL     1      43.772 -14.339   8.607  1.00  0.00     0.169 HD
BRANCH  18  21
HETATM   21  C   UNL     1      45.401 -12.360   8.721  1.00  0.00     0.334 C 
BRANCH  21  22
HETATM   22  N   UNL     1      44.133 -12.369   9.548  1.00  0.00    -0.071 N 
HETATM   23  C   UNL     1      44.346 -12.412  11.019  1.00  0.00     0.267 C 
HETATM   24  H   UNL     1      43.637 -13.242   9.287  1.00  0.00     0.277 HD
HETATM   25  H   UNL     1      43.520 -11.587   9.293  1.00  0.00     0.277 HD
ENDBRANCH  21  22
ENDBRANCH  18  21
ENDBRANCH   1  17
TORSDOF 3
ENDMDL
MODEL 2
REMARK VINA RESULT:      -8.3      2.646      3.485
REMARK  3 active torsions:
REMARK  status: ('A' for Active; 'I' for Inactive)
REMARK    1  A    between atoms: N_2  and  C_5 
REMARK    2  A    between atoms: C_5  and  C_6 
REMARK       I    between atoms: C_6  and  N_7 
REMARK    3  A    between atoms: N_7  and  C_8 
ROOT
HETATM    1  C   UNL     1      42.119 -15.810   6.011  1.00  0.00     0.036 A 
HETATM    2  C   UNL     1      42.330 -16.539   4.838  1.00  0.00     0.059 A 
HETATM    3  C   UNL     1      43.378 -17.475   4.717  1.00  0.00     0.041 A 
HETATM    4  C   UNL     1      44.230 -17.668   5.807  1.00  0.00    -0.031 A 
HETATM    5  C   UNL     1      45.357 -18.662   5.740  1.00  0.00     0.045 C 
HETATM    6  C   UNL     1      44.826 -20.080   5.561  1.00  0.00     0.045 C 
HETATM    7  C   UNL     1      44.441 -20.436   4.145  1.00  0.00    -0.031 A 
HETATM    8  C   UNL     1      43.836 -19.548   3.242  1.00  0.00     0.039 A 
HETATM    9  N   UNL     1      43.437 -18.229   3.532  1.00  0.00    -0.355 N 
HETATM   10  C   UNL     1      44.682 -21.769   3.743  1.00  0.00     0.009 A 
HETATM   11  C   UNL     1      44.373 -22.211   2.459  1.00  0.00     0.001 A 
HETATM   12  C   UNL     1      43.819 -21.327   1.549  1.00  0.00     0.002 A 
HETATM   13  C   UNL     1      43.556 -20.015   1.937  1.00  0.00     0.030 A 
HETATM   14  C   UNL     1      44.045 -16.911   6.976  1.00  0.00     0.012 A 
HETATM   15  C   UNL     1      42.997 -15.996   7.079  1.00  0.00     0.030 A 
HETATM   16  H   UNL     1      42.981 -17.774   2.749  1.00  0.00     0.166 HD
ENDROOT
BRANCH   1  17
HETATM   17  N   UNL     1      41.028 -14.933   6.208  1.00  0.00    -0.326 N 
HETATM   18  C   UNL     1      40.977 -13.599   5.864  1.00  0.00     0.247 C 
HETATM   19  O   UNL     1      41.902 -12.884   5.477  1.00  0.00    -0.271 OA
HETATM   20  H   UNL     1      40.218 -15.360   6.644  1.00  0.00     0.169 HD
BRANCH  18  21
HETATM   21  C   UNL     1      39.586 -12.970   5.957  1.00  0.00     0.334 C 
BRANCH  21  22
HETATM   22  N   UNL     1      39.215 -12.734   7.406  1.00  0.00    -0.071 N 
HETATM   23  C   UNL     1      39.580 -11.391   7.933  1.00  0.00     0.267 C 
HETATM   24  H   UNL     1      39.756 -13.431   7.949  1.00  0.00     0.277 HD
HETATM   25  H   UNL     1      38.222 -12.929   7.570  1.00  0.00     0.277 HD
ENDBRANCH  21  22
ENDBRANCH  18  21
ENDBRANCH   1  17
TORSDOF 3
ENDMDL
MODEL 3
REMARK VINA RESULT:      -8.0      5.737      8.106
REMARK  3 active torsions:
REMARK  status: ('A' for Active; 'I' for Inactive)
REMARK    1  A    between atoms: N_2  and  C_5 
REMARK    2  A    between atoms: C_5  and  C_6 
REMARK       I    between atoms: C_6  and  N_7 
REMARK    3  A    between atoms: N_7  and  C_8 
ROOT
HETATM    1  C   UNL     1      40.945 -15.328  -0.573  1.00  0.00     0.036 A 
HETATM    2  C   UNL     1      41.759 -16.402  -0.203  1.00  0.00     0.059 A 
HETATM    3  C   UNL     1      42.572 -16.363   0.948  1.00  0.00     0.041 A 
HETATM    4  C   UNL     1      42.561 -15.207   1.734  1.00  0.00    -0.031 A 
HETATM    5  C   UNL     1      43.398 -15.114   2.980  1.00  0.00     0.045 C 
HETATM    6  C   UNL     1      42.959 -16.144   4.013  1.00  0.00     0.045 C 
HETATM    7  C   UNL     1      43.486 -17.540   3.778  1.00  0.00    -0.031 A 
HETATM    8  C   UNL     1      43.640 -18.124   2.510  1.00  0.00     0.039 A 
HETATM    9  N   UNL     1      43.270 -17.534   1.285  1.00  0.00    -0.355 N 
HETATM   10  C   UNL     1      43.797 -18.298   4.927  1.00  0.00     0.009 A 
HETATM   11  C   UNL     1      44.296 -19.595   4.834  1.00  0.00     0.001 A 
HETATM   12  C   UNL     1      44.495 -20.160   3.585  1.00  0.00     0.002 A 
HETATM   13  C   UNL     1      44.172 -19.432   2.442  1.00  0.00     0.030 A 
HETATM   14  C   UNL     1      41.773 -14.111   1.347  1.00  0.00     0.012 A 
HETATM   15  C   UNL     1      40.968 -14.173   0.208  1.00  0.00     0.030 A 
HETATM   16  H   UNL     1      43.430 -18.144   0.491  1.00  0.00     0.166 HD
ENDROOT
BRANCH   1  17
HETATM   17  N   UNL     1      40.046 -15.360  -1.664  1.00  0.00    -0.326 N 
HETATM   18  C   UNL     1      40.380 -15.453  -2.998  1.00  0.00     0.247 C 
HETATM   19  O   UNL     1      41.499 -15.366  -3.503  1.00  0.00    -0.271 OA
HETATM   20  H   UNL     1      39.067 -15.310  -1.404  1.00  0.00     0.169 HD
BRANCH  18  21
HETATM   21  C   UNL     1      39.200 -15.728  -3.932  1.00  0.00     0.334 C 
BRANCH  21  22
HETATM   22  N   UNL     1      37.893 -15.547  -3.189  1.00  0.00    -0.071 N 
HETATM   23  C   UNL     1      36.863 -14.760  -3.920  1.00  0.00     0.267 C 
HETATM   24  H   UNL     1      38.131 -15.015  -2.333  1.00  0.00     0.277 HD
HETATM   25  H   UNL     1      37.512 -16.450  -2.887  1.00  0.00     0.277 HD
ENDBRANCH  21  22
ENDBRANCH  18  21
ENDBRANCH   1  17
TORSDOF 3
ENDMDL
MODEL 4
REMARK VINA RESULT:      -7.9      4.412      6.306
REMARK  3 active torsions:
REMARK  status: ('A' for Active; 'I' for Inactive)
REMARK    1  A    between atoms: N_2  and  C_5 
REMARK    2  A    between atoms: C_5  and  C_6 
REMARK       I    between atoms: C_6  and  N_7 
REMARK    3  A    between atoms: N_7  and  C_8 
ROOT
HETATM    1  C   UNL     1      40.299 -16.056   2.507  1.00  0.00     0.036 A 
HETATM    2  C   UNL     1      41.039 -17.112   1.970  1.00  0.00     0.059 A 
HETATM    3  C   UNL     1      42.208 -17.597   2.590  1.00  0.00     0.041 A 
HETATM    4  C   UNL     1      42.636 -16.993   3.775  1.00  0.00    -0.031 A 
HETATM    5  C   UNL     1      43.869 -17.476   4.487  1.00  0.00     0.045 C 
HETATM    6  C   UNL     1      43.696 -18.912   4.967  1.00  0.00     0.045 C 
HETATM    7  C   UNL     1      43.911 -19.964   3.905  1.00  0.00    -0.031 A 
HETATM    8  C   UNL     1      43.520 -19.825   2.563  1.00  0.00     0.039 A 
HETATM    9  N   UNL     1      42.818 -18.730   2.023  1.00  0.00    -0.355 N 
HETATM   10  C   UNL     1      44.510 -21.172   4.325  1.00  0.00     0.009 A 
HETATM   11  C   UNL     1      44.762 -22.211   3.433  1.00  0.00     0.001 A 
HETATM   12  C   UNL     1      44.422 -22.061   2.099  1.00  0.00     0.002 A 
HETATM   13  C   UNL     1      43.811 -20.884   1.673  1.00  0.00     0.030 A 
HETATM   14  C   UNL     1      41.916 -15.906   4.300  1.00  0.00     0.012 A 
HETATM   15  C   UNL     1      40.756 -15.446   3.675  1.00  0.00     0.030 A 
HETATM   16  H   UNL     1      42.598 -18.848   1.041  1.00  0.00     0.166 HD
ENDROOT
BRANCH   1  17
HETATM   17  N   UNL     1      39.072 -15.600   1.970  1.00  0.00    -0.326 N 
HETATM   18  C   UNL     1      38.801 -14.329   1.513  1.00  0.00     0.247 C 
HETATM   19  O   UNL     1      39.499 -13.321   1.626  1.00  0.00    -0.271 OA
HETATM   20  H   UNL     1      38.343 -16.304   1.930  1.00  0.00     0.169 HD
BRANCH  18  21
HETATM   21  C   UNL     1      37.481 -14.195   0.751  1.00  0.00     0.334 C 
BRANCH  21  22
HETATM   22  N   UNL     1      37.722 -14.326  -0.738  1.00  0.00    -0.071 N 
HETATM   23  C   UNL     1      37.977 -13.042  -1.446  1.00  0.00     0.267 C 
HETATM   24  H   UNL     1      36.846 -14.719  -1.128  1.00  0.00     0.277 HD
HETATM   25  H   UNL     1      38.468 -15.002  -0.934  1.00  0.00     0.277 HD
ENDBRANCH  21  22
ENDBRANCH  18  21
ENDBRANCH   1  17
TORSDOF 3
ENDMDL
MODEL 5
REMARK VINA RESULT:      -7.8      2.901      4.499
REMARK  3 active torsions:
REMARK  status: ('A' for Active; 'I' for Inactive)
REMARK    1  A    between atoms: N_2  and  C_5 
REMARK    2  A    between atoms: C_5  and  C_6 
REMARK       I    between atoms: C_6  and  N_7 
REMARK    3  A    between atoms: N_7  and  C_8 
ROOT
HETATM    1  C   UNL     1      42.477 -15.341   4.521  1.00  0.00     0.036 A 
HETATM    2  C   UNL     1      42.934 -16.438   3.786  1.00  0.00     0.059 A 
HETATM    3  C   UNL     1      43.782 -17.414   4.347  1.00  0.00     0.041 A 
HETATM    4  C   UNL     1      44.177 -17.269   5.680  1.00  0.00    -0.031 A 
HETATM    5  C   UNL     1      45.070 -18.286   6.336  1.00  0.00     0.045 C 
HETATM    6  C   UNL     1      44.389 -19.648   6.406  1.00  0.00     0.045 C 
HETATM    7  C   UNL     1      44.440 -20.446   5.125  1.00  0.00    -0.031 A 
HETATM    8  C   UNL     1      44.333 -19.889   3.841  1.00  0.00     0.039 A 
HETATM    9  N   UNL     1      44.097 -18.530   3.554  1.00  0.00    -0.355 N 
HETATM   10  C   UNL     1      44.563 -21.846   5.259  1.00  0.00     0.009 A 
HETATM   11  C   UNL     1      44.625 -22.684   4.149  1.00  0.00     0.001 A 
HETATM   12  C   UNL     1      44.568 -22.136   2.878  1.00  0.00     0.002 A 
HETATM   13  C   UNL     1      44.424 -20.758   2.730  1.00  0.00     0.030 A 
HETATM   14  C   UNL     1      43.750 -16.149   6.413  1.00  0.00     0.012 A 
HETATM   15  C   UNL     1      42.904 -15.198   5.841  1.00  0.00     0.030 A 
HETATM   16  H   UNL     1      44.014 -18.346   2.560  1.00  0.00     0.166 HD
ENDROOT
BRANCH   1  17
HETATM   17  N   UNL     1      41.554 -14.391   4.027  1.00  0.00    -0.326 N 
HETATM   18  C   UNL     1      41.784 -13.465   3.032  1.00  0.00     0.247 C 
HETATM   19  O   UNL     1      42.857 -13.179   2.502  1.00  0.00    -0.271 OA
HETATM   20  H   UNL     1      40.641 -14.423   4.468  1.00  0.00     0.169 HD
BRANCH  18  21
HETATM   21  C   UNL     1      40.531 -12.748   2.528  1.00  0.00     0.334 C 
BRANCH  21  22
HETATM   22  N   UNL     1      39.308 -13.612   2.753  1.00  0.00    -0.071 N 
HETATM   23  C   UNL     1      38.850 -14.371   1.559  1.00  0.00     0.267 C 
HETATM   24  H   UNL     1      38.546 -12.956   3.006  1.00  0.00     0.277 HD
HETATM   25  H   UNL     1      39.442 -14.240   3.553  1.00  0.00     0.277 HD
ENDBRANCH  21  22
ENDBRANCH  18  21
ENDBRANCH   1  17
TORSDOF 3
ENDMDL
MODEL 6
REMARK VINA RESULT:      -7.5      4.506      6.862
REMARK  3 active torsions:
REMARK  status: ('A' for Active; 'I' for Inactive)
REMARK    1  A    between atoms: N_2  and  C_5 
REMARK    2  A    between atoms: C_5  and  C_6 
REMARK       I    between atoms: C_6  and  N_7 
REMARK    3  A    between atoms: N_7  and  C_8 
ROOT
HETATM    1  C   UNL     1      40.610 -16.111   1.354  1.00  0.00     0.036 A 
HETATM    2  C   UNL     1      40.657 -16.297   2.738  1.00  0.00     0.059 A 
HETATM    3  C   UNL     1      41.499 -17.256   3.336  1.00  0.00     0.041 A 
HETATM    4  C   UNL     1      42.305 -18.046   2.510  1.00  0.00    -0.031 A 
HETATM    5  C   UNL     1      43.232 -19.076   3.093  1.00  0.00     0.045 C 
HETATM    6  C   UNL     1      44.300 -18.422   3.962  1.00  0.00     0.045 C 
HETATM    7  C   UNL     1      43.846 -18.059   5.355  1.00  0.00    -0.031 A 
HETATM    8  C   UNL     1      42.566 -17.573   5.670  1.00  0.00     0.039 A 
HETATM    9  N   UNL     1      41.547 -17.288   4.740  1.00  0.00    -0.355 N 
HETATM   10  C   UNL     1      44.804 -18.188   6.384  1.00  0.00     0.009 A 
HETATM   11  C   UNL     1      44.499 -17.888   7.709  1.00  0.00     0.001 A 
HETATM   12  C   UNL     1      43.224 -17.453   8.033  1.00  0.00     0.002 A 
HETATM   13  C   UNL     1      42.274 -17.299   7.025  1.00  0.00     0.030 A 
HETATM   14  C   UNL     1      42.234 -17.888   1.116  1.00  0.00     0.012 A 
HETATM   15  C   UNL     1      41.400 -16.927   0.544  1.00  0.00     0.030 A 
HETATM   16  H   UNL     1      40.714 -16.906   5.174  1.00  0.00     0.166 HD
ENDROOT
BRANCH   1  17
HETATM   17  N   UNL     1      39.851 -15.100   0.720  1.00  0.00    -0.326 N 
HETATM   18  C   UNL     1      40.341 -13.945   0.150  1.00  0.00     0.247 C 
HETATM   19  O   UNL     1      41.485 -13.496   0.219  1.00  0.00    -0.271 OA
HETATM   20  H   UNL     1      38.852 -15.275   0.698  1.00  0.00     0.169 HD
BRANCH  18  21
HETATM   21  C   UNL     1      39.324 -13.168  -0.687  1.00  0.00     0.334 C 
BRANCH  21  22
HETATM   22  N   UNL     1      38.257 -14.104  -1.215  1.00  0.00    -0.071 N 
HETATM   23  C   UNL     1      38.338 -14.387  -2.673  1.00  0.00     0.267 C 
HETATM   24  H   UNL     1      37.356 -13.620  -1.049  1.00  0.00     0.277 HD
HETATM   25  H   UNL     1      38.233 -14.978  -0.677  1.00  0.00     0.277 HD
ENDBRANCH  21  22
ENDBRANCH  18  21
ENDBRANCH   1  17
TORSDOF 3
ENDMDL
MODEL 7
REMARK VINA RESULT:      -7.4      3.371      3.847
REMARK  3 active torsions:
REMARK  status: ('A' for Active; 'I' for Inactive)
REMARK    1  A    between atoms: N_2  and  C_5 
REMARK    2  A    between atoms: C_5  and  C_6 
REMARK       I    between atoms: C_6  and  N_7 
REMARK    3  A    between atoms: N_7  and  C_8 
ROOT
HETATM    1  C   UNL     1      40.838 -13.966   4.779  1.00  0.00     0.036 A 
HETATM    2  C   UNL     1      41.459 -15.178   5.089  1.00  0.00     0.059 A 
HETATM    3  C   UNL     1      41.435 -16.278   4.207  1.00  0.00     0.041 A 
HETATM    4  C   UNL     1      40.761 -16.143   2.989  1.00  0.00    -0.031 A 
HETATM    5  C   UNL     1      40.713 -17.278   2.004  1.00  0.00     0.045 C 
HETATM    6  C   UNL     1      42.109 -17.625   1.500  1.00  0.00     0.045 C 
HETATM    7  C   UNL     1      42.923 -18.486   2.435  1.00  0.00    -0.031 A 
HETATM    8  C   UNL     1      42.901 -18.375   3.835  1.00  0.00     0.039 A 
HETATM    9  N   UNL     1      42.179 -17.413   4.569  1.00  0.00    -0.355 N 
HETATM   10  C   UNL     1      43.785 -19.430   1.834  1.00  0.00     0.009 A 
HETATM   11  C   UNL     1      44.580 -20.282   2.596  1.00  0.00     0.001 A 
HETATM   12  C   UNL     1      44.527 -20.210   3.978  1.00  0.00     0.002 A 
HETATM   13  C   UNL     1      43.698 -19.269   4.585  1.00  0.00     0.030 A 
HETATM   14  C   UNL     1      40.104 -14.939   2.690  1.00  0.00     0.012 A 
HETATM   15  C   UNL     1      40.147 -13.859   3.573  1.00  0.00     0.030 A 
HETATM   16  H   UNL     1      42.335 -17.483   5.569  1.00  0.00     0.166 HD
ENDROOT
BRANCH   1  17
HETATM   17  N   UNL     1      40.917 -12.810   5.591  1.00  0.00    -0.326 N 
HETATM   18  C   UNL     1      39.883 -12.233   6.296  1.00  0.00     0.247 C 
HETATM   19  O   UNL     1      38.684 -12.504   6.234  1.00  0.00    -0.271 OA
HETATM   20  H   UNL     1      41.840 -12.392   5.638  1.00  0.00     0.169 HD
BRANCH  18  21
HETATM   21  C   UNL     1      40.315 -11.152   7.288  1.00  0.00     0.334 C 
BRANCH  21  22
HETATM   22  N   UNL     1      39.757 -11.452   8.663  1.00  0.00    -0.071 N 
HETATM   23  C   UNL     1      38.886 -10.388   9.230  1.00  0.00     0.267 C 
HETATM   24  H   UNL     1      40.581 -11.533   9.286  1.00  0.00     0.277 HD
HETATM   25  H   UNL     1      39.278 -12.359   8.678  1.00  0.00     0.277 HD
ENDBRANCH  21  22
ENDBRANCH  18  21
ENDBRANCH   1  17
TORSDOF 3
ENDMDL
MODEL 8
REMARK VINA RESULT:      -7.0      5.111      8.315
REMARK  3 active torsions:
REMARK  status: ('A' for Active; 'I' for Inactive)
REMARK    1  A    between atoms: N_2  and  C_5 
REMARK    2  A    between atoms: C_5  and  C_6 
REMARK       I    between atoms: C_6  and  N_7 
REMARK    3  A    between atoms: N_7  and  C_8 
ROOT
HETATM    1  C   UNL     1      42.442 -17.821   2.566  1.00  0.00     0.036 A 
HETATM    2  C   UNL     1      42.218 -17.540   1.216  1.00  0.00     0.059 A 
HETATM    3  C   UNL     1      41.238 -16.618   0.797  1.00  0.00     0.041 A 
HETATM    4  C   UNL     1      40.467 -15.974   1.768  1.00  0.00    -0.031 A 
HETATM    5  C   UNL     1      39.416 -14.971   1.380  1.00  0.00     0.045 C 
HETATM    6  C   UNL     1      40.039 -13.763   0.691  1.00  0.00     0.045 C 
HETATM    7  C   UNL     1      40.367 -13.968  -0.769  1.00  0.00    -0.031 A 
HETATM    8  C   UNL     1      40.852 -15.170  -1.310  1.00  0.00     0.039 A 
HETATM    9  N   UNL     1      41.168 -16.330  -0.577  1.00  0.00    -0.355 N 
HETATM   10  C   UNL     1      40.204 -12.849  -1.615  1.00  0.00     0.009 A 
HETATM   11  C   UNL     1      40.470 -12.920  -2.980  1.00  0.00     0.001 A 
HETATM   12  C   UNL     1      40.904 -14.116  -3.528  1.00  0.00     0.002 A 
HETATM   13  C   UNL     1      41.090 -15.223  -2.702  1.00  0.00     0.030 A 
HETATM   14  C   UNL     1      40.662 -16.280   3.125  1.00  0.00     0.012 A 
HETATM   15  C   UNL     1      41.644 -17.190   3.520  1.00  0.00     0.030 A 
HETATM   16  H   UNL     1      41.543 -17.072  -1.157  1.00  0.00     0.166 HD
ENDROOT
BRANCH   1  17
HETATM   17  N   UNL     1      43.474 -18.666   3.035  1.00  0.00    -0.326 N 
HETATM   18  C   UNL     1      43.735 -19.952   2.612  1.00  0.00     0.247 C 
HETATM   19  O   UNL     1      43.043 -20.660   1.881  1.00  0.00    -0.271 OA
HETATM   20  H   UNL     1      44.064 -18.254   3.750  1.00  0.00     0.169 HD
BRANCH  18  21
HETATM   21  C   UNL     1      45.065 -20.526   3.103  1.00  0.00     0.334 C 
BRANCH  21  22
HETATM   22  N   UNL     1      44.988 -20.827   4.586  1.00  0.00    -0.071 N 
HETATM   23  C   UNL     1      44.908 -22.273   4.926  1.00  0.00     0.267 C 
HETATM   24  H   UNL     1      44.108 -20.389   4.913  1.00  0.00     0.277 HD
HETATM   25  H   UNL     1      45.757 -20.377   5.095  1.00  0.00     0.277 HD
ENDBRANCH  21  22
ENDBRANCH  18  21
ENDBRANCH   1  17
TORSDOF 3
ENDMDL
MODEL 9
REMARK VINA RESULT:      -6.6      3.932      7.911
REMARK  3 active torsions:
REMARK  status: ('A' for Active; 'I' for Inactive)
REMARK    1  A    between atoms: N_2  and  C_5 
REMARK    2  A    between atoms: C_5  and  C_6 
REMARK       I    between atoms: C_6  and  N_7 
REMARK    3  A    between atoms: N_7  and  C_8 
ROOT
HETATM    1  C   UNL     1      42.519 -17.863   4.434  1.00  0.00     0.036 A 
HETATM    2  C   UNL     1      41.466 -17.428   3.625  1.00  0.00     0.059 A 
HETATM    3  C   UNL     1      40.748 -16.247   3.902  1.00  0.00     0.041 A 
HETATM    4  C   UNL     1      41.103 -15.497   5.027  1.00  0.00    -0.031 A 
HETATM    5  C   UNL     1      40.381 -14.223   5.365  1.00  0.00     0.045 C 
HETATM    6  C   UNL     1      40.577 -13.177   4.274  1.00  0.00     0.045 C 
HETATM    7  C   UNL     1      39.686 -13.348   3.066  1.00  0.00    -0.031 A 
HETATM    8  C   UNL     1      39.322 -14.590   2.521  1.00  0.00     0.039 A 
HETATM    9  N   UNL     1      39.779 -15.846   2.967  1.00  0.00    -0.355 N 
HETATM   10  C   UNL     1      39.238 -12.164   2.440  1.00  0.00     0.009 A 
HETATM   11  C   UNL     1      38.407 -12.198   1.323  1.00  0.00     0.001 A 
HETATM   12  C   UNL     1      38.006 -13.420   0.809  1.00  0.00     0.002 A 
HETATM   13  C   UNL     1      38.459 -14.597   1.402  1.00  0.00     0.030 A 
HETATM   14  C   UNL     1      42.136 -15.950   5.864  1.00  0.00     0.012 A 
HETATM   15  C   UNL     1      42.841 -17.117   5.567  1.00  0.00     0.030 A 
HETATM   16  H   UNL     1      39.425 -16.614   2.407  1.00  0.00     0.166 HD
ENDROOT
BRANCH   1  17
HETATM   17  N   UNL     1      43.324 -18.988   4.142  1.00  0.00    -0.326 N 
HETATM   18  C   UNL     1      44.155 -19.139   3.053  1.00  0.00     0.247 C 
HETATM   19  O   UNL     1      44.238 -18.416   2.061  1.00  0.00    -0.271 OA
HETATM   20  H   UNL     1      43.263 -19.737   4.822  1.00  0.00     0.169 HD
BRANCH  18  21
HETATM   21  C   UNL     1      45.096 -20.343   3.133  1.00  0.00     0.334 C 
BRANCH  21  22
HETATM   22  N   UNL     1      44.321 -21.627   2.924  1.00  0.00    -0.071 N 
HETATM   23  C   UNL     1      43.962 -21.917   1.509  1.00  0.00     0.267 C 
HETATM   24  H   UNL     1      43.433 -21.503   3.443  1.00  0.00     0.277 HD
HETATM   25  H   UNL     1      44.808 -22.425   3.345  1.00  0.00     0.277 HD
ENDBRANCH  21  22
ENDBRANCH  18  21
ENDBRANCH   1  17
TORSDOF 3
ENDMDL
MODEL 10
REMARK VINA RESULT:      -6.6      3.805      7.699
REMARK  3 active torsions:
REMARK  status: ('A' for Active; 'I' for Inactive)
REMARK    1  A    between atoms: N_2  and  C_5 
REMARK    2  A    between atoms: C_5  and  C_6 
REMARK       I    between atoms: C_6  and  N_7 
REMARK    3  A    between atoms: N_7  and  C_8 
ROOT
HETATM    1  C   UNL     1      43.971 -18.653   2.575  1.00  0.00     0.036 A 
HETATM    2  C   UNL     1      43.648 -17.687   3.532  1.00  0.00     0.059 A 
HETATM    3  C   UNL     1      43.064 -16.454   3.181  1.00  0.00     0.041 A 
HETATM    4  C   UNL     1      42.808 -16.194   1.832  1.00  0.00    -0.031 A 
HETATM    5  C   UNL     1      42.175 -14.901   1.400  1.00  0.00     0.045 C 
HETATM    6  C   UNL     1      40.768 -14.764   1.969  1.00  0.00     0.045 C 
HETATM    7  C   UNL     1      40.709 -14.300   3.405  1.00  0.00    -0.031 A 
HETATM    8  C   UNL     1      41.625 -14.684   4.399  1.00  0.00     0.039 A 
HETATM    9  N   UNL     1      42.683 -15.598   4.229  1.00  0.00    -0.355 N 
HETATM   10  C   UNL     1      39.629 -13.460   3.753  1.00  0.00     0.009 A 
HETATM   11  C   UNL     1      39.475 -12.966   5.046  1.00  0.00     0.001 A 
HETATM   12  C   UNL     1      40.401 -13.302   6.019  1.00  0.00     0.002 A 
HETATM   13  C   UNL     1      41.460 -14.149   5.696  1.00  0.00     0.030 A 
HETATM   14  C   UNL     1      43.165 -17.147   0.863  1.00  0.00     0.012 A 
HETATM   15  C   UNL     1      43.735 -18.366   1.231  1.00  0.00     0.030 A 
HETATM   16  H   UNL     1      43.200 -15.765   5.085  1.00  0.00     0.166 HD
ENDROOT
BRANCH   1  17
HETATM   17  N   UNL     1      44.471 -19.938   2.890  1.00  0.00    -0.326 N 
HETATM   18  C   UNL     1      44.007 -21.140   2.400  1.00  0.00     0.247 C 
HETATM   19  O   UNL     1      42.991 -21.342   1.736  1.00  0.00    -0.271 OA
HETATM   20  H   UNL     1      45.248 -19.939   3.542  1.00  0.00     0.169 HD
BRANCH  18  21
HETATM   21  C   UNL     1      44.902 -22.341   2.711  1.00  0.00     0.334 C 
BRANCH  21  22
HETATM   22  N   UNL     1      44.502 -22.963   4.033  1.00  0.00    -0.071 N 
HETATM   23  C   UNL     1      45.174 -22.381   5.225  1.00  0.00     0.267 C 
HETATM   24  H   UNL     1      44.794 -23.955   3.973  1.00  0.00     0.277 HD
HETATM   25  H   UNL     1      43.483 -22.955   4.151  1.00  0.00     0.277 HD
ENDBRANCH  21  22
ENDBRANCH  18  21
ENDBRANCH   1  17
TORSDOF 3
ENDMDL
