MODEL 1
REMARK VINA RESULT:      -7.9      0.000      0.000
REMARK  6 active torsions:
REMARK  status: ('A' for Active; 'I' for Inactive)
REMARK    1  A    between atoms: N_2  and  C_4 
REMARK    2  A    between atoms: C_4  and  C_5 
REMARK    3  A    between atoms: C_5  and  N_6 
REMARK    4  A    between atoms: C_5  and  C_21 
REMARK       I    between atoms: N_6  and  C_7 
REMARK       I    between atoms: C_7  and  N_8 
REMARK    5  A    between atoms: N_8  and  C_9 
REMARK    6  A    between atoms: C_12  and  C_13 
ROOT
HETATM    1  N   UNL     1      42.473 -17.099   4.328  1.00  0.00    -0.333 N 
HETATM    2  C   UNL     1      41.239 -16.727   4.761  1.00  0.00     0.322 C 
HETATM    3  N   UNL     1      40.623 -15.704   4.117  1.00  0.00    -0.287 N 
HETATM    4  O   UNL     1      40.642 -17.344   5.640  1.00  0.00    -0.247 OA
HETATM    5  H   UNL     1      42.945 -16.399   3.757  1.00  0.00     0.165 HD
HETATM    6  H   UNL     1      39.697 -15.458   4.438  1.00  0.00     0.172 HD
ENDROOT
BRANCH   1   7
HETATM    7  C   UNL     1      43.318 -18.098   4.967  1.00  0.00     0.145 C 
BRANCH   7   8
HETATM    8  C   UNL     1      44.575 -17.569   5.726  1.00  0.00     0.263 C 
BRANCH   8   9
HETATM    9  N   UNL     1      44.303 -16.878   7.065  1.00  0.00    -0.076 N 
HETATM   10  C   UNL     1      43.235 -17.526   7.893  1.00  0.00     0.269 C 
HETATM   11  H   UNL     1      45.179 -17.000   7.588  1.00  0.00     0.279 HD
HETATM   12  C   UNL     1      44.123 -15.391   6.971  1.00  0.00     0.269 C 
ENDBRANCH   8   9
ENDBRANCH   7   8
BRANCH   7  13
HETATM   13  C   UNL     1      43.684 -19.227   4.016  1.00  0.00    -0.034 A 
HETATM   14  C   UNL     1      43.163 -19.235   2.709  1.00  0.00     0.009 A 
HETATM   15  C   UNL     1      43.445 -20.286   1.833  1.00  0.00     0.001 A 
HETATM   16  C   UNL     1      44.259 -21.339   2.245  1.00  0.00     0.000 A 
HETATM   17  C   UNL     1      44.796 -21.338   3.528  1.00  0.00     0.001 A 
HETATM   18  C   UNL     1      44.512 -20.290   4.408  1.00  0.00     0.009 A 
ENDBRANCH   7  13
ENDBRANCH   1   7
BRANCH   3  19
HETATM   19  C   UNL     1      41.105 -15.038   3.027  1.00  0.00     0.175 A 
HETATM   20  S   UNL     1      42.002 -13.637   3.386  1.00  0.00    -0.061 SA
HETATM   21  C   UNL     1      42.155 -13.336   1.702  1.00  0.00     0.086 A 
HETATM   22  C   UNL     1      41.528 -14.344   0.992  1.00  0.00     0.078 A 
HETATM   23  N   UNL     1      40.929 -15.330   1.762  1.00  0.00    -0.223 NA
BRANCH  22  24
HETATM   24  C   UNL     1      41.502 -14.396  -0.454  1.00  0.00     0.011 A 
HETATM   25  C   UNL     1      41.955 -13.335  -1.231  1.00  0.00     0.130 A 
HETATM   26  N   UNL     1      41.954 -13.333  -2.585  1.00  0.00    -0.272 NA
HETATM   27  C   UNL     1      41.494 -14.448  -3.194  1.00  0.00     0.116 A 
HETATM   28  C   UNL     1      41.019 -15.555  -2.510  1.00  0.00     0.020 A 
HETATM   29  C   UNL     1      41.015 -15.524  -1.117  1.00  0.00     0.017 A 
ENDBRANCH  22  24
ENDBRANCH   3  19
TORSDOF 6
ENDMDL
MODEL 2
REMARK VINA RESULT:      -7.8      2.758      6.490
REMARK  6 active torsions:
REMARK  status: ('A' for Active; 'I' for Inactive)
REMARK    1  A    between atoms: N_2  and  C_4 
REMARK    2  A    between atoms: C_4  and  C_5 
REMARK    3  A    between atoms: C_5  and  N_6 
REMARK    4  A    between atoms: C_5  and  C_21 
REMARK       I    between atoms: N_6  and  C_7 
REMARK       I    between atoms: C_7  and  N_8 
REMARK    5  A    between atoms: N_8  and  C_9 
REMARK    6  A    between atoms: C_12  and  C_13 
ROOT
HETATM    1  N   UNL     1      42.838 -15.640   4.804  1.00  0.00    -0.333 N 
HETATM    2  C   UNL     1      43.582 -15.310   5.893  1.00  0.00     0.322 C 
HETATM    3  N   UNL     1      44.167 -16.316   6.591  1.00  0.00    -0.287 N 
HETATM    4  O   UNL     1      43.812 -14.141   6.197  1.00  0.00    -0.247 OA
HETATM    5  H   UNL     1      42.547 -16.617   4.778  1.00  0.00     0.165 HD
HETATM    6  H   UNL     1      44.735 -16.048   7.383  1.00  0.00     0.172 HD
ENDROOT
BRANCH   1   7
HETATM    7  C   UNL     1      42.057 -14.703   4.009  1.00  0.00     0.145 C 
BRANCH   7   8
HETATM    8  C   UNL     1      40.712 -14.210   4.629  1.00  0.00     0.263 C 
BRANCH   8   9
HETATM    9  N   UNL     1      40.811 -12.995   5.556  1.00  0.00    -0.076 N 
HETATM   10  C   UNL     1      39.542 -12.661   6.279  1.00  0.00     0.269 C 
HETATM   11  H   UNL     1      41.478 -13.291   6.279  1.00  0.00     0.279 HD
HETATM   12  C   UNL     1      41.443 -11.786   4.930  1.00  0.00     0.269 C 
ENDBRANCH   8   9
ENDBRANCH   7   8
BRANCH   7  13
HETATM   13  C   UNL     1      41.859 -15.194   2.583  1.00  0.00    -0.034 A 
HETATM   14  C   UNL     1      41.348 -14.318   1.608  1.00  0.00     0.009 A 
HETATM   15  C   UNL     1      41.111 -14.760   0.304  1.00  0.00     0.001 A 
HETATM   16  C   UNL     1      41.391 -16.077  -0.049  1.00  0.00     0.000 A 
HETATM   17  C   UNL     1      41.914 -16.952   0.899  1.00  0.00     0.001 A 
HETATM   18  C   UNL     1      42.147 -16.514   2.205  1.00  0.00     0.009 A 
ENDBRANCH   7  13
ENDBRANCH   1   7
BRANCH   3  19
HETATM   19  C   UNL     1      44.124 -17.642   6.270  1.00  0.00     0.175 A 
HETATM   20  S   UNL     1      44.004 -18.695   7.602  1.00  0.00    -0.061 SA
HETATM   21  C   UNL     1      44.101 -20.028   6.523  1.00  0.00     0.086 A 
HETATM   22  C   UNL     1      44.193 -19.566   5.223  1.00  0.00     0.078 A 
HETATM   23  N   UNL     1      44.199 -18.186   5.080  1.00  0.00    -0.223 NA
BRANCH  22  24
HETATM   24  C   UNL     1      44.262 -20.443   4.074  1.00  0.00     0.011 A 
HETATM   25  C   UNL     1      44.655 -21.772   4.192  1.00  0.00     0.130 A 
HETATM   26  N   UNL     1      44.735 -22.634   3.151  1.00  0.00    -0.272 NA
HETATM   27  C   UNL     1      44.393 -22.153   1.936  1.00  0.00     0.116 A 
HETATM   28  C   UNL     1      43.993 -20.845   1.713  1.00  0.00     0.020 A 
HETATM   29  C   UNL     1      43.936 -19.975   2.800  1.00  0.00     0.017 A 
ENDBRANCH  22  24
ENDBRANCH   3  19
TORSDOF 6
ENDMDL
MODEL 3
REMARK VINA RESULT:      -7.7      1.471      2.156
REMARK  6 active torsions:
REMARK  status: ('A' for Active; 'I' for Inactive)
REMARK    1  A    between atoms: N_2  and  C_4 
REMARK    2  A    between atoms: C_4  and  C_5 
REMARK    3  A    between atoms: C_5  and  N_6 
REMARK    4  A    between atoms: C_5  and  C_21 
REMARK       I    between atoms: N_6  and  C_7 
REMARK       I    between atoms: C_7  and  N_8 
REMARK    5  A    between atoms: N_8  and  C_9 
REMARK    6  A    between atoms: C_12  and  C_13 
ROOT
HETATM    1  N   UNL     1      41.918 -16.756   4.385  1.00  0.00    -0.333 N 
HETATM    2  C   UNL     1      40.914 -16.067   4.990  1.00  0.00     0.322 C 
HETATM    3  N   UNL     1      40.238 -15.152   4.252  1.00  0.00    -0.287 N 
HETATM    4  O   UNL     1      40.550 -16.317   6.137  1.00  0.00    -0.247 OA
HETATM    5  H   UNL     1      42.264 -16.324   3.528  1.00  0.00     0.165 HD
HETATM    6  H   UNL     1      39.480 -14.667   4.713  1.00  0.00     0.172 HD
ENDROOT
BRANCH   1   7
HETATM    7  C   UNL     1      42.812 -17.691   5.053  1.00  0.00     0.145 C 
BRANCH   7   8
HETATM    8  C   UNL     1      43.974 -17.071   5.891  1.00  0.00     0.263 C 
BRANCH   8   9
HETATM    9  N   UNL     1      43.550 -16.248   7.111  1.00  0.00    -0.076 N 
HETATM   10  C   UNL     1      44.314 -14.972   7.295  1.00  0.00     0.269 C 
HETATM   11  H   UNL     1      42.584 -15.971   6.897  1.00  0.00     0.279 HD
HETATM   12  C   UNL     1      43.445 -17.035   8.385  1.00  0.00     0.269 C 
ENDBRANCH   8   9
ENDBRANCH   7   8
BRANCH   7  13
HETATM   13  C   UNL     1      43.328 -18.762   4.104  1.00  0.00    -0.034 A 
HETATM   14  C   UNL     1      44.284 -19.691   4.553  1.00  0.00     0.009 A 
HETATM   15  C   UNL     1      44.808 -20.653   3.686  1.00  0.00     0.001 A 
HETATM   16  C   UNL     1      44.380 -20.707   2.362  1.00  0.00     0.000 A 
HETATM   17  C   UNL     1      43.423 -19.806   1.905  1.00  0.00     0.001 A 
HETATM   18  C   UNL     1      42.900 -18.840   2.769  1.00  0.00     0.009 A 
ENDBRANCH   7  13
ENDBRANCH   1   7
BRANCH   3  19
HETATM   19  C   UNL     1      40.435 -14.889   2.927  1.00  0.00     0.175 A 
HETATM   20  S   UNL     1      39.765 -16.037   1.864  1.00  0.00    -0.061 SA
HETATM   21  C   UNL     1      40.444 -15.174   0.544  1.00  0.00     0.086 A 
HETATM   22  C   UNL     1      41.112 -14.058   1.016  1.00  0.00     0.078 A 
HETATM   23  N   UNL     1      41.098 -13.893   2.393  1.00  0.00    -0.223 NA
BRANCH  22  24
HETATM   24  C   UNL     1      41.772 -13.105   0.149  1.00  0.00     0.011 A 
HETATM   25  C   UNL     1      42.242 -11.887   0.627  1.00  0.00     0.130 A 
HETATM   26  N   UNL     1      42.867 -10.962  -0.140  1.00  0.00    -0.272 NA
HETATM   27  C   UNL     1      43.045 -11.273  -1.442  1.00  0.00     0.116 A 
HETATM   28  C   UNL     1      42.610 -12.457  -2.015  1.00  0.00     0.020 A 
HETATM   29  C   UNL     1      41.955 -13.384  -1.206  1.00  0.00     0.017 A 
ENDBRANCH  22  24
ENDBRANCH   3  19
TORSDOF 6
ENDMDL
MODEL 4
REMARK VINA RESULT:      -7.7      2.373      7.915
REMARK  6 active torsions:
REMARK  status: ('A' for Active; 'I' for Inactive)
REMARK    1  A    between atoms: N_2  and  C_4 
REMARK    2  A    between atoms: C_4  and  C_5 
REMARK    3  A    between atoms: C_5  and  N_6 
REMARK    4  A    between atoms: C_5  and  C_21 
REMARK       I    between atoms: N_6  and  C_7 
REMARK       I    between atoms: C_7  and  N_8 
REMARK    5  A    between atoms: N_8  and  C_9 
REMARK    6  A    between atoms: C_12  and  C_13 
ROOT
HETATM    1  N   UNL     1      40.259 -14.843   0.424  1.00  0.00    -0.333 N 
HETATM    2  C   UNL     1      39.214 -14.895   1.292  1.00  0.00     0.322 C 
HETATM    3  N   UNL     1      39.406 -15.519   2.481  1.00  0.00    -0.287 N 
HETATM    4  O   UNL     1      38.151 -14.317   1.071  1.00  0.00    -0.247 OA
HETATM    5  H   UNL     1      40.995 -15.522   0.616  1.00  0.00     0.165 HD
HETATM    6  H   UNL     1      38.625 -15.527   3.122  1.00  0.00     0.172 HD
ENDROOT
BRANCH   1   7
HETATM    7  C   UNL     1      40.197 -14.310  -0.929  1.00  0.00     0.145 C 
BRANCH   7   8
HETATM    8  C   UNL     1      40.221 -15.350  -2.093  1.00  0.00     0.263 C 
BRANCH   8   9
HETATM    9  N   UNL     1      38.898 -15.545  -2.839  1.00  0.00    -0.076 N 
HETATM   10  C   UNL     1      39.043 -16.096  -4.226  1.00  0.00     0.269 C 
HETATM   11  H   UNL     1      38.414 -16.271  -2.296  1.00  0.00     0.279 HD
HETATM   12  C   UNL     1      37.978 -14.361  -2.793  1.00  0.00     0.269 C 
ENDBRANCH   8   9
ENDBRANCH   7   8
BRANCH   7  13
HETATM   13  C   UNL     1      41.221 -13.208  -1.155  1.00  0.00    -0.034 A 
HETATM   14  C   UNL     1      41.530 -12.318  -0.110  1.00  0.00     0.009 A 
HETATM   15  C   UNL     1      42.430 -11.269  -0.307  1.00  0.00     0.001 A 
HETATM   16  C   UNL     1      43.043 -11.098  -1.546  1.00  0.00     0.000 A 
HETATM   17  C   UNL     1      42.761 -11.979  -2.586  1.00  0.00     0.001 A 
HETATM   18  C   UNL     1      41.857 -13.027  -2.392  1.00  0.00     0.009 A 
ENDBRANCH   7  13
ENDBRANCH   1   7
BRANCH   3  19
HETATM   19  C   UNL     1      40.580 -16.063   2.918  1.00  0.00     0.175 A 
HETATM   20  S   UNL     1      41.525 -15.034   3.890  1.00  0.00    -0.061 SA
HETATM   21  C   UNL     1      42.740 -16.246   3.946  1.00  0.00     0.086 A 
HETATM   22  C   UNL     1      42.319 -17.357   3.238  1.00  0.00     0.078 A 
HETATM   23  N   UNL     1      41.067 -17.250   2.650  1.00  0.00    -0.223 NA
BRANCH  22  24
HETATM   24  C   UNL     1      43.107 -18.565   3.117  1.00  0.00     0.011 A 
HETATM   25  C   UNL     1      44.034 -18.932   4.088  1.00  0.00     0.130 A 
HETATM   26  N   UNL     1      44.795 -20.050   4.025  1.00  0.00    -0.272 NA
HETATM   27  C   UNL     1      44.612 -20.849   2.951  1.00  0.00     0.116 A 
HETATM   28  C   UNL     1      43.718 -20.570   1.930  1.00  0.00     0.020 A 
HETATM   29  C   UNL     1      42.960 -19.404   2.011  1.00  0.00     0.017 A 
ENDBRANCH  22  24
ENDBRANCH   3  19
TORSDOF 6
ENDMDL
MODEL 5
REMARK VINA RESULT:      -7.4      2.616      7.322
REMARK  6 active torsions:
REMARK  status: ('A' for Active; 'I' for Inactive)
REMARK    1  A    between atoms: N_2  and  C_4 
REMARK    2  A    between atoms: C_4  and  C_5 
REMARK    3  A    between atoms: C_5  and  N_6 
REMARK    4  A    between atoms: C_5  and  C_21 
REMARK       I    between atoms: N_6  and  C_7 
REMARK       I    between atoms: C_7  and  N_8 
REMARK    5  A    between atoms: N_8  and  C_9 
REMARK    6  A    between atoms: C_12  and  C_13 
ROOT
HETATM    1  N   UNL     1      41.132 -14.345   1.489  1.00  0.00    -0.333 N 
HETATM    2  C   UNL     1      42.246 -13.677   1.890  1.00  0.00     0.322 C 
HETATM    3  N   UNL     1      43.096 -14.309   2.737  1.00  0.00    -0.287 N 
HETATM    4  O   UNL     1      42.544 -12.574   1.436  1.00  0.00    -0.247 OA
HETATM    5  H   UNL     1      40.886 -15.138   2.081  1.00  0.00     0.165 HD
HETATM    6  H   UNL     1      43.930 -13.805   3.004  1.00  0.00     0.172 HD
ENDROOT
BRANCH   1   7
HETATM    7  C   UNL     1      40.066 -13.782   0.673  1.00  0.00     0.145 C 
BRANCH   7   8
HETATM    8  C   UNL     1      38.628 -13.814   1.281  1.00  0.00     0.263 C 
BRANCH   8   9
HETATM    9  N   UNL     1      38.010 -12.451   1.603  1.00  0.00    -0.076 N 
HETATM   10  C   UNL     1      36.886 -12.050   0.697  1.00  0.00     0.269 C 
HETATM   11  H   UNL     1      37.590 -12.583   2.531  1.00  0.00     0.279 HD
HETATM   12  C   UNL     1      39.008 -11.345   1.792  1.00  0.00     0.269 C 
ENDBRANCH   8   9
ENDBRANCH   7   8
BRANCH   7  13
HETATM   13  C   UNL     1      40.078 -14.338  -0.743  1.00  0.00    -0.034 A 
HETATM   14  C   UNL     1      39.061 -13.975  -1.644  1.00  0.00     0.009 A 
HETATM   15  C   UNL     1      39.024 -14.510  -2.933  1.00  0.00     0.001 A 
HETATM   16  C   UNL     1      40.005 -15.408  -3.345  1.00  0.00     0.000 A 
HETATM   17  C   UNL     1      41.028 -15.765  -2.472  1.00  0.00     0.001 A 
HETATM   18  C   UNL     1      41.066 -15.234  -1.180  1.00  0.00     0.009 A 
ENDBRANCH   7  13
ENDBRANCH   1   7
BRANCH   3  19
HETATM   19  C   UNL     1      42.966 -15.590   3.192  1.00  0.00     0.175 A 
HETATM   20  S   UNL     1      42.038 -15.755   4.609  1.00  0.00    -0.061 SA
HETATM   21  C   UNL     1      42.387 -17.436   4.611  1.00  0.00     0.086 A 
HETATM   22  C   UNL     1      43.167 -17.748   3.512  1.00  0.00     0.078 A 
HETATM   23  N   UNL     1      43.495 -16.680   2.691  1.00  0.00    -0.223 NA
BRANCH  22  24
HETATM   24  C   UNL     1      43.610 -19.093   3.212  1.00  0.00     0.011 A 
HETATM   25  C   UNL     1      44.459 -19.790   4.066  1.00  0.00     0.130 A 
HETATM   26  N   UNL     1      44.901 -21.049   3.834  1.00  0.00    -0.272 NA
HETATM   27  C   UNL     1      44.464 -21.647   2.704  1.00  0.00     0.116 A 
HETATM   28  C   UNL     1      43.622 -21.037   1.789  1.00  0.00     0.020 A 
HETATM   29  C   UNL     1      43.196 -19.735   2.044  1.00  0.00     0.017 A 
ENDBRANCH  22  24
ENDBRANCH   3  19
TORSDOF 6
ENDMDL
MODEL 6
REMARK VINA RESULT:      -7.4      1.988      2.475
REMARK  6 active torsions:
REMARK  status: ('A' for Active; 'I' for Inactive)
REMARK    1  A    between atoms: N_2  and  C_4 
REMARK    2  A    between atoms: C_4  and  C_5 
REMARK    3  A    between atoms: C_5  and  N_6 
REMARK    4  A    between atoms: C_5  and  C_21 
REMARK       I    between atoms: N_6  and  C_7 
REMARK       I    between atoms: C_7  and  N_8 
REMARK    5  A    between atoms: N_8  and  C_9 
REMARK    6  A    between atoms: C_12  and  C_13 
ROOT
HETATM    1  N   UNL     1      41.484 -15.038   3.756  1.00  0.00    -0.333 N 
HETATM    2  C   UNL     1      40.366 -14.476   4.287  1.00  0.00     0.322 C 
HETATM    3  N   UNL     1      39.600 -13.701   3.478  1.00  0.00    -0.287 N 
HETATM    4  O   UNL     1      39.988 -14.726   5.430  1.00  0.00    -0.247 OA
HETATM    5  H   UNL     1      41.803 -14.598   2.893  1.00  0.00     0.165 HD
HETATM    6  H   UNL     1      38.760 -13.312   3.885  1.00  0.00     0.172 HD
ENDROOT
BRANCH   1   7
HETATM    7  C   UNL     1      42.471 -15.804   4.503  1.00  0.00     0.145 C 
BRANCH   7   8
HETATM    8  C   UNL     1      43.577 -14.987   5.244  1.00  0.00     0.263 C 
BRANCH   8   9
HETATM    9  N   UNL     1      43.499 -14.994   6.773  1.00  0.00    -0.076 N 
HETATM   10  C   UNL     1      44.511 -14.121   7.450  1.00  0.00     0.269 C 
HETATM   11  H   UNL     1      42.583 -14.574   6.975  1.00  0.00     0.279 HD
HETATM   12  C   UNL     1      43.430 -16.363   7.385  1.00  0.00     0.269 C 
ENDBRANCH   8   9
ENDBRANCH   7   8
BRANCH   7  13
HETATM   13  C   UNL     1      43.078 -16.920   3.667  1.00  0.00    -0.034 A 
HETATM   14  C   UNL     1      43.553 -16.642   2.372  1.00  0.00     0.009 A 
HETATM   15  C   UNL     1      44.070 -17.659   1.567  1.00  0.00     0.001 A 
HETATM   16  C   UNL     1      44.129 -18.966   2.044  1.00  0.00     0.000 A 
HETATM   17  C   UNL     1      43.679 -19.255   3.329  1.00  0.00     0.001 A 
HETATM   18  C   UNL     1      43.158 -18.240   4.135  1.00  0.00     0.009 A 
ENDBRANCH   7  13
ENDBRANCH   1   7
BRANCH   3  19
HETATM   19  C   UNL     1      39.817 -13.471   2.150  1.00  0.00     0.175 A 
HETATM   20  S   UNL     1      40.344 -11.896   1.775  1.00  0.00    -0.061 SA
HETATM   21  C   UNL     1      40.297 -12.306   0.108  1.00  0.00     0.086 A 
HETATM   22  C   UNL     1      39.906 -13.625  -0.034  1.00  0.00     0.078 A 
HETATM   23  N   UNL     1      39.635 -14.297   1.149  1.00  0.00    -0.223 NA
BRANCH  22  24
HETATM   24  C   UNL     1      39.794 -14.284  -1.317  1.00  0.00     0.011 A 
HETATM   25  C   UNL     1      38.680 -14.113  -2.132  1.00  0.00     0.130 A 
HETATM   26  N   UNL     1      38.526 -14.704  -3.340  1.00  0.00    -0.272 NA
HETATM   27  C   UNL     1      39.539 -15.491  -3.765  1.00  0.00     0.116 A 
HETATM   28  C   UNL     1      40.688 -15.727  -3.027  1.00  0.00     0.020 A 
HETATM   29  C   UNL     1      40.812 -15.120  -1.779  1.00  0.00     0.017 A 
ENDBRANCH  22  24
ENDBRANCH   3  19
TORSDOF 6
ENDMDL
MODEL 7
REMARK VINA RESULT:      -7.3      1.685      2.003
REMARK  6 active torsions:
REMARK  status: ('A' for Active; 'I' for Inactive)
REMARK    1  A    between atoms: N_2  and  C_4 
REMARK    2  A    between atoms: C_4  and  C_5 
REMARK    3  A    between atoms: C_5  and  N_6 
REMARK    4  A    between atoms: C_5  and  C_21 
REMARK       I    between atoms: N_6  and  C_7 
REMARK       I    between atoms: C_7  and  N_8 
REMARK    5  A    between atoms: N_8  and  C_9 
REMARK    6  A    between atoms: C_12  and  C_13 
ROOT
HETATM    1  N   UNL     1      41.829 -16.209   4.992  1.00  0.00    -0.333 N 
HETATM    2  C   UNL     1      40.651 -16.026   5.647  1.00  0.00     0.322 C 
HETATM    3  N   UNL     1      39.745 -15.180   5.098  1.00  0.00    -0.287 N 
HETATM    4  O   UNL     1      40.356 -16.669   6.653  1.00  0.00    -0.247 OA
HETATM    5  H   UNL     1      42.045 -15.483   4.310  1.00  0.00     0.165 HD
HETATM    6  H   UNL     1      38.867 -15.075   5.588  1.00  0.00     0.172 HD
ENDROOT
BRANCH   1   7
HETATM    7  C   UNL     1      42.950 -16.993   5.490  1.00  0.00     0.145 C 
BRANCH   7   8
HETATM    8  C   UNL     1      44.107 -16.202   6.177  1.00  0.00     0.263 C 
BRANCH   8   9
HETATM    9  N   UNL     1      43.895 -14.690   6.305  1.00  0.00    -0.076 N 
HETATM   10  C   UNL     1      43.944 -13.945   5.006  1.00  0.00     0.269 C 
HETATM   11  H   UNL     1      42.929 -14.605   6.644  1.00  0.00     0.279 HD
HETATM   12  C   UNL     1      44.729 -14.034   7.367  1.00  0.00     0.269 C 
ENDBRANCH   8   9
ENDBRANCH   7   8
BRANCH   7  13
HETATM   13  C   UNL     1      43.488 -17.951   4.437  1.00  0.00    -0.034 A 
HETATM   14  C   UNL     1      43.405 -17.608   3.075  1.00  0.00     0.009 A 
HETATM   15  C   UNL     1      43.847 -18.491   2.088  1.00  0.00     0.001 A 
HETATM   16  C   UNL     1      44.386 -19.724   2.445  1.00  0.00     0.000 A 
HETATM   17  C   UNL     1      44.491 -20.073   3.788  1.00  0.00     0.001 A 
HETATM   18  C   UNL     1      44.046 -19.193   4.778  1.00  0.00     0.009 A 
ENDBRANCH   7  13
ENDBRANCH   1   7
BRANCH   3  19
HETATM   19  C   UNL     1      39.880 -14.525   3.908  1.00  0.00     0.175 A 
HETATM   20  S   UNL     1      40.035 -12.835   4.036  1.00  0.00    -0.061 SA
HETATM   21  C   UNL     1      40.048 -12.733   2.321  1.00  0.00     0.086 A 
HETATM   22  C   UNL     1      39.958 -14.003   1.781  1.00  0.00     0.078 A 
HETATM   23  N   UNL     1      39.867 -15.037   2.702  1.00  0.00    -0.223 NA
BRANCH  22  24
HETATM   24  C   UNL     1      39.971 -14.260   0.357  1.00  0.00     0.011 A 
HETATM   25  C   UNL     1      40.927 -15.084  -0.227  1.00  0.00     0.130 A 
HETATM   26  N   UNL     1      40.984 -15.359  -1.552  1.00  0.00    -0.272 NA
HETATM   27  C   UNL     1      40.033 -14.797  -2.330  1.00  0.00     0.116 A 
HETATM   28  C   UNL     1      39.040 -13.960  -1.845  1.00  0.00     0.020 A 
HETATM   29  C   UNL     1      39.016 -13.681  -0.480  1.00  0.00     0.017 A 
ENDBRANCH  22  24
ENDBRANCH   3  19
TORSDOF 6
ENDMDL
MODEL 8
REMARK VINA RESULT:      -7.2      2.608      3.902
REMARK  6 active torsions:
REMARK  status: ('A' for Active; 'I' for Inactive)
REMARK    1  A    between atoms: N_2  and  C_4 
REMARK    2  A    between atoms: C_4  and  C_5 
REMARK    3  A    between atoms: C_5  and  N_6 
REMARK    4  A    between atoms: C_5  and  C_21 
REMARK       I    between atoms: N_6  and  C_7 
REMARK       I    between atoms: C_7  and  N_8 
REMARK    5  A    between atoms: N_8  and  C_9 
REMARK    6  A    between atoms: C_12  and  C_13 
ROOT
HETATM    1  N   UNL     1      41.896 -15.295   1.589  1.00  0.00    -0.333 N 
HETATM    2  C   UNL     1      40.669 -15.801   1.297  1.00  0.00     0.322 C 
HETATM    3  N   UNL     1      40.098 -15.442   0.120  1.00  0.00    -0.287 N 
HETATM    4  O   UNL     1      40.117 -16.633   2.014  1.00  0.00    -0.247 OA
HETATM    5  H   UNL     1      42.150 -14.473   1.043  1.00  0.00     0.165 HD
HETATM    6  H   UNL     1      39.196 -15.847  -0.089  1.00  0.00     0.172 HD
ENDROOT
BRANCH   1   7
HETATM    7  C   UNL     1      42.603 -15.488   2.848  1.00  0.00     0.145 C 
BRANCH   7   8
HETATM    8  C   UNL     1      43.675 -14.416   3.219  1.00  0.00     0.263 C 
BRANCH   8   9
HETATM    9  N   UNL     1      43.320 -13.499   4.393  1.00  0.00    -0.076 N 
HETATM   10  C   UNL     1      43.368 -14.163   5.736  1.00  0.00     0.269 C 
HETATM   11  H   UNL     1      44.075 -12.801   4.397  1.00  0.00     0.279 HD
HETATM   12  C   UNL     1      42.065 -12.699   4.200  1.00  0.00     0.269 C 
ENDBRANCH   8   9
ENDBRANCH   7   8
BRANCH   7  13
HETATM   13  C   UNL     1      43.165 -16.896   2.975  1.00  0.00    -0.034 A 
HETATM   14  C   UNL     1      43.690 -17.543   1.841  1.00  0.00     0.009 A 
HETATM   15  C   UNL     1      44.167 -18.853   1.923  1.00  0.00     0.001 A 
HETATM   16  C   UNL     1      44.136 -19.533   3.137  1.00  0.00     0.000 A 
HETATM   17  C   UNL     1      43.636 -18.903   4.272  1.00  0.00     0.001 A 
HETATM   18  C   UNL     1      43.154 -17.593   4.193  1.00  0.00     0.009 A 
ENDBRANCH   7  13
ENDBRANCH   1   7
BRANCH   3  19
HETATM   19  C   UNL     1      40.668 -14.653  -0.838  1.00  0.00     0.175 A 
HETATM   20  S   UNL     1      40.866 -15.401  -2.354  1.00  0.00    -0.061 SA
HETATM   21  C   UNL     1      41.649 -13.982  -2.922  1.00  0.00     0.086 A 
HETATM   22  C   UNL     1      41.677 -13.034  -1.915  1.00  0.00     0.078 A 
HETATM   23  N   UNL     1      41.103 -13.423  -0.714  1.00  0.00    -0.223 NA
BRANCH  22  24
HETATM   24  C   UNL     1      42.246 -11.714  -2.086  1.00  0.00     0.011 A 
HETATM   25  C   UNL     1      41.980 -10.945  -3.213  1.00  0.00     0.130 A 
HETATM   26  N   UNL     1      42.485  -9.705  -3.421  1.00  0.00    -0.272 NA
HETATM   27  C   UNL     1      43.281  -9.203  -2.453  1.00  0.00     0.116 A 
HETATM   28  C   UNL     1      43.609  -9.892  -1.295  1.00  0.00     0.020 A 
HETATM   29  C   UNL     1      43.090 -11.172  -1.115  1.00  0.00     0.017 A 
ENDBRANCH  22  24
ENDBRANCH   3  19
TORSDOF 6
ENDMDL
MODEL 9
REMARK VINA RESULT:      -7.1      2.438      6.516
REMARK  6 active torsions:
REMARK  status: ('A' for Active; 'I' for Inactive)
REMARK    1  A    between atoms: N_2  and  C_4 
REMARK    2  A    between atoms: C_4  and  C_5 
REMARK    3  A    between atoms: C_5  and  N_6 
REMARK    4  A    between atoms: C_5  and  C_21 
REMARK       I    between atoms: N_6  and  C_7 
REMARK       I    between atoms: C_7  and  N_8 
REMARK    5  A    between atoms: N_8  and  C_9 
REMARK    6  A    between atoms: C_12  and  C_13 
ROOT
HETATM    1  N   UNL     1      41.395 -14.879   4.394  1.00  0.00    -0.333 N 
HETATM    2  C   UNL     1      40.948 -14.718   5.668  1.00  0.00     0.322 C 
HETATM    3  N   UNL     1      41.356 -15.614   6.602  1.00  0.00    -0.287 N 
HETATM    4  O   UNL     1      40.277 -13.746   6.007  1.00  0.00    -0.247 OA
HETATM    5  H   UNL     1      41.754 -15.812   4.192  1.00  0.00     0.165 HD
HETATM    6  H   UNL     1      41.033 -15.463   7.547  1.00  0.00     0.172 HD
ENDROOT
BRANCH   1   7
HETATM    7  C   UNL     1      40.974 -14.079   3.252  1.00  0.00     0.145 C 
BRANCH   7   8
HETATM    8  C   UNL     1      39.581 -13.383   3.361  1.00  0.00     0.263 C 
BRANCH   8   9
HETATM    9  N   UNL     1      39.602 -11.852   3.389  1.00  0.00    -0.076 N 
HETATM   10  C   UNL     1      40.966 -11.253   3.554  1.00  0.00     0.269 C 
HETATM   11  H   UNL     1      39.288 -11.584   2.447  1.00  0.00     0.279 HD
HETATM   12  C   UNL     1      38.595 -11.233   4.314  1.00  0.00     0.269 C 
ENDBRANCH   8   9
ENDBRANCH   7   8
BRANCH   7  13
HETATM   13  C   UNL     1      41.107 -14.842   1.943  1.00  0.00    -0.034 A 
HETATM   14  C   UNL     1      41.198 -16.246   1.959  1.00  0.00     0.009 A 
HETATM   15  C   UNL     1      41.370 -16.965   0.774  1.00  0.00     0.001 A 
HETATM   16  C   UNL     1      41.445 -16.295  -0.444  1.00  0.00     0.000 A 
HETATM   17  C   UNL     1      41.340 -14.908  -0.480  1.00  0.00     0.001 A 
HETATM   18  C   UNL     1      41.172 -14.186   0.704  1.00  0.00     0.009 A 
ENDBRANCH   7  13
ENDBRANCH   1   7
BRANCH   3  19
HETATM   19  C   UNL     1      42.226 -16.645   6.394  1.00  0.00     0.175 A 
HETATM   20  S   UNL     1      43.300 -16.944   7.681  1.00  0.00    -0.061 SA
HETATM   21  C   UNL     1      44.052 -18.164   6.735  1.00  0.00     0.086 A 
HETATM   22  C   UNL     1      43.409 -18.267   5.516  1.00  0.00     0.078 A 
HETATM   23  N   UNL     1      42.349 -17.392   5.325  1.00  0.00    -0.223 NA
BRANCH  22  24
HETATM   24  C   UNL     1      43.787 -19.226   4.500  1.00  0.00     0.011 A 
HETATM   25  C   UNL     1      44.547 -20.351   4.804  1.00  0.00     0.130 A 
HETATM   26  N   UNL     1      44.926 -21.278   3.893  1.00  0.00    -0.272 NA
HETATM   27  C   UNL     1      44.515 -21.084   2.621  1.00  0.00     0.116 A 
HETATM   28  C   UNL     1      43.759 -19.995   2.216  1.00  0.00     0.020 A 
HETATM   29  C   UNL     1      43.398 -19.047   3.171  1.00  0.00     0.017 A 
ENDBRANCH  22  24
ENDBRANCH   3  19
TORSDOF 6
ENDMDL
MODEL 10
REMARK VINA RESULT:      -7.1      1.432      2.088
REMARK  6 active torsions:
REMARK  status: ('A' for Active; 'I' for Inactive)
REMARK    1  A    between atoms: N_2  and  C_4 
REMARK    2  A    between atoms: C_4  and  C_5 
REMARK    3  A    between atoms: C_5  and  N_6 
REMARK    4  A    between atoms: C_5  and  C_21 
REMARK       I    between atoms: N_6  and  C_7 
REMARK       I    between atoms: C_7  and  N_8 
REMARK    5  A    between atoms: N_8  and  C_9 
REMARK    6  A    between atoms: C_12  and  C_13 
ROOT
HETATM    1  N   UNL     1      42.455 -17.218   4.991  1.00  0.00    -0.333 N 
HETATM    2  C   UNL     1      41.734 -16.453   5.854  1.00  0.00     0.322 C 
HETATM    3  N   UNL     1      41.405 -15.196   5.466  1.00  0.00    -0.287 N 
HETATM    4  O   UNL     1      41.301 -16.898   6.915  1.00  0.00    -0.247 OA
HETATM    5  H   UNL     1      42.930 -16.688   4.260  1.00  0.00     0.165 HD
HETATM    6  H   UNL     1      40.849 -14.652   6.111  1.00  0.00     0.172 HD
ENDROOT
BRANCH   1   7
HETATM    7  C   UNL     1      42.983 -18.542   5.287  1.00  0.00     0.145 C 
BRANCH   7   8
HETATM    8  C   UNL     1      44.087 -18.626   6.387  1.00  0.00     0.263 C 
BRANCH   8   9
HETATM    9  N   UNL     1      43.663 -19.270   7.710  1.00  0.00    -0.076 N 
HETATM   10  C   UNL     1      44.401 -18.764   8.911  1.00  0.00     0.269 C 
HETATM   11  H   UNL     1      42.688 -18.967   7.829  1.00  0.00     0.279 HD
HETATM   12  C   UNL     1      43.592 -20.768   7.677  1.00  0.00     0.269 C 
ENDBRANCH   8   9
ENDBRANCH   7   8
BRANCH   7  13
HETATM   13  C   UNL     1      43.405 -19.281   4.026  1.00  0.00    -0.034 A 
HETATM   14  C   UNL     1      44.337 -20.331   4.111  1.00  0.00     0.009 A 
HETATM   15  C   UNL     1      44.776 -20.992   2.961  1.00  0.00     0.001 A 
HETATM   16  C   UNL     1      44.284 -20.621   1.712  1.00  0.00     0.000 A 
HETATM   17  C   UNL     1      43.349 -19.596   1.611  1.00  0.00     0.001 A 
HETATM   18  C   UNL     1      42.911 -18.930   2.759  1.00  0.00     0.009 A 
ENDBRANCH   7  13
ENDBRANCH   1   7
BRANCH   3  19
HETATM   19  C   UNL     1      41.686 -14.634   4.253  1.00  0.00     0.175 A 
HETATM   20  S   UNL     1      42.558 -13.174   4.328  1.00  0.00    -0.061 SA
HETATM   21  C   UNL     1      42.442 -13.048   2.619  1.00  0.00     0.086 A 
HETATM   22  C   UNL     1      41.766 -14.146   2.119  1.00  0.00     0.078 A 
HETATM   23  N   UNL     1      41.337 -15.064   3.066  1.00  0.00    -0.223 NA
BRANCH  22  24
HETATM   24  C   UNL     1      41.526 -14.352   0.707  1.00  0.00     0.011 A 
HETATM   25  C   UNL     1      41.371 -15.626   0.170  1.00  0.00     0.130 A 
HETATM   26  N   UNL     1      41.143 -15.874  -1.141  1.00  0.00    -0.272 NA
HETATM   27  C   UNL     1      41.051 -14.799  -1.955  1.00  0.00     0.116 A 
HETATM   28  C   UNL     1      41.195 -13.492  -1.520  1.00  0.00     0.020 A 
HETATM   29  C   UNL     1      41.445 -13.267  -0.168  1.00  0.00     0.017 A 
ENDBRANCH  22  24
ENDBRANCH   3  19
TORSDOF 6
ENDMDL
