MODEL 1
REMARK VINA RESULT:      -7.9      0.000      0.000
REMARK  6 active torsions:
REMARK  status: ('A' for Active; 'I' for Inactive)
REMARK    1  A    between atoms: C_9  and  C_10 
REMARK    2  A    between atoms: C_12  and  O_13 
REMARK    3  A    between atoms: C_15  and  O_16 
REMARK    4  A    between atoms: O_16  and  C_17 
REMARK    5  A    between atoms: C_17  and  C_18 
REMARK    6  A    between atoms: C_18  and  N_19 
ROOT
HETATM    1  H   UNL     1      37.381 -11.973   4.733  1.00  0.00     0.186 HD
HETATM    2  N   UNL     1      38.333 -11.630   4.931  1.00  0.00    -0.304 NA
HETATM    3  C   UNL     1      39.169 -11.750   3.946  1.00  0.00     0.062 C 
HETATM    4  C   UNL     1      40.615 -11.234   4.083  1.00  0.00     0.173 C 
HETATM    5  C   UNL     1      40.764 -10.005   3.201  1.00  0.00     0.012 C 
HETATM    6  N   UNL     1      40.888  -8.986   2.470  1.00  0.00    -0.099 N 
HETATM    7  C   UNL     1      40.920 -10.821   5.474  1.00  0.00     0.090 C 
HETATM    8  N   UNL     1      41.240 -10.554   6.558  1.00  0.00    -0.195 NA
HETATM    9  C   UNL     1      41.635 -12.342   3.626  1.00  0.00     0.070 C 
HETATM   10  C   UNL     1      41.261 -12.940   2.232  1.00  0.00     0.053 C 
HETATM   11  C   UNL     1      39.813 -13.407   2.176  1.00  0.00    -0.052 C 
HETATM   12  C   UNL     1      39.495 -14.596   1.620  1.00  0.00     0.005 C 
HETATM   13  C   UNL     1      38.742 -12.433   2.647  1.00  0.00     0.171 C 
HETATM   14  C   UNL     1      38.456 -11.462   1.581  1.00  0.00     0.074 C 
HETATM   15  N   UNL     1      38.292 -10.753   0.680  1.00  0.00    -0.196 NA
HETATM   16  C   UNL     1      42.279 -14.012   1.755  1.00  0.00     0.244 C 
HETATM   17  N   UNL     1      41.753 -14.787   0.572  1.00  0.00    -0.071 N 
HETATM   18  H   UNL     1      42.438 -15.527   0.368  1.00  0.00     0.279 HD
HETATM   19  C   UNL     1      41.661 -13.988  -0.705  1.00  0.00     0.270 C 
HETATM   20  C   UNL     1      40.472 -15.498   0.927  1.00  0.00     0.262 C 
ENDROOT
BRANCH   9  21
HETATM   21  C   UNL     1      41.927 -13.402   4.706  1.00  0.00    -0.047 A 
HETATM   22  C   UNL     1      43.171 -13.527   5.344  1.00  0.00     0.047 A 
HETATM   23  C   UNL     1      43.458 -14.648   6.139  1.00  0.00     0.102 A 
HETATM   24  C   UNL     1      42.484 -15.621   6.394  1.00  0.00     0.102 A 
HETATM   25  C   UNL     1      41.213 -15.449   5.849  1.00  0.00     0.040 A 
HETATM   26  C   UNL     1      40.945 -14.367   4.996  1.00  0.00     0.010 A 
BRANCH  23  27
HETATM   27  O   UNL     1      44.704 -14.816   6.696  1.00  0.00    -0.353 OA
HETATM   28  C   UNL     1      45.121 -13.661   7.433  1.00  0.00     0.210 C 
ENDBRANCH  23  27
BRANCH  24  29
HETATM   29  O   UNL     1      42.870 -16.692   7.161  1.00  0.00    -0.347 OA
BRANCH  29  30
HETATM   30  C   UNL     1      42.836 -17.976   6.530  1.00  0.00     0.203 C 
BRANCH  30  31
HETATM   31  C   UNL     1      44.241 -18.298   5.998  1.00  0.00     0.261 C 
BRANCH  31  32
HETATM   32  N   UNL     1      44.232 -18.639   4.519  1.00  0.00    -0.065 N 
HETATM   33  H   UNL     1      44.924 -18.012   4.079  1.00  0.00     0.280 HD
HETATM   34  C   UNL     1      44.647 -20.072   4.211  1.00  0.00     0.261 C 
HETATM   35  C   UNL     1      44.566 -20.325   2.701  1.00  0.00     0.195 C 
HETATM   36  O   UNL     1      43.249 -20.065   2.208  1.00  0.00    -0.388 OA
HETATM   37  C   UNL     1      42.872 -18.699   2.408  1.00  0.00     0.195 C 
HETATM   38  C   UNL     1      42.864 -18.347   3.899  1.00  0.00     0.261 C 
ENDBRANCH  31  32
ENDBRANCH  30  31
ENDBRANCH  29  30
ENDBRANCH  24  29
ENDBRANCH   9  21
TORSDOF 6
ENDMDL
MODEL 2
REMARK VINA RESULT:      -7.8      2.424      3.741
REMARK  6 active torsions:
REMARK  status: ('A' for Active; 'I' for Inactive)
REMARK    1  A    between atoms: C_9  and  C_10 
REMARK    2  A    between atoms: C_12  and  O_13 
REMARK    3  A    between atoms: C_15  and  O_16 
REMARK    4  A    between atoms: O_16  and  C_17 
REMARK    5  A    between atoms: C_17  and  C_18 
REMARK    6  A    between atoms: C_18  and  N_19 
ROOT
HETATM    1  H   UNL     1      36.654 -14.722   0.323  1.00  0.00     0.186 HD
HETATM    2  N   UNL     1      37.237 -14.060   0.856  1.00  0.00    -0.304 NA
HETATM    3  C   UNL     1      38.069 -13.370   0.139  1.00  0.00     0.062 C 
HETATM    4  C   UNL     1      38.969 -12.305   0.797  1.00  0.00     0.173 C 
HETATM    5  C   UNL     1      38.474 -10.934   0.362  1.00  0.00     0.012 C 
HETATM    6  N   UNL     1      38.065  -9.798   0.002  1.00  0.00    -0.099 N 
HETATM    7  C   UNL     1      38.887 -12.357   2.277  1.00  0.00     0.090 C 
HETATM    8  N   UNL     1      38.923 -12.400   3.436  1.00  0.00    -0.195 NA
HETATM    9  C   UNL     1      40.464 -12.498   0.343  1.00  0.00     0.070 C 
HETATM   10  C   UNL     1      40.590 -12.625  -1.209  1.00  0.00     0.053 C 
HETATM   11  C   UNL     1      39.656 -13.683  -1.779  1.00  0.00    -0.052 C 
HETATM   12  C   UNL     1      40.095 -14.561  -2.706  1.00  0.00     0.005 C 
HETATM   13  C   UNL     1      38.192 -13.624  -1.363  1.00  0.00     0.171 C 
HETATM   14  C   UNL     1      37.495 -12.601  -2.156  1.00  0.00     0.074 C 
HETATM   15  N   UNL     1      37.033 -11.786  -2.835  1.00  0.00    -0.196 NA
HETATM   16  C   UNL     1      42.065 -12.782  -1.671  1.00  0.00     0.244 C 
HETATM   17  N   UNL     1      42.149 -13.202  -3.118  1.00  0.00    -0.071 N 
HETATM   18  H   UNL     1      43.143 -13.368  -3.326  1.00  0.00     0.279 HD
HETATM   19  C   UNL     1      41.724 -12.138  -4.100  1.00  0.00     0.270 C 
HETATM   20  C   UNL     1      41.458 -14.525  -3.331  1.00  0.00     0.262 C 
ENDROOT
BRANCH   9  21
HETATM   21  C   UNL     1      41.213 -13.593   1.126  1.00  0.00    -0.047 A 
HETATM   22  C   UNL     1      42.213 -13.315   2.070  1.00  0.00     0.047 A 
HETATM   23  C   UNL     1      43.026 -14.343   2.576  1.00  0.00     0.102 A 
HETATM   24  C   UNL     1      42.801 -15.679   2.227  1.00  0.00     0.102 A 
HETATM   25  C   UNL     1      41.741 -15.974   1.371  1.00  0.00     0.040 A 
HETATM   26  C   UNL     1      40.974 -14.943   0.808  1.00  0.00     0.010 A 
BRANCH  23  27
HETATM   27  O   UNL     1      44.062 -14.062   3.437  1.00  0.00    -0.353 OA
HETATM   28  C   UNL     1      43.596 -13.780   4.761  1.00  0.00     0.210 C 
ENDBRANCH  23  27
BRANCH  24  29
HETATM   29  O   UNL     1      43.666 -16.607   2.754  1.00  0.00    -0.347 OA
BRANCH  29  30
HETATM   30  C   UNL     1      43.099 -17.579   3.638  1.00  0.00     0.203 C 
BRANCH  30  31
HETATM   31  C   UNL     1      44.203 -18.558   4.063  1.00  0.00     0.261 C 
BRANCH  31  32
HETATM   32  N   UNL     1      43.911 -19.982   3.626  1.00  0.00    -0.065 N 
HETATM   33  H   UNL     1      42.972 -20.203   3.993  1.00  0.00     0.280 HD
HETATM   34  C   UNL     1      43.873 -20.171   2.115  1.00  0.00     0.261 C 
HETATM   35  C   UNL     1      43.612 -21.644   1.781  1.00  0.00     0.195 C 
HETATM   36  O   UNL     1      44.606 -22.487   2.370  1.00  0.00    -0.388 OA
HETATM   37  C   UNL     1      44.600 -22.391   3.798  1.00  0.00     0.195 C 
HETATM   38  C   UNL     1      44.908 -20.960   4.250  1.00  0.00     0.261 C 
ENDBRANCH  31  32
ENDBRANCH  30  31
ENDBRANCH  29  30
ENDBRANCH  24  29
ENDBRANCH   9  21
TORSDOF 6
ENDMDL
MODEL 3
REMARK VINA RESULT:      -7.8      1.330      2.117
REMARK  6 active torsions:
REMARK  status: ('A' for Active; 'I' for Inactive)
REMARK    1  A    between atoms: C_9  and  C_10 
REMARK    2  A    between atoms: C_12  and  O_13 
REMARK    3  A    between atoms: C_15  and  O_16 
REMARK    4  A    between atoms: O_16  and  C_17 
REMARK    5  A    between atoms: C_17  and  C_18 
REMARK    6  A    between atoms: C_18  and  N_19 
ROOT
HETATM    1  H   UNL     1      38.117 -12.612   6.323  1.00  0.00     0.186 HD
HETATM    2  N   UNL     1      39.086 -12.278   6.433  1.00  0.00    -0.304 NA
HETATM    3  C   UNL     1      39.724 -12.089   5.319  1.00  0.00     0.062 C 
HETATM    4  C   UNL     1      41.165 -11.543   5.329  1.00  0.00     0.173 C 
HETATM    5  C   UNL     1      41.136 -10.121   4.793  1.00  0.00     0.012 C 
HETATM    6  N   UNL     1      41.112  -8.941   4.349  1.00  0.00    -0.099 N 
HETATM    7  C   UNL     1      41.721 -11.488   6.703  1.00  0.00     0.090 C 
HETATM    8  N   UNL     1      42.235 -11.493   7.743  1.00  0.00    -0.195 NA
HETATM    9  C   UNL     1      42.092 -12.433   4.420  1.00  0.00     0.070 C 
HETATM   10  C   UNL     1      41.469 -12.670   3.007  1.00  0.00     0.053 C 
HETATM   11  C   UNL     1      40.041 -13.190   3.087  1.00  0.00    -0.052 C 
HETATM   12  C   UNL     1      39.635 -14.211   2.301  1.00  0.00     0.005 C 
HETATM   13  C   UNL     1      39.068 -12.435   3.982  1.00  0.00     0.171 C 
HETATM   14  C   UNL     1      38.579 -11.240   3.281  1.00  0.00     0.074 C 
HETATM   15  N   UNL     1      38.243 -10.333   2.645  1.00  0.00    -0.196 NA
HETATM   16  C   UNL     1      42.390 -13.520   2.089  1.00  0.00     0.244 C 
HETATM   17  N   UNL     1      41.659 -13.991   0.856  1.00  0.00    -0.071 N 
HETATM   18  H   UNL     1      42.301 -14.612   0.345  1.00  0.00     0.279 HD
HETATM   19  C   UNL     1      41.324 -12.895  -0.125  1.00  0.00     0.270 C 
HETATM   20  C   UNL     1      40.474 -14.844   1.232  1.00  0.00     0.262 C 
ENDROOT
BRANCH   9  21
HETATM   21  C   UNL     1      42.590 -13.718   5.110  1.00  0.00    -0.047 A 
HETATM   22  C   UNL     1      41.751 -14.800   5.416  1.00  0.00     0.047 A 
HETATM   23  C   UNL     1      42.196 -15.837   6.253  1.00  0.00     0.102 A 
HETATM   24  C   UNL     1      43.513 -15.868   6.725  1.00  0.00     0.102 A 
HETATM   25  C   UNL     1      44.383 -14.850   6.339  1.00  0.00     0.040 A 
HETATM   26  C   UNL     1      43.921 -13.776   5.563  1.00  0.00     0.010 A 
BRANCH  23  27
HETATM   27  O   UNL     1      41.350 -16.856   6.623  1.00  0.00    -0.353 OA
HETATM   28  C   UNL     1      40.830 -17.559   5.489  1.00  0.00     0.210 C 
ENDBRANCH  23  27
BRANCH  24  29
HETATM   29  O   UNL     1      43.845 -16.909   7.557  1.00  0.00    -0.347 OA
BRANCH  29  30
HETATM   30  C   UNL     1      44.700 -17.918   7.010  1.00  0.00     0.203 C 
BRANCH  30  31
HETATM   31  C   UNL     1      43.899 -19.222   6.880  1.00  0.00     0.261 C 
BRANCH  31  32
HETATM   32  N   UNL     1      43.825 -19.712   5.446  1.00  0.00    -0.065 N 
HETATM   33  H   UNL     1      42.852 -20.025   5.303  1.00  0.00     0.280 HD
HETATM   34  C   UNL     1      44.121 -18.638   4.407  1.00  0.00     0.261 C 
HETATM   35  C   UNL     1      44.060 -19.243   3.000  1.00  0.00     0.195 C 
HETATM   36  O   UNL     1      44.976 -20.334   2.872  1.00  0.00    -0.388 OA
HETATM   37  C   UNL     1      44.662 -21.394   3.779  1.00  0.00     0.195 C 
HETATM   38  C   UNL     1      44.748 -20.914   5.231  1.00  0.00     0.261 C 
ENDBRANCH  31  32
ENDBRANCH  30  31
ENDBRANCH  29  30
ENDBRANCH  24  29
ENDBRANCH   9  21
TORSDOF 6
ENDMDL
MODEL 4
REMARK VINA RESULT:      -7.7      1.423      3.867
REMARK  6 active torsions:
REMARK  status: ('A' for Active; 'I' for Inactive)
REMARK    1  A    between atoms: C_9  and  C_10 
REMARK    2  A    between atoms: C_12  and  O_13 
REMARK    3  A    between atoms: C_15  and  O_16 
REMARK    4  A    between atoms: O_16  and  C_17 
REMARK    5  A    between atoms: C_17  and  C_18 
REMARK    6  A    between atoms: C_18  and  N_19 
ROOT
HETATM    1  H   UNL     1      43.189 -13.302   1.511  1.00  0.00     0.186 HD
HETATM    2  N   UNL     1      42.471 -13.979   1.812  1.00  0.00    -0.304 NA
HETATM    3  C   UNL     1      41.478 -13.461   2.466  1.00  0.00     0.062 C 
HETATM    4  C   UNL     1      40.306 -14.348   2.935  1.00  0.00     0.173 C 
HETATM    5  C   UNL     1      39.086 -13.999   2.098  1.00  0.00     0.012 C 
HETATM    6  N   UNL     1      38.073 -13.711   1.405  1.00  0.00    -0.099 N 
HETATM    7  C   UNL     1      40.592 -15.788   2.726  1.00  0.00     0.090 C 
HETATM    8  N   UNL     1      40.788 -16.930   2.656  1.00  0.00    -0.195 NA
HETATM    9  C   UNL     1      39.999 -14.086   4.457  1.00  0.00     0.070 C 
HETATM   10  C   UNL     1      39.860 -12.561   4.770  1.00  0.00     0.053 C 
HETATM   11  C   UNL     1      41.047 -11.757   4.257  1.00  0.00    -0.052 C 
HETATM   12  C   UNL     1      41.621 -10.811   5.030  1.00  0.00     0.005 C 
HETATM   13  C   UNL     1      41.468 -11.972   2.810  1.00  0.00     0.171 C 
HETATM   14  C   UNL     1      40.583 -11.206   1.921  1.00  0.00     0.074 C 
HETATM   15  N   UNL     1      39.844 -10.561   1.305  1.00  0.00    -0.196 NA
HETATM   16  C   UNL     1      39.524 -12.293   6.262  1.00  0.00     0.244 C 
HETATM   17  N   UNL     1      39.690 -10.834   6.612  1.00  0.00    -0.071 N 
HETATM   18  H   UNL     1      39.535 -10.749   7.626  1.00  0.00     0.279 HD
HETATM   19  C   UNL     1      38.661  -9.923   5.988  1.00  0.00     0.270 C 
HETATM   20  C   UNL     1      41.110 -10.387   6.374  1.00  0.00     0.262 C 
ENDROOT
BRANCH   9  21
HETATM   21  C   UNL     1      40.936 -14.842   5.418  1.00  0.00    -0.047 A 
HETATM   22  C   UNL     1      42.281 -14.491   5.615  1.00  0.00     0.047 A 
HETATM   23  C   UNL     1      43.150 -15.347   6.311  1.00  0.00     0.102 A 
HETATM   24  C   UNL     1      42.681 -16.524   6.906  1.00  0.00     0.102 A 
HETATM   25  C   UNL     1      41.323 -16.826   6.804  1.00  0.00     0.040 A 
HETATM   26  C   UNL     1      40.468 -16.010   6.048  1.00  0.00     0.010 A 
BRANCH  23  27
HETATM   27  O   UNL     1      44.486 -15.047   6.433  1.00  0.00    -0.353 OA
HETATM   28  C   UNL     1      44.705 -13.914   7.282  1.00  0.00     0.210 C 
ENDBRANCH  23  27
BRANCH  24  29
HETATM   29  O   UNL     1      43.613 -17.306   7.541  1.00  0.00    -0.347 OA
BRANCH  29  30
HETATM   30  C   UNL     1      43.637 -18.691   7.181  1.00  0.00     0.203 C 
BRANCH  30  31
HETATM   31  C   UNL     1      44.707 -18.898   6.100  1.00  0.00     0.261 C 
BRANCH  31  32
HETATM   32  N   UNL     1      44.158 -19.603   4.873  1.00  0.00    -0.065 N 
HETATM   33  H   UNL     1      43.278 -20.050   5.174  1.00  0.00     0.280 HD
HETATM   34  C   UNL     1      43.828 -18.667   3.716  1.00  0.00     0.261 C 
HETATM   35  C   UNL     1      43.321 -19.479   2.519  1.00  0.00     0.195 C 
HETATM   36  O   UNL     1      44.285 -20.456   2.118  1.00  0.00    -0.388 OA
HETATM   37  C   UNL     1      44.545 -21.399   3.161  1.00  0.00     0.195 C 
HETATM   38  C   UNL     1      45.113 -20.701   4.400  1.00  0.00     0.261 C 
ENDBRANCH  31  32
ENDBRANCH  30  31
ENDBRANCH  29  30
ENDBRANCH  24  29
ENDBRANCH   9  21
TORSDOF 6
ENDMDL
MODEL 5
REMARK VINA RESULT:      -7.7      3.664      7.331
REMARK  6 active torsions:
REMARK  status: ('A' for Active; 'I' for Inactive)
REMARK    1  A    between atoms: C_9  and  C_10 
REMARK    2  A    between atoms: C_12  and  O_13 
REMARK    3  A    between atoms: C_15  and  O_16 
REMARK    4  A    between atoms: O_16  and  C_17 
REMARK    5  A    between atoms: C_17  and  C_18 
REMARK    6  A    between atoms: C_18  and  N_19 
ROOT
HETATM    1  H   UNL     1      43.626 -13.396   6.009  1.00  0.00     0.186 HD
HETATM    2  N   UNL     1      42.616 -13.561   5.883  1.00  0.00    -0.304 NA
HETATM    3  C   UNL     1      42.316 -14.701   5.342  1.00  0.00     0.062 C 
HETATM    4  C   UNL     1      40.842 -15.103   5.138  1.00  0.00     0.173 C 
HETATM    5  C   UNL     1      40.517 -16.222   6.114  1.00  0.00     0.012 C 
HETATM    6  N   UNL     1      40.248 -17.151   6.923  1.00  0.00    -0.099 N 
HETATM    7  C   UNL     1      39.921 -13.978   5.431  1.00  0.00     0.090 C 
HETATM    8  N   UNL     1      39.158 -13.115   5.573  1.00  0.00    -0.195 NA
HETATM    9  C   UNL     1      40.612 -15.602   3.662  1.00  0.00     0.070 C 
HETATM   10  C   UNL     1      41.669 -16.671   3.237  1.00  0.00     0.053 C 
HETATM   11  C   UNL     1      43.096 -16.203   3.490  1.00  0.00    -0.052 C 
HETATM   12  C   UNL     1      44.054 -16.386   2.556  1.00  0.00     0.005 C 
HETATM   13  C   UNL     1      43.418 -15.649   4.871  1.00  0.00     0.171 C 
HETATM   14  C   UNL     1      43.631 -16.759   5.810  1.00  0.00     0.074 C 
HETATM   15  N   UNL     1      43.793 -17.698   6.469  1.00  0.00    -0.196 NA
HETATM   16  C   UNL     1      41.432 -17.196   1.795  1.00  0.00     0.244 C 
HETATM   17  N   UNL     1      42.616 -17.987   1.293  1.00  0.00    -0.071 N 
HETATM   18  H   UNL     1      42.422 -18.227   0.311  1.00  0.00     0.279 HD
HETATM   19  C   UNL     1      42.811 -19.317   1.980  1.00  0.00     0.270 C 
HETATM   20  C   UNL     1      43.858 -17.134   1.272  1.00  0.00     0.262 C 
ENDROOT
BRANCH   9  21
HETATM   21  C   UNL     1      40.427 -14.462   2.643  1.00  0.00    -0.047 A 
HETATM   22  C   UNL     1      39.268 -14.305   1.867  1.00  0.00     0.047 A 
HETATM   23  C   UNL     1      39.242 -13.402   0.792  1.00  0.00     0.102 A 
HETATM   24  C   UNL     1      40.334 -12.569   0.523  1.00  0.00     0.102 A 
HETATM   25  C   UNL     1      41.450 -12.645   1.356  1.00  0.00     0.040 A 
HETATM   26  C   UNL     1      41.506 -13.596   2.385  1.00  0.00     0.010 A 
BRANCH  23  27
HETATM   27  O   UNL     1      38.138 -13.308  -0.022  1.00  0.00    -0.353 OA
HETATM   28  C   UNL     1      37.059 -12.617   0.618  1.00  0.00     0.210 C 
ENDBRANCH  23  27
BRANCH  24  29
HETATM   29  O   UNL     1      40.223 -11.740  -0.565  1.00  0.00    -0.347 OA
BRANCH  29  30
HETATM   30  C   UNL     1      40.912 -12.146  -1.752  1.00  0.00     0.203 C 
BRANCH  30  31
HETATM   31  C   UNL     1      39.893 -12.265  -2.894  1.00  0.00     0.261 C 
BRANCH  31  32
HETATM   32  N   UNL     1      39.245 -13.637  -2.947  1.00  0.00    -0.065 N 
HETATM   33  H   UNL     1      39.159 -13.947  -1.967  1.00  0.00     0.280 HD
HETATM   34  C   UNL     1      37.849 -13.640  -3.557  1.00  0.00     0.261 C 
HETATM   35  C   UNL     1      37.303 -15.071  -3.600  1.00  0.00     0.195 C 
HETATM   36  O   UNL     1      38.176 -15.931  -4.337  1.00  0.00    -0.388 OA
HETATM   37  C   UNL     1      39.470 -16.012  -3.731  1.00  0.00     0.195 C 
HETATM   38  C   UNL     1      40.139 -14.635  -3.686  1.00  0.00     0.261 C 
ENDBRANCH  31  32
ENDBRANCH  30  31
ENDBRANCH  29  30
ENDBRANCH  24  29
ENDBRANCH   9  21
TORSDOF 6
ENDMDL
MODEL 6
REMARK VINA RESULT:      -7.6      3.548      7.742
REMARK  6 active torsions:
REMARK  status: ('A' for Active; 'I' for Inactive)
REMARK    1  A    between atoms: C_9  and  C_10 
REMARK    2  A    between atoms: C_12  and  O_13 
REMARK    3  A    between atoms: C_15  and  O_16 
REMARK    4  A    between atoms: O_16  and  C_17 
REMARK    5  A    between atoms: C_17  and  C_18 
REMARK    6  A    between atoms: C_18  and  N_19 
ROOT
HETATM    1  H   UNL     1      39.149 -17.721   2.642  1.00  0.00     0.186 HD
HETATM    2  N   UNL     1      39.819 -17.330   1.963  1.00  0.00    -0.304 NA
HETATM    3  C   UNL     1      40.891 -16.822   2.489  1.00  0.00     0.062 C 
HETATM    4  C   UNL     1      42.003 -16.247   1.591  1.00  0.00     0.173 C 
HETATM    5  C   UNL     1      43.200 -17.181   1.662  1.00  0.00     0.012 C 
HETATM    6  N   UNL     1      44.193 -17.956   1.722  1.00  0.00    -0.099 N 
HETATM    7  C   UNL     1      41.579 -16.176   0.171  1.00  0.00     0.090 C 
HETATM    8  N   UNL     1      41.278 -16.027  -0.940  1.00  0.00    -0.195 NA
HETATM    9  C   UNL     1      42.419 -14.812   2.089  1.00  0.00     0.070 C 
HETATM   10  C   UNL     1      42.711 -14.790   3.624  1.00  0.00     0.053 C 
HETATM   11  C   UNL     1      41.573 -15.393   4.435  1.00  0.00    -0.052 C 
HETATM   12  C   UNL     1      41.131 -14.784   5.556  1.00  0.00     0.005 C 
HETATM   13  C   UNL     1      41.053 -16.759   4.008  1.00  0.00     0.171 C 
HETATM   14  C   UNL     1      41.950 -17.808   4.512  1.00  0.00     0.074 C 
HETATM   15  N   UNL     1      42.707 -18.560   4.961  1.00  0.00    -0.196 NA
HETATM   16  C   UNL     1      43.155 -13.387   4.121  1.00  0.00     0.244 C 
HETATM   17  N   UNL     1      43.139 -13.304   5.628  1.00  0.00    -0.071 N 
HETATM   18  H   UNL     1      43.360 -12.330   5.877  1.00  0.00     0.279 HD
HETATM   19  C   UNL     1      44.208 -14.126   6.307  1.00  0.00     0.270 C 
HETATM   20  C   UNL     1      41.754 -13.563   6.162  1.00  0.00     0.262 C 
ENDROOT
BRANCH   9  21
HETATM   21  C   UNL     1      41.475 -13.692   1.612  1.00  0.00    -0.047 A 
HETATM   22  C   UNL     1      40.091 -13.702   1.845  1.00  0.00     0.047 A 
HETATM   23  C   UNL     1      39.248 -12.789   1.191  1.00  0.00     0.102 A 
HETATM   24  C   UNL     1      39.771 -11.787   0.365  1.00  0.00     0.102 A 
HETATM   25  C   UNL     1      41.155 -11.706   0.212  1.00  0.00     0.040 A 
HETATM   26  C   UNL     1      41.993 -12.661   0.807  1.00  0.00     0.010 A 
BRANCH  23  27
HETATM   27  O   UNL     1      37.883 -12.851   1.351  1.00  0.00    -0.353 OA
HETATM   28  C   UNL     1      37.329 -14.034   0.765  1.00  0.00     0.210 C 
ENDBRANCH  23  27
BRANCH  24  29
HETATM   29  O   UNL     1      38.864 -10.961  -0.250  1.00  0.00    -0.347 OA
BRANCH  29  30
HETATM   30  C   UNL     1      38.940 -10.878  -1.677  1.00  0.00     0.203 C 
BRANCH  30  31
HETATM   31  C   UNL     1      38.013 -11.943  -2.280  1.00  0.00     0.261 C 
BRANCH  31  32
HETATM   32  N   UNL     1      38.738 -13.248  -2.555  1.00  0.00    -0.065 N 
HETATM   33  H   UNL     1      38.970 -13.644  -1.630  1.00  0.00     0.280 HD
HETATM   34  C   UNL     1      37.899 -14.279  -3.301  1.00  0.00     0.261 C 
HETATM   35  C   UNL     1      38.733 -15.538  -3.562  1.00  0.00     0.195 C 
HETATM   36  O   UNL     1      39.917 -15.224  -4.299  1.00  0.00    -0.388 OA
HETATM   37  C   UNL     1      40.764 -14.324  -3.578  1.00  0.00     0.195 C 
HETATM   38  C   UNL     1      40.047 -12.998  -3.307  1.00  0.00     0.261 C 
ENDBRANCH  31  32
ENDBRANCH  30  31
ENDBRANCH  29  30
ENDBRANCH  24  29
ENDBRANCH   9  21
TORSDOF 6
ENDMDL
MODEL 7
REMARK VINA RESULT:      -7.3      3.145      6.287
REMARK  6 active torsions:
REMARK  status: ('A' for Active; 'I' for Inactive)
REMARK    1  A    between atoms: C_9  and  C_10 
REMARK    2  A    between atoms: C_12  and  O_13 
REMARK    3  A    between atoms: C_15  and  O_16 
REMARK    4  A    between atoms: O_16  and  C_17 
REMARK    5  A    between atoms: C_17  and  C_18 
REMARK    6  A    between atoms: C_18  and  N_19 
ROOT
HETATM    1  H   UNL     1      40.693 -11.431  -4.292  1.00  0.00     0.186 HD
HETATM    2  N   UNL     1      40.543 -12.397  -3.962  1.00  0.00    -0.304 NA
HETATM    3  C   UNL     1      39.476 -12.565  -3.244  1.00  0.00     0.062 C 
HETATM    4  C   UNL     1      39.100 -13.967  -2.724  1.00  0.00     0.173 C 
HETATM    5  C   UNL     1      37.870 -14.439  -3.483  1.00  0.00     0.012 C 
HETATM    6  N   UNL     1      36.850 -14.830  -4.113  1.00  0.00    -0.099 N 
HETATM    7  C   UNL     1      40.180 -14.952  -2.974  1.00  0.00     0.090 C 
HETATM    8  N   UNL     1      41.019 -15.749  -3.074  1.00  0.00    -0.195 NA
HETATM    9  C   UNL     1      38.783 -13.911  -1.183  1.00  0.00     0.070 C 
HETATM   10  C   UNL     1      37.775 -12.769  -0.837  1.00  0.00     0.053 C 
HETATM   11  C   UNL     1      38.211 -11.424  -1.402  1.00  0.00    -0.052 C 
HETATM   12  C   UNL     1      38.144 -10.306  -0.647  1.00  0.00     0.005 C 
HETATM   13  C   UNL     1      38.594 -11.373  -2.875  1.00  0.00     0.171 C 
HETATM   14  C   UNL     1      37.378 -11.310  -3.698  1.00  0.00     0.074 C 
HETATM   15  N   UNL     1      36.367 -11.250  -4.260  1.00  0.00    -0.196 NA
HETATM   16  C   UNL     1      37.429 -12.724   0.677  1.00  0.00     0.244 C 
HETATM   17  N   UNL     1      36.706 -11.451   1.042  1.00  0.00    -0.071 N 
HETATM   18  H   UNL     1      36.587 -11.455   2.064  1.00  0.00     0.279 HD
HETATM   19  C   UNL     1      35.303 -11.353   0.493  1.00  0.00     0.270 C 
HETATM   20  C   UNL     1      37.557 -10.246   0.731  1.00  0.00     0.262 C 
ENDROOT
BRANCH   9  21
HETATM   21  C   UNL     1      40.039 -13.933  -0.290  1.00  0.00    -0.047 A 
HETATM   22  C   UNL     1      40.345 -14.992   0.579  1.00  0.00     0.047 A 
HETATM   23  C   UNL     1      41.362 -14.859   1.538  1.00  0.00     0.102 A 
HETATM   24  C   UNL     1      42.158 -13.709   1.592  1.00  0.00     0.102 A 
HETATM   25  C   UNL     1      41.928 -12.696   0.663  1.00  0.00     0.040 A 
HETATM   26  C   UNL     1      40.866 -12.796  -0.249  1.00  0.00     0.010 A 
BRANCH  23  27
HETATM   27  O   UNL     1      41.608 -15.862   2.447  1.00  0.00    -0.353 OA
HETATM   28  C   UNL     1      40.602 -16.880   2.406  1.00  0.00     0.210 C 
ENDBRANCH  23  27
BRANCH  24  29
HETATM   29  O   UNL     1      43.108 -13.664   2.582  1.00  0.00    -0.347 OA
BRANCH  29  30
HETATM   30  C   UNL     1      42.723 -13.037   3.810  1.00  0.00     0.203 C 
BRANCH  30  31
HETATM   31  C   UNL     1      43.365 -13.805   4.975  1.00  0.00     0.261 C 
BRANCH  31  32
HETATM   32  N   UNL     1      42.725 -15.164   5.190  1.00  0.00    -0.065 N 
HETATM   33  H   UNL     1      42.563 -15.554   4.248  1.00  0.00     0.280 HD
HETATM   34  C   UNL     1      43.602 -16.149   5.953  1.00  0.00     0.261 C 
HETATM   35  C   UNL     1      42.851 -17.470   6.150  1.00  0.00     0.195 C 
HETATM   36  O   UNL     1      41.616 -17.259   6.839  1.00  0.00    -0.388 OA
HETATM   37  C   UNL     1      40.739 -16.405   6.098  1.00  0.00     0.195 C 
HETATM   38  C   UNL     1      41.369 -15.026   5.886  1.00  0.00     0.261 C 
ENDBRANCH  31  32
ENDBRANCH  30  31
ENDBRANCH  29  30
ENDBRANCH  24  29
ENDBRANCH   9  21
TORSDOF 6
ENDMDL
MODEL 8
REMARK VINA RESULT:      -7.2      3.267      5.138
REMARK  6 active torsions:
REMARK  status: ('A' for Active; 'I' for Inactive)
REMARK    1  A    between atoms: C_9  and  C_10 
REMARK    2  A    between atoms: C_12  and  O_13 
REMARK    3  A    between atoms: C_15  and  O_16 
REMARK    4  A    between atoms: O_16  and  C_17 
REMARK    5  A    between atoms: C_17  and  C_18 
REMARK    6  A    between atoms: C_18  and  N_19 
ROOT
HETATM    1  H   UNL     1      37.678 -15.176  -3.324  1.00  0.00     0.186 HD
HETATM    2  N   UNL     1      37.617 -14.810  -2.362  1.00  0.00    -0.304 NA
HETATM    3  C   UNL     1      38.214 -13.673  -2.175  1.00  0.00     0.062 C 
HETATM    4  C   UNL     1      38.163 -12.983  -0.797  1.00  0.00     0.173 C 
HETATM    5  C   UNL     1      37.277 -11.753  -0.917  1.00  0.00     0.012 C 
HETATM    6  N   UNL     1      36.541 -10.734  -1.016  1.00  0.00    -0.099 N 
HETATM    7  C   UNL     1      37.564 -13.863   0.235  1.00  0.00     0.090 C 
HETATM    8  N   UNL     1      37.173 -14.532   1.100  1.00  0.00    -0.195 NA
HETATM    9  C   UNL     1      39.609 -12.552  -0.349  1.00  0.00     0.070 C 
HETATM   10  C   UNL     1      40.358 -11.765  -1.472  1.00  0.00     0.053 C 
HETATM   11  C   UNL     1      40.345 -12.506  -2.802  1.00  0.00    -0.052 C 
HETATM   12  C   UNL     1      41.466 -12.598  -3.549  1.00  0.00     0.005 C 
HETATM   13  C   UNL     1      39.002 -13.017  -3.308  1.00  0.00     0.171 C 
HETATM   14  C   UNL     1      38.259 -11.913  -3.931  1.00  0.00     0.074 C 
HETATM   15  N   UNL     1      37.757 -10.986  -4.411  1.00  0.00    -0.196 NA
HETATM   16  C   UNL     1      41.774 -11.306  -1.029  1.00  0.00     0.244 C 
HETATM   17  N   UNL     1      42.590 -10.822  -2.203  1.00  0.00    -0.071 N 
HETATM   18  H   UNL     1      43.535 -10.618  -1.848  1.00  0.00     0.279 HD
HETATM   19  C   UNL     1      42.114  -9.519  -2.797  1.00  0.00     0.270 C 
HETATM   20  C   UNL     1      42.762 -11.919  -3.222  1.00  0.00     0.262 C 
ENDROOT
BRANCH   9  21
HETATM   21  C   UNL     1      40.433 -13.697   0.272  1.00  0.00    -0.047 A 
HETATM   22  C   UNL     1      40.881 -13.688   1.602  1.00  0.00     0.047 A 
HETATM   23  C   UNL     1      41.822 -14.631   2.047  1.00  0.00     0.102 A 
HETATM   24  C   UNL     1      42.266 -15.659   1.208  1.00  0.00     0.102 A 
HETATM   25  C   UNL     1      41.745 -15.737  -0.083  1.00  0.00     0.040 A 
HETATM   26  C   UNL     1      40.860 -14.754  -0.553  1.00  0.00     0.010 A 
BRANCH  23  27
HETATM   27  O   UNL     1      42.327 -14.573   3.325  1.00  0.00    -0.353 OA
HETATM   28  C   UNL     1      43.257 -13.496   3.485  1.00  0.00     0.210 C 
ENDBRANCH  23  27
BRANCH  24  29
HETATM   29  O   UNL     1      43.205 -16.515   1.727  1.00  0.00    -0.347 OA
BRANCH  29  30
HETATM   30  C   UNL     1      43.505 -17.681   0.952  1.00  0.00     0.203 C 
BRANCH  30  31
HETATM   31  C   UNL     1      42.856 -18.898   1.627  1.00  0.00     0.261 C 
BRANCH  31  32
HETATM   32  N   UNL     1      43.883 -19.829   2.247  1.00  0.00    -0.065 N 
HETATM   33  H   UNL     1      44.781 -19.602   1.792  1.00  0.00     0.280 HD
HETATM   34  C   UNL     1      44.064 -19.641   3.748  1.00  0.00     0.261 C 
HETATM   35  C   UNL     1      45.088 -20.650   4.279  1.00  0.00     0.195 C 
HETATM   36  O   UNL     1      44.686 -21.991   3.983  1.00  0.00    -0.388 OA
HETATM   37  C   UNL     1      44.594 -22.215   2.574  1.00  0.00     0.195 C 
HETATM   38  C   UNL     1      43.550 -21.291   1.940  1.00  0.00     0.261 C 
ENDBRANCH  31  32
ENDBRANCH  30  31
ENDBRANCH  29  30
ENDBRANCH  24  29
ENDBRANCH   9  21
TORSDOF 6
ENDMDL
MODEL 9
REMARK VINA RESULT:      -7.1      2.023      4.487
REMARK  6 active torsions:
REMARK  status: ('A' for Active; 'I' for Inactive)
REMARK    1  A    between atoms: C_9  and  C_10 
REMARK    2  A    between atoms: C_12  and  O_13 
REMARK    3  A    between atoms: C_15  and  O_16 
REMARK    4  A    between atoms: O_16  and  C_17 
REMARK    5  A    between atoms: C_17  and  C_18 
REMARK    6  A    between atoms: C_18  and  N_19 
ROOT
HETATM    1  H   UNL     1      42.302  -9.816   2.948  1.00  0.00     0.186 HD
HETATM    2  N   UNL     1      41.540 -10.511   2.932  1.00  0.00    -0.304 NA
HETATM    3  C   UNL     1      40.731 -10.452   3.944  1.00  0.00     0.062 C 
HETATM    4  C   UNL     1      39.516 -11.398   4.027  1.00  0.00     0.173 C 
HETATM    5  C   UNL     1      38.258 -10.572   3.808  1.00  0.00     0.012 C 
HETATM    6  N   UNL     1      37.215  -9.888   3.627  1.00  0.00    -0.099 N 
HETATM    7  C   UNL     1      39.555 -12.434   2.967  1.00  0.00     0.090 C 
HETATM    8  N   UNL     1      39.571 -13.313   2.209  1.00  0.00    -0.195 NA
HETATM    9  C   UNL     1      39.458 -12.089   5.440  1.00  0.00     0.070 C 
HETATM   10  C   UNL     1      39.588 -11.053   6.602  1.00  0.00     0.053 C 
HETATM   11  C   UNL     1      40.800 -10.147   6.433  1.00  0.00    -0.052 C 
HETATM   12  C   UNL     1      41.606  -9.875   7.482  1.00  0.00     0.005 C 
HETATM   13  C   UNL     1      40.986  -9.467   5.084  1.00  0.00     0.171 C 
HETATM   14  C   UNL     1      40.112  -8.288   5.002  1.00  0.00     0.074 C 
HETATM   15  N   UNL     1      39.400  -7.376   5.037  1.00  0.00    -0.196 NA
HETATM   16  C   UNL     1      39.499 -11.720   8.002  1.00  0.00     0.244 C 
HETATM   17  N   UNL     1      39.924 -10.769   9.095  1.00  0.00    -0.071 N 
HETATM   18  H   UNL     1      39.920 -11.303   9.975  1.00  0.00     0.279 HD
HETATM   19  C   UNL     1      38.965  -9.628   9.334  1.00  0.00     0.270 C 
HETATM   20  C   UNL     1      41.349 -10.323   8.889  1.00  0.00     0.262 C 
ENDROOT
BRANCH   9  21
HETATM   21  C   UNL     1      40.395 -13.305   5.575  1.00  0.00    -0.047 A 
HETATM   22  C   UNL     1      41.794 -13.200   5.583  1.00  0.00     0.047 A 
HETATM   23  C   UNL     1      42.599 -14.345   5.467  1.00  0.00     0.102 A 
HETATM   24  C   UNL     1      42.034 -15.625   5.436  1.00  0.00     0.102 A 
HETATM   25  C   UNL     1      40.648 -15.742   5.534  1.00  0.00     0.040 A 
HETATM   26  C   UNL     1      39.838 -14.597   5.576  1.00  0.00     0.010 A 
BRANCH  23  27
HETATM   27  O   UNL     1      43.968 -14.238   5.389  1.00  0.00    -0.353 OA
HETATM   28  C   UNL     1      44.561 -14.012   6.673  1.00  0.00     0.210 C 
ENDBRANCH  23  27
BRANCH  24  29
HETATM   29  O   UNL     1      42.902 -16.678   5.295  1.00  0.00    -0.347 OA
BRANCH  29  30
HETATM   30  C   UNL     1      42.541 -17.681   4.339  1.00  0.00     0.203 C 
BRANCH  30  31
HETATM   31  C   UNL     1      43.643 -17.760   3.272  1.00  0.00     0.261 C 
BRANCH  31  32
HETATM   32  N   UNL     1      44.324 -19.116   3.246  1.00  0.00    -0.065 N 
HETATM   33  H   UNL     1      45.278 -18.948   2.892  1.00  0.00     0.280 HD
HETATM   34  C   UNL     1      44.449 -19.773   4.615  1.00  0.00     0.261 C 
HETATM   35  C   UNL     1      45.110 -21.149   4.474  1.00  0.00     0.195 C 
HETATM   36  O   UNL     1      44.369 -21.984   3.580  1.00  0.00    -0.388 OA
HETATM   37  C   UNL     1      44.314 -21.427   2.263  1.00  0.00     0.195 C 
HETATM   38  C   UNL     1      43.616 -20.064   2.275  1.00  0.00     0.261 C 
ENDBRANCH  31  32
ENDBRANCH  30  31
ENDBRANCH  29  30
ENDBRANCH  24  29
ENDBRANCH   9  21
TORSDOF 6
ENDMDL
MODEL 10
REMARK VINA RESULT:      -7.0      2.352      4.818
REMARK  6 active torsions:
REMARK  status: ('A' for Active; 'I' for Inactive)
REMARK    1  A    between atoms: C_9  and  C_10 
REMARK    2  A    between atoms: C_12  and  O_13 
REMARK    3  A    between atoms: C_15  and  O_16 
REMARK    4  A    between atoms: O_16  and  C_17 
REMARK    5  A    between atoms: C_17  and  C_18 
REMARK    6  A    between atoms: C_18  and  N_19 
ROOT
HETATM    1  H   UNL     1      43.264 -12.185  -1.671  1.00  0.00     0.186 HD
HETATM    2  N   UNL     1      42.573 -12.950  -1.657  1.00  0.00    -0.304 NA
HETATM    3  C   UNL     1      41.392 -12.608  -1.244  1.00  0.00     0.062 C 
HETATM    4  C   UNL     1      40.246 -13.638  -1.219  1.00  0.00     0.173 C 
HETATM    5  C   UNL     1      39.254 -13.270  -2.311  1.00  0.00     0.012 C 
HETATM    6  N   UNL     1      38.432 -12.964  -3.216  1.00  0.00    -0.099 N 
HETATM    7  C   UNL     1      40.734 -15.009  -1.508  1.00  0.00     0.090 C 
HETATM    8  N   UNL     1      41.068 -16.111  -1.652  1.00  0.00    -0.195 NA
HETATM    9  C   UNL     1      39.526 -13.619   0.181  1.00  0.00     0.070 C 
HETATM   10  C   UNL     1      39.141 -12.169   0.618  1.00  0.00     0.053 C 
HETATM   11  C   UNL     1      40.323 -11.212   0.546  1.00  0.00    -0.052 C 
HETATM   12  C   UNL     1      40.567 -10.344   1.550  1.00  0.00     0.005 C 
HETATM   13  C   UNL     1      41.127 -11.187  -0.747  1.00  0.00     0.171 C 
HETATM   14  C   UNL     1      40.425 -10.373  -1.748  1.00  0.00     0.074 C 
HETATM   15  N   UNL     1      39.805  -9.706  -2.463  1.00  0.00    -0.196 NA
HETATM   16  C   UNL     1      38.399 -12.140   1.983  1.00  0.00     0.244 C 
HETATM   17  N   UNL     1      38.305 -10.737   2.531  1.00  0.00    -0.071 N 
HETATM   18  H   UNL     1      37.882 -10.808   3.467  1.00  0.00     0.279 HD
HETATM   19  C   UNL     1      37.380  -9.829   1.760  1.00  0.00     0.270 C 
HETATM   20  C   UNL     1      39.679 -10.154   2.743  1.00  0.00     0.262 C 
ENDROOT
BRANCH   9  21
HETATM   21  C   UNL     1      40.258 -14.429   1.267  1.00  0.00    -0.047 A 
HETATM   22  C   UNL     1      41.509 -14.063   1.787  1.00  0.00     0.047 A 
HETATM   23  C   UNL     1      42.239 -14.953   2.592  1.00  0.00     0.102 A 
HETATM   24  C   UNL     1      41.699 -16.187   2.976  1.00  0.00     0.102 A 
HETATM   25  C   UNL     1      40.413 -16.512   2.550  1.00  0.00     0.040 A 
HETATM   26  C   UNL     1      39.712 -15.657   1.686  1.00  0.00     0.010 A 
BRANCH  23  27
HETATM   27  O   UNL     1      43.501 -14.631   3.033  1.00  0.00    -0.353 OA
HETATM   28  C   UNL     1      43.471 -13.633   4.059  1.00  0.00     0.210 C 
ENDBRANCH  23  27
BRANCH  24  29
HETATM   29  O   UNL     1      42.500 -16.997   3.743  1.00  0.00    -0.347 OA
BRANCH  29  30
HETATM   30  C   UNL     1      43.568 -17.666   3.065  1.00  0.00     0.203 C 
BRANCH  30  31
HETATM   31  C   UNL     1      44.197 -18.685   4.026  1.00  0.00     0.261 C 
BRANCH  31  32
HETATM   32  N   UNL     1      43.929 -20.118   3.604  1.00  0.00    -0.065 N 
HETATM   33  H   UNL     1      42.978 -20.338   3.939  1.00  0.00     0.280 HD
HETATM   34  C   UNL     1      43.948 -20.334   2.096  1.00  0.00     0.261 C 
HETATM   35  C   UNL     1      43.707 -21.813   1.778  1.00  0.00     0.195 C 
HETATM   36  O   UNL     1      44.683 -22.640   2.418  1.00  0.00    -0.388 OA
HETATM   37  C   UNL     1      44.624 -22.519   3.842  1.00  0.00     0.195 C 
HETATM   38  C   UNL     1      44.907 -21.079   4.281  1.00  0.00     0.261 C 
ENDBRANCH  31  32
ENDBRANCH  30  31
ENDBRANCH  29  30
ENDBRANCH  24  29
ENDBRANCH   9  21
TORSDOF 6
ENDMDL
