MODEL 1
REMARK VINA RESULT:      -8.6      0.000      0.000
REMARK  6 active torsions:
REMARK  status: ('A' for Active; 'I' for Inactive)
REMARK    1  A    between atoms: C_2  and  C_3 
REMARK    2  A    between atoms: C_3  and  C_4 
REMARK    3  A    between atoms: C_3  and  C_10 
REMARK    4  A    between atoms: C_10  and  C_11 
REMARK       I    between atoms: C_11  and  N_12 
REMARK    5  A    between atoms: N_12  and  C_13 
REMARK    6  A    between atoms: C_20  and  C_21 
REMARK       I    between atoms: C_21  and  N_22 
ROOT
HETATM    1  C   UNL     1      40.486 -15.847   1.547  1.00  0.00     0.035 A 
HETATM    2  C   UNL     1      40.973 -15.600   0.256  1.00  0.00     0.046 A 
HETATM    3  C   UNL     1      40.350 -14.621  -0.549  1.00  0.00     0.030 A 
HETATM    4  C   UNL     1      39.251 -13.938  -0.044  1.00  0.00     0.063 A 
HETATM    5  N   UNL     1      38.867 -13.084  -1.039  1.00  0.00    -0.277 N 
HETATM    6  H   UNL     1      38.090 -12.433  -1.024  1.00  0.00     0.189 HD
HETATM    7  N   UNL     1      39.634 -13.130  -2.140  1.00  0.00    -0.168 NA
HETATM    8  C   UNL     1      40.560 -14.074  -1.851  1.00  0.00     0.156 A 
HETATM    9  C   UNL     1      38.736 -14.162   1.235  1.00  0.00     0.034 A 
HETATM   10  C   UNL     1      39.386 -15.123   2.021  1.00  0.00     0.032 A 
ENDROOT
BRANCH   1  11
HETATM   11  N   UNL     1      41.068 -16.778   2.436  1.00  0.00    -0.327 N 
HETATM   12  C   UNL     1      41.917 -16.512   3.493  1.00  0.00     0.223 C 
HETATM   13  O   UNL     1      42.401 -15.421   3.779  1.00  0.00    -0.273 OA
HETATM   14  H   UNL     1      40.808 -17.747   2.293  1.00  0.00     0.169 HD
BRANCH  12  15
HETATM   15  C   UNL     1      42.235 -17.735   4.336  1.00  0.00     0.116 C 
BRANCH  15  16
HETATM   16  C   UNL     1      43.719 -18.145   4.320  1.00  0.00     0.049 C 
BRANCH  16  17
HETATM   17  C   UNL     1      44.390 -18.011   5.672  1.00  0.00    -0.027 C 
HETATM   18  C   UNL     1      44.358 -16.905   6.430  1.00  0.00     0.007 C 
ENDBRANCH  16  17
BRANCH  16  19
HETATM   19  C   UNL     1      43.940 -19.506   3.667  1.00  0.00    -0.050 A 
HETATM   20  C   UNL     1      44.576 -20.565   4.334  1.00  0.00     0.008 A 
HETATM   21  C   UNL     1      44.739 -21.806   3.713  1.00  0.00     0.001 A 
HETATM   22  C   UNL     1      44.276 -22.004   2.415  1.00  0.00     0.000 A 
HETATM   23  C   UNL     1      43.647 -20.964   1.737  1.00  0.00     0.001 A 
HETATM   24  C   UNL     1      43.475 -19.726   2.359  1.00  0.00     0.008 A 
ENDBRANCH  16  19
ENDBRANCH  15  16
ENDBRANCH  12  15
ENDBRANCH   1  11
BRANCH   8  25
HETATM   25  C   UNL     1      41.621 -14.418  -2.807  1.00  0.00     0.270 C 
HETATM   26  N   UNL     1      42.691 -13.565  -2.785  1.00  0.00    -0.365 N 
HETATM   27  H   UNL     1      42.685 -12.796  -2.127  1.00  0.00     0.159 HD
HETATM   28  H   UNL     1      43.478 -13.739  -3.391  1.00  0.00     0.159 HD
HETATM   29  O   UNL     1      41.596 -15.381  -3.565  1.00  0.00    -0.266 OA
ENDBRANCH   8  25
TORSDOF 6
ENDMDL
MODEL 2
REMARK VINA RESULT:      -8.2      3.847      5.582
REMARK  6 active torsions:
REMARK  status: ('A' for Active; 'I' for Inactive)
REMARK    1  A    between atoms: C_2  and  C_3 
REMARK    2  A    between atoms: C_3  and  C_4 
REMARK    3  A    between atoms: C_3  and  C_10 
REMARK    4  A    between atoms: C_10  and  C_11 
REMARK       I    between atoms: C_11  and  N_12 
REMARK    5  A    between atoms: N_12  and  C_13 
REMARK    6  A    between atoms: C_20  and  C_21 
REMARK       I    between atoms: C_21  and  N_22 
ROOT
HETATM    1  C   UNL     1      40.222 -14.553   4.506  1.00  0.00     0.035 A 
HETATM    2  C   UNL     1      40.136 -13.830   5.703  1.00  0.00     0.046 A 
HETATM    3  C   UNL     1      39.647 -12.505   5.684  1.00  0.00     0.030 A 
HETATM    4  C   UNL     1      39.281 -11.942   4.468  1.00  0.00     0.063 A 
HETATM    5  N   UNL     1      38.869 -10.674   4.765  1.00  0.00    -0.277 N 
HETATM    6  H   UNL     1      38.538  -9.969   4.117  1.00  0.00     0.189 HD
HETATM    7  N   UNL     1      38.909 -10.367   6.072  1.00  0.00    -0.168 NA
HETATM    8  C   UNL     1      39.384 -11.491   6.655  1.00  0.00     0.156 A 
HETATM    9  C   UNL     1      39.360 -12.631   3.256  1.00  0.00     0.034 A 
HETATM   10  C   UNL     1      39.827 -13.951   3.304  1.00  0.00     0.032 A 
ENDROOT
BRANCH   1  11
HETATM   11  N   UNL     1      40.662 -15.893   4.433  1.00  0.00    -0.327 N 
HETATM   12  C   UNL     1      41.947 -16.343   4.192  1.00  0.00     0.223 C 
HETATM   13  O   UNL     1      42.913 -15.650   3.891  1.00  0.00    -0.273 OA
HETATM   14  H   UNL     1      39.957 -16.600   4.605  1.00  0.00     0.169 HD
BRANCH  12  15
HETATM   15  C   UNL     1      42.096 -17.848   4.333  1.00  0.00     0.116 C 
BRANCH  15  16
HETATM   16  C   UNL     1      43.547 -18.323   4.527  1.00  0.00     0.049 C 
BRANCH  16  17
HETATM   17  C   UNL     1      43.967 -18.385   5.982  1.00  0.00    -0.027 C 
HETATM   18  C   UNL     1      44.998 -17.708   6.505  1.00  0.00     0.007 C 
ENDBRANCH  16  17
BRANCH  16  19
HETATM   19  C   UNL     1      43.849 -19.604   3.755  1.00  0.00    -0.050 A 
HETATM   20  C   UNL     1      44.571 -20.669   4.317  1.00  0.00     0.008 A 
HETATM   21  C   UNL     1      44.806 -21.837   3.588  1.00  0.00     0.001 A 
HETATM   22  C   UNL     1      44.331 -21.955   2.285  1.00  0.00     0.000 A 
HETATM   23  C   UNL     1      43.617 -20.909   1.710  1.00  0.00     0.001 A 
HETATM   24  C   UNL     1      43.373 -19.743   2.439  1.00  0.00     0.008 A 
ENDBRANCH  16  19
ENDBRANCH  15  16
ENDBRANCH  12  15
ENDBRANCH   1  11
BRANCH   8  25
HETATM   25  C   UNL     1      39.561 -11.578   8.111  1.00  0.00     0.270 C 
HETATM   26  N   UNL     1      38.850 -12.588   8.701  1.00  0.00    -0.365 N 
HETATM   27  H   UNL     1      38.287 -13.191   8.116  1.00  0.00     0.159 HD
HETATM   28  H   UNL     1      38.931 -12.738   9.695  1.00  0.00     0.159 HD
HETATM   29  O   UNL     1      40.280 -10.840   8.775  1.00  0.00    -0.266 OA
ENDBRANCH   8  25
TORSDOF 6
ENDMDL
MODEL 3
REMARK VINA RESULT:      -8.2      1.802      3.383
REMARK  6 active torsions:
REMARK  status: ('A' for Active; 'I' for Inactive)
REMARK    1  A    between atoms: C_2  and  C_3 
REMARK    2  A    between atoms: C_3  and  C_4 
REMARK    3  A    between atoms: C_3  and  C_10 
REMARK    4  A    between atoms: C_10  and  C_11 
REMARK       I    between atoms: C_11  and  N_12 
REMARK    5  A    between atoms: N_12  and  C_13 
REMARK    6  A    between atoms: C_20  and  C_21 
REMARK       I    between atoms: C_21  and  N_22 
ROOT
HETATM    1  C   UNL     1      41.846 -15.236   0.280  1.00  0.00     0.035 A 
HETATM    2  C   UNL     1      41.036 -15.439  -0.847  1.00  0.00     0.046 A 
HETATM    3  C   UNL     1      40.177 -14.407  -1.283  1.00  0.00     0.030 A 
HETATM    4  C   UNL     1      40.140 -13.216  -0.567  1.00  0.00     0.063 A 
HETATM    5  N   UNL     1      39.224 -12.435  -1.212  1.00  0.00    -0.277 N 
HETATM    6  H   UNL     1      38.934 -11.497  -0.961  1.00  0.00     0.189 HD
HETATM    7  N   UNL     1      38.676 -12.999  -2.300  1.00  0.00    -0.168 NA
HETATM    8  C   UNL     1      39.259 -14.219  -2.360  1.00  0.00     0.156 A 
HETATM    9  C   UNL     1      40.929 -12.982   0.561  1.00  0.00     0.034 A 
HETATM   10  C   UNL     1      41.789 -14.014   0.961  1.00  0.00     0.032 A 
ENDROOT
BRANCH   1  11
HETATM   11  N   UNL     1      42.762 -16.195   0.766  1.00  0.00    -0.327 N 
HETATM   12  C   UNL     1      42.481 -17.468   1.221  1.00  0.00     0.223 C 
HETATM   13  O   UNL     1      41.365 -17.951   1.383  1.00  0.00    -0.273 OA
HETATM   14  H   UNL     1      43.737 -15.921   0.750  1.00  0.00     0.169 HD
BRANCH  12  15
HETATM   15  C   UNL     1      43.723 -18.288   1.528  1.00  0.00     0.116 C 
BRANCH  15  16
HETATM   16  C   UNL     1      43.573 -19.233   2.735  1.00  0.00     0.049 C 
BRANCH  16  17
HETATM   17  C   UNL     1      44.302 -20.550   2.556  1.00  0.00    -0.027 C 
HETATM   18  C   UNL     1      43.832 -21.589   1.850  1.00  0.00     0.007 C 
ENDBRANCH  16  17
BRANCH  16  19
HETATM   19  C   UNL     1      43.887 -18.543   4.058  1.00  0.00    -0.050 A 
HETATM   20  C   UNL     1      43.363 -17.284   4.393  1.00  0.00     0.008 A 
HETATM   21  C   UNL     1      43.653 -16.694   5.626  1.00  0.00     0.001 A 
HETATM   22  C   UNL     1      44.476 -17.349   6.538  1.00  0.00     0.000 A 
HETATM   23  C   UNL     1      45.007 -18.596   6.222  1.00  0.00     0.001 A 
HETATM   24  C   UNL     1      44.712 -19.191   4.994  1.00  0.00     0.008 A 
ENDBRANCH  16  19
ENDBRANCH  15  16
ENDBRANCH  12  15
ENDBRANCH   1  11
BRANCH   8  25
HETATM   25  C   UNL     1      38.942 -15.162  -3.442  1.00  0.00     0.270 C 
HETATM   26  N   UNL     1      37.635 -15.569  -3.462  1.00  0.00    -0.365 N 
HETATM   27  H   UNL     1      36.999 -15.195  -2.769  1.00  0.00     0.159 HD
HETATM   28  H   UNL     1      37.322 -16.197  -4.186  1.00  0.00     0.159 HD
HETATM   29  O   UNL     1      39.742 -15.563  -4.279  1.00  0.00    -0.266 OA
ENDBRANCH   8  25
TORSDOF 6
ENDMDL
MODEL 4
REMARK VINA RESULT:      -8.2      1.814      2.272
REMARK  6 active torsions:
REMARK  status: ('A' for Active; 'I' for Inactive)
REMARK    1  A    between atoms: C_2  and  C_3 
REMARK    2  A    between atoms: C_3  and  C_4 
REMARK    3  A    between atoms: C_3  and  C_10 
REMARK    4  A    between atoms: C_10  and  C_11 
REMARK       I    between atoms: C_11  and  N_12 
REMARK    5  A    between atoms: N_12  and  C_13 
REMARK    6  A    between atoms: C_20  and  C_21 
REMARK       I    between atoms: C_21  and  N_22 
ROOT
HETATM    1  C   UNL     1      41.401 -14.976   0.042  1.00  0.00     0.035 A 
HETATM    2  C   UNL     1      40.708 -15.179  -1.160  1.00  0.00     0.046 A 
HETATM    3  C   UNL     1      39.695 -14.273  -1.542  1.00  0.00     0.030 A 
HETATM    4  C   UNL     1      39.394 -13.209  -0.701  1.00  0.00     0.063 A 
HETATM    5  N   UNL     1      38.384 -12.531  -1.322  1.00  0.00    -0.277 N 
HETATM    6  H   UNL     1      37.908 -11.700  -0.990  1.00  0.00     0.189 HD
HETATM    7  N   UNL     1      38.014 -13.043  -2.507  1.00  0.00    -0.168 NA
HETATM    8  C   UNL     1      38.820 -14.120  -2.659  1.00  0.00     0.156 A 
HETATM    9  C   UNL     1      40.060 -12.980   0.505  1.00  0.00     0.034 A 
HETATM   10  C   UNL     1      41.076 -13.880   0.851  1.00  0.00     0.032 A 
ENDROOT
BRANCH   1  11
HETATM   11  N   UNL     1      42.454 -15.807   0.486  1.00  0.00    -0.327 N 
HETATM   12  C   UNL     1      42.366 -17.121   0.905  1.00  0.00     0.223 C 
HETATM   13  O   UNL     1      41.334 -17.764   1.065  1.00  0.00    -0.273 OA
HETATM   14  H   UNL     1      43.379 -15.395   0.468  1.00  0.00     0.169 HD
BRANCH  12  15
HETATM   15  C   UNL     1      43.718 -17.762   1.171  1.00  0.00     0.116 C 
BRANCH  15  16
HETATM   16  C   UNL     1      43.972 -18.108   2.649  1.00  0.00     0.049 C 
BRANCH  16  17
HETATM   17  C   UNL     1      42.960 -17.488   3.591  1.00  0.00    -0.027 C 
HETATM   18  C   UNL     1      43.242 -16.533   4.489  1.00  0.00     0.007 C 
ENDBRANCH  16  17
BRANCH  16  19
HETATM   19  C   UNL     1      44.168 -19.604   2.871  1.00  0.00    -0.050 A 
HETATM   20  C   UNL     1      44.682 -20.127   4.069  1.00  0.00     0.008 A 
HETATM   21  C   UNL     1      44.824 -21.505   4.246  1.00  0.00     0.001 A 
HETATM   22  C   UNL     1      44.461 -22.381   3.227  1.00  0.00     0.000 A 
HETATM   23  C   UNL     1      43.952 -21.882   2.031  1.00  0.00     0.001 A 
HETATM   24  C   UNL     1      43.802 -20.505   1.855  1.00  0.00     0.008 A 
ENDBRANCH  16  19
ENDBRANCH  15  16
ENDBRANCH  12  15
ENDBRANCH   1  11
BRANCH   8  25
HETATM   25  C   UNL     1      38.747 -14.961  -3.863  1.00  0.00     0.270 C 
HETATM   26  N   UNL     1      37.586 -14.818  -4.574  1.00  0.00    -0.365 N 
HETATM   27  H   UNL     1      36.893 -14.158  -4.246  1.00  0.00     0.159 HD
HETATM   28  H   UNL     1      37.461 -15.338  -5.429  1.00  0.00     0.159 HD
HETATM   29  O   UNL     1      39.629 -15.725  -4.237  1.00  0.00    -0.266 OA
ENDBRANCH   8  25
TORSDOF 6
ENDMDL
MODEL 5
REMARK VINA RESULT:      -7.9      1.363      1.843
REMARK  6 active torsions:
REMARK  status: ('A' for Active; 'I' for Inactive)
REMARK    1  A    between atoms: C_2  and  C_3 
REMARK    2  A    between atoms: C_3  and  C_4 
REMARK    3  A    between atoms: C_3  and  C_10 
REMARK    4  A    between atoms: C_10  and  C_11 
REMARK       I    between atoms: C_11  and  N_12 
REMARK    5  A    between atoms: N_12  and  C_13 
REMARK    6  A    between atoms: C_20  and  C_21 
REMARK       I    between atoms: C_21  and  N_22 
ROOT
HETATM    1  C   UNL     1      39.620 -14.900   1.049  1.00  0.00     0.035 A 
HETATM    2  C   UNL     1      40.278 -14.819  -0.186  1.00  0.00     0.046 A 
HETATM    3  C   UNL     1      39.675 -14.119  -1.254  1.00  0.00     0.030 A 
HETATM    4  C   UNL     1      38.427 -13.542  -1.057  1.00  0.00     0.063 A 
HETATM    5  N   UNL     1      38.105 -12.959  -2.250  1.00  0.00    -0.277 N 
HETATM    6  H   UNL     1      37.258 -12.451  -2.476  1.00  0.00     0.189 HD
HETATM    7  N   UNL     1      39.044 -13.083  -3.202  1.00  0.00    -0.168 NA
HETATM    8  C   UNL     1      40.024 -13.795  -2.599  1.00  0.00     0.156 A 
HETATM    9  C   UNL     1      37.741 -13.607   0.158  1.00  0.00     0.034 A 
HETATM   10  C   UNL     1      38.371 -14.288   1.208  1.00  0.00     0.032 A 
ENDROOT
BRANCH   1  11
HETATM   11  N   UNL     1      40.163 -15.545   2.182  1.00  0.00    -0.327 N 
HETATM   12  C   UNL     1      40.626 -16.844   2.267  1.00  0.00     0.223 C 
HETATM   13  O   UNL     1      40.546 -17.701   1.393  1.00  0.00    -0.273 OA
HETATM   14  H   UNL     1      40.245 -14.977   3.017  1.00  0.00     0.169 HD
BRANCH  12  15
HETATM   15  C   UNL     1      41.285 -17.165   3.598  1.00  0.00     0.116 C 
BRANCH  15  16
HETATM   16  C   UNL     1      42.821 -17.076   3.579  1.00  0.00     0.049 C 
BRANCH  16  17
HETATM   17  C   UNL     1      43.378 -16.135   4.630  1.00  0.00    -0.027 C 
HETATM   18  C   UNL     1      42.648 -15.556   5.595  1.00  0.00     0.007 C 
ENDBRANCH  16  17
BRANCH  16  19
HETATM   19  C   UNL     1      43.485 -18.449   3.584  1.00  0.00    -0.050 A 
HETATM   20  C   UNL     1      43.588 -19.239   2.429  1.00  0.00     0.008 A 
HETATM   21  C   UNL     1      44.226 -20.481   2.466  1.00  0.00     0.001 A 
HETATM   22  C   UNL     1      44.763 -20.955   3.660  1.00  0.00     0.000 A 
HETATM   23  C   UNL     1      44.669 -20.187   4.816  1.00  0.00     0.001 A 
HETATM   24  C   UNL     1      44.039 -18.942   4.779  1.00  0.00     0.008 A 
ENDBRANCH  16  19
ENDBRANCH  15  16
ENDBRANCH  12  15
ENDBRANCH   1  11
BRANCH   8  25
HETATM   25  C   UNL     1      41.266 -14.134  -3.309  1.00  0.00     0.270 C 
HETATM   26  N   UNL     1      42.034 -13.050  -3.640  1.00  0.00    -0.365 N 
HETATM   27  H   UNL     1      41.715 -12.128  -3.370  1.00  0.00     0.159 HD
HETATM   28  H   UNL     1      42.916 -13.189  -4.107  1.00  0.00     0.159 HD
HETATM   29  O   UNL     1      41.625 -15.272  -3.588  1.00  0.00    -0.266 OA
ENDBRANCH   8  25
TORSDOF 6
ENDMDL
MODEL 6
REMARK VINA RESULT:      -7.8      1.551      2.086
REMARK  6 active torsions:
REMARK  status: ('A' for Active; 'I' for Inactive)
REMARK    1  A    between atoms: C_2  and  C_3 
REMARK    2  A    between atoms: C_3  and  C_4 
REMARK    3  A    between atoms: C_3  and  C_10 
REMARK    4  A    between atoms: C_10  and  C_11 
REMARK       I    between atoms: C_11  and  N_12 
REMARK    5  A    between atoms: N_12  and  C_13 
REMARK    6  A    between atoms: C_20  and  C_21 
REMARK       I    between atoms: C_21  and  N_22 
ROOT
HETATM    1  C   UNL     1      40.206 -15.287   2.921  1.00  0.00     0.035 A 
HETATM    2  C   UNL     1      39.917 -15.168   1.554  1.00  0.00     0.046 A 
HETATM    3  C   UNL     1      39.407 -13.950   1.053  1.00  0.00     0.030 A 
HETATM    4  C   UNL     1      39.183 -12.902   1.937  1.00  0.00     0.063 A 
HETATM    5  N   UNL     1      38.685 -11.884   1.174  1.00  0.00    -0.277 N 
HETATM    6  H   UNL     1      38.400 -10.964   1.488  1.00  0.00     0.189 HD
HETATM    7  N   UNL     1      38.587 -12.167  -0.136  1.00  0.00    -0.168 NA
HETATM    8  C   UNL     1      39.034 -13.440  -0.227  1.00  0.00     0.156 A 
HETATM    9  C   UNL     1      39.454 -12.988   3.304  1.00  0.00     0.034 A 
HETATM   10  C   UNL     1      39.981 -14.199   3.773  1.00  0.00     0.032 A 
ENDROOT
BRANCH   1  11
HETATM   11  N   UNL     1      40.754 -16.451   3.504  1.00  0.00    -0.327 N 
HETATM   12  C   UNL     1      42.056 -16.645   3.927  1.00  0.00     0.223 C 
HETATM   13  O   UNL     1      42.993 -15.870   3.770  1.00  0.00    -0.273 OA
HETATM   14  H   UNL     1      40.108 -17.218   3.651  1.00  0.00     0.169 HD
BRANCH  12  15
HETATM   15  C   UNL     1      42.266 -17.966   4.647  1.00  0.00     0.116 C 
BRANCH  15  16
HETATM   16  C   UNL     1      43.725 -18.457   4.652  1.00  0.00     0.049 C 
BRANCH  16  17
HETATM   17  C   UNL     1      44.305 -18.592   6.046  1.00  0.00    -0.027 C 
HETATM   18  C   UNL     1      45.383 -17.930   6.489  1.00  0.00     0.007 C 
ENDBRANCH  16  17
BRANCH  16  19
HETATM   19  C   UNL     1      43.925 -19.700   3.791  1.00  0.00    -0.050 A 
HETATM   20  C   UNL     1      43.507 -19.763   2.452  1.00  0.00     0.008 A 
HETATM   21  C   UNL     1      43.730 -20.909   1.686  1.00  0.00     0.001 A 
HETATM   22  C   UNL     1      44.366 -22.012   2.249  1.00  0.00     0.000 A 
HETATM   23  C   UNL     1      44.784 -21.970   3.575  1.00  0.00     0.001 A 
HETATM   24  C   UNL     1      44.570 -20.822   4.340  1.00  0.00     0.008 A 
ENDBRANCH  16  19
ENDBRANCH  15  16
ENDBRANCH  12  15
ENDBRANCH   1  11
BRANCH   8  25
HETATM   25  C   UNL     1      39.109 -14.130  -1.523  1.00  0.00     0.270 C 
HETATM   26  N   UNL     1      37.904 -14.590  -1.981  1.00  0.00    -0.365 N 
HETATM   27  H   UNL     1      37.075 -14.416  -1.427  1.00  0.00     0.159 HD
HETATM   28  H   UNL     1      37.857 -15.053  -2.875  1.00  0.00     0.159 HD
HETATM   29  O   UNL     1      40.136 -14.289  -2.173  1.00  0.00    -0.266 OA
ENDBRANCH   8  25
TORSDOF 6
ENDMDL
MODEL 7
REMARK VINA RESULT:      -7.8      2.132      2.599
REMARK  6 active torsions:
REMARK  status: ('A' for Active; 'I' for Inactive)
REMARK    1  A    between atoms: C_2  and  C_3 
REMARK    2  A    between atoms: C_3  and  C_4 
REMARK    3  A    between atoms: C_3  and  C_10 
REMARK    4  A    between atoms: C_10  and  C_11 
REMARK       I    between atoms: C_11  and  N_12 
REMARK    5  A    between atoms: N_12  and  C_13 
REMARK    6  A    between atoms: C_20  and  C_21 
REMARK       I    between atoms: C_21  and  N_22 
ROOT
HETATM    1  C   UNL     1      42.203 -16.237   1.801  1.00  0.00     0.035 A 
HETATM    2  C   UNL     1      42.131 -14.838   1.846  1.00  0.00     0.046 A 
HETATM    3  C   UNL     1      41.667 -14.127   0.718  1.00  0.00     0.030 A 
HETATM    4  C   UNL     1      41.311 -14.836  -0.422  1.00  0.00     0.063 A 
HETATM    5  N   UNL     1      40.923 -13.891  -1.330  1.00  0.00    -0.277 N 
HETATM    6  H   UNL     1      40.605 -14.046  -2.279  1.00  0.00     0.189 HD
HETATM    7  N   UNL     1      40.970 -12.628  -0.875  1.00  0.00    -0.168 NA
HETATM    8  C   UNL     1      41.424 -12.758   0.393  1.00  0.00     0.156 A 
HETATM    9  C   UNL     1      41.375 -16.228  -0.504  1.00  0.00     0.034 A 
HETATM   10  C   UNL     1      41.818 -16.912   0.636  1.00  0.00     0.032 A 
ENDROOT
BRANCH   1  11
HETATM   11  N   UNL     1      42.618 -17.033   2.892  1.00  0.00    -0.327 N 
HETATM   12  C   UNL     1      41.972 -17.200   4.102  1.00  0.00     0.223 C 
HETATM   13  O   UNL     1      40.973 -16.597   4.481  1.00  0.00    -0.273 OA
HETATM   14  H   UNL     1      43.472 -17.560   2.754  1.00  0.00     0.169 HD
BRANCH  12  15
HETATM   15  C   UNL     1      42.619 -18.247   4.992  1.00  0.00     0.116 C 
BRANCH  15  16
HETATM   16  C   UNL     1      44.091 -18.544   4.651  1.00  0.00     0.049 C 
BRANCH  16  17
HETATM   17  C   UNL     1      45.044 -18.226   5.787  1.00  0.00    -0.027 C 
HETATM   18  C   UNL     1      44.665 -17.963   7.046  1.00  0.00     0.007 C 
ENDBRANCH  16  17
BRANCH  16  19
HETATM   19  C   UNL     1      44.285 -19.941   4.073  1.00  0.00    -0.050 A 
HETATM   20  C   UNL     1      44.681 -21.034   4.860  1.00  0.00     0.008 A 
HETATM   21  C   UNL     1      44.824 -22.305   4.300  1.00  0.00     0.001 A 
HETATM   22  C   UNL     1      44.581 -22.503   2.944  1.00  0.00     0.000 A 
HETATM   23  C   UNL     1      44.191 -21.431   2.146  1.00  0.00     0.001 A 
HETATM   24  C   UNL     1      44.040 -20.161   2.705  1.00  0.00     0.008 A 
ENDBRANCH  16  19
ENDBRANCH  15  16
ENDBRANCH  12  15
ENDBRANCH   1  11
BRANCH   8  25
HETATM   25  C   UNL     1      41.601 -11.585   1.262  1.00  0.00     0.270 C 
HETATM   26  N   UNL     1      42.290 -10.556   0.679  1.00  0.00    -0.365 N 
HETATM   27  H   UNL     1      42.603 -10.663  -0.278  1.00  0.00     0.159 HD
HETATM   28  H   UNL     1      42.436  -9.702   1.193  1.00  0.00     0.159 HD
HETATM   29  O   UNL     1      41.175 -11.492   2.408  1.00  0.00    -0.266 OA
ENDBRANCH   8  25
TORSDOF 6
ENDMDL
MODEL 8
REMARK VINA RESULT:      -7.6      2.394      3.198
REMARK  6 active torsions:
REMARK  status: ('A' for Active; 'I' for Inactive)
REMARK    1  A    between atoms: C_2  and  C_3 
REMARK    2  A    between atoms: C_3  and  C_4 
REMARK    3  A    between atoms: C_3  and  C_10 
REMARK    4  A    between atoms: C_10  and  C_11 
REMARK       I    between atoms: C_11  and  N_12 
REMARK    5  A    between atoms: N_12  and  C_13 
REMARK    6  A    between atoms: C_20  and  C_21 
REMARK       I    between atoms: C_21  and  N_22 
ROOT
HETATM    1  C   UNL     1      40.582 -15.032   4.494  1.00  0.00     0.035 A 
HETATM    2  C   UNL     1      39.876 -14.771   3.311  1.00  0.00     0.046 A 
HETATM    3  C   UNL     1      39.347 -13.481   3.085  1.00  0.00     0.030 A 
HETATM    4  C   UNL     1      39.523 -12.504   4.056  1.00  0.00     0.063 A 
HETATM    5  N   UNL     1      38.901 -11.390   3.566  1.00  0.00    -0.277 N 
HETATM    6  H   UNL     1      38.823 -10.485   4.014  1.00  0.00     0.189 HD
HETATM    7  N   UNL     1      38.356 -11.546   2.349  1.00  0.00    -0.168 NA
HETATM    8  C   UNL     1      38.627 -12.834   2.035  1.00  0.00     0.156 A 
HETATM    9  C   UNL     1      40.216 -12.731   5.247  1.00  0.00     0.034 A 
HETATM   10  C   UNL     1      40.750 -14.012   5.438  1.00  0.00     0.032 A 
ENDROOT
BRANCH   1  11
HETATM   11  N   UNL     1      41.178 -16.278   4.788  1.00  0.00    -0.327 N 
HETATM   12  C   UNL     1      42.393 -16.755   4.335  1.00  0.00     0.223 C 
HETATM   13  O   UNL     1      43.121 -16.217   3.508  1.00  0.00    -0.273 OA
HETATM   14  H   UNL     1      40.663 -16.874   5.425  1.00  0.00     0.169 HD
BRANCH  12  15
HETATM   15  C   UNL     1      42.798 -18.075   4.970  1.00  0.00     0.116 C 
BRANCH  15  16
HETATM   16  C   UNL     1      44.242 -18.508   4.658  1.00  0.00     0.049 C 
BRANCH  16  17
HETATM   17  C   UNL     1      45.158 -18.448   5.865  1.00  0.00    -0.027 C 
HETATM   18  C   UNL     1      44.742 -18.262   7.126  1.00  0.00     0.007 C 
ENDBRANCH  16  17
BRANCH  16  19
HETATM   19  C   UNL     1      44.304 -19.839   3.917  1.00  0.00    -0.050 A 
HETATM   20  C   UNL     1      44.750 -21.021   4.530  1.00  0.00     0.008 A 
HETATM   21  C   UNL     1      44.769 -22.228   3.826  1.00  0.00     0.001 A 
HETATM   22  C   UNL     1      44.351 -22.270   2.499  1.00  0.00     0.000 A 
HETATM   23  C   UNL     1      43.908 -21.108   1.874  1.00  0.00     0.001 A 
HETATM   24  C   UNL     1      43.881 -19.903   2.578  1.00  0.00     0.008 A 
ENDBRANCH  16  19
ENDBRANCH  15  16
ENDBRANCH  12  15
ENDBRANCH   1  11
BRANCH   8  25
HETATM   25  C   UNL     1      38.210 -13.408   0.748  1.00  0.00     0.270 C 
HETATM   26  N   UNL     1      38.965 -12.996  -0.318  1.00  0.00    -0.365 N 
HETATM   27  H   UNL     1      39.737 -12.364  -0.150  1.00  0.00     0.159 HD
HETATM   28  H   UNL     1      38.767 -13.360  -1.237  1.00  0.00     0.159 HD
HETATM   29  O   UNL     1      37.285 -14.197   0.600  1.00  0.00    -0.266 OA
ENDBRANCH   8  25
TORSDOF 6
ENDMDL
MODEL 9
REMARK VINA RESULT:      -7.6      2.568      3.691
REMARK  6 active torsions:
REMARK  status: ('A' for Active; 'I' for Inactive)
REMARK    1  A    between atoms: C_2  and  C_3 
REMARK    2  A    between atoms: C_3  and  C_4 
REMARK    3  A    between atoms: C_3  and  C_10 
REMARK    4  A    between atoms: C_10  and  C_11 
REMARK       I    between atoms: C_11  and  N_12 
REMARK    5  A    between atoms: N_12  and  C_13 
REMARK    6  A    between atoms: C_20  and  C_21 
REMARK       I    between atoms: C_21  and  N_22 
ROOT
HETATM    1  C   UNL     1      41.690 -14.475   3.842  1.00  0.00     0.035 A 
HETATM    2  C   UNL     1      40.686 -14.374   2.869  1.00  0.00     0.046 A 
HETATM    3  C   UNL     1      39.782 -13.291   2.909  1.00  0.00     0.030 A 
HETATM    4  C   UNL     1      39.899 -12.357   3.931  1.00  0.00     0.063 A 
HETATM    5  N   UNL     1      38.896 -11.455   3.714  1.00  0.00    -0.277 N 
HETATM    6  H   UNL     1      38.674 -10.639   4.271  1.00  0.00     0.189 HD
HETATM    7  N   UNL     1      38.150 -11.703   2.625  1.00  0.00    -0.168 NA
HETATM    8  C   UNL     1      38.689 -12.833   2.113  1.00  0.00     0.156 A 
HETATM    9  C   UNL     1      40.883 -12.429   4.919  1.00  0.00     0.034 A 
HETATM   10  C   UNL     1      41.781 -13.502   4.845  1.00  0.00     0.032 A 
ENDROOT
BRANCH   1  11
HETATM   11  N   UNL     1      42.661 -15.501   3.859  1.00  0.00    -0.327 N 
HETATM   12  C   UNL     1      42.611 -16.691   4.559  1.00  0.00     0.223 C 
HETATM   13  O   UNL     1      41.756 -17.018   5.376  1.00  0.00    -0.273 OA
HETATM   14  H   UNL     1      43.470 -15.353   3.268  1.00  0.00     0.169 HD
BRANCH  12  15
HETATM   15  C   UNL     1      43.756 -17.634   4.230  1.00  0.00     0.116 C 
BRANCH  15  16
HETATM   16  C   UNL     1      43.527 -18.492   2.973  1.00  0.00     0.049 C 
BRANCH  16  17
HETATM   17  C   UNL     1      44.097 -17.870   1.713  1.00  0.00    -0.027 C 
HETATM   18  C   UNL     1      43.369 -17.242   0.779  1.00  0.00     0.007 C 
ENDBRANCH  16  17
BRANCH  16  19
HETATM   19  C   UNL     1      43.946 -19.944   3.174  1.00  0.00    -0.050 A 
HETATM   20  C   UNL     1      43.858 -20.901   2.150  1.00  0.00     0.008 A 
HETATM   21  C   UNL     1      44.276 -22.217   2.364  1.00  0.00     0.001 A 
HETATM   22  C   UNL     1      44.779 -22.598   3.605  1.00  0.00     0.000 A 
HETATM   23  C   UNL     1      44.871 -21.664   4.632  1.00  0.00     0.001 A 
HETATM   24  C   UNL     1      44.462 -20.347   4.419  1.00  0.00     0.008 A 
ENDBRANCH  16  19
ENDBRANCH  15  16
ENDBRANCH  12  15
ENDBRANCH   1  11
BRANCH   8  25
HETATM   25  C   UNL     1      38.162 -13.437   0.881  1.00  0.00     0.270 C 
HETATM   26  N   UNL     1      38.879 -13.126  -0.243  1.00  0.00    -0.365 N 
HETATM   27  H   UNL     1      39.698 -12.539  -0.150  1.00  0.00     0.159 HD
HETATM   28  H   UNL     1      38.605 -13.518  -1.131  1.00  0.00     0.159 HD
HETATM   29  O   UNL     1      37.181 -14.170   0.823  1.00  0.00    -0.266 OA
ENDBRANCH   8  25
TORSDOF 6
ENDMDL
MODEL 10
REMARK VINA RESULT:      -7.5      2.623      3.835
REMARK  6 active torsions:
REMARK  status: ('A' for Active; 'I' for Inactive)
REMARK    1  A    between atoms: C_2  and  C_3 
REMARK    2  A    between atoms: C_3  and  C_4 
REMARK    3  A    between atoms: C_3  and  C_10 
REMARK    4  A    between atoms: C_10  and  C_11 
REMARK       I    between atoms: C_11  and  N_12 
REMARK    5  A    between atoms: N_12  and  C_13 
REMARK    6  A    between atoms: C_20  and  C_21 
REMARK       I    between atoms: C_21  and  N_22 
ROOT
HETATM    1  C   UNL     1      40.075 -15.164   3.162  1.00  0.00     0.035 A 
HETATM    2  C   UNL     1      40.156 -13.866   3.685  1.00  0.00     0.046 A 
HETATM    3  C   UNL     1      39.459 -12.814   3.052  1.00  0.00     0.030 A 
HETATM    4  C   UNL     1      38.723 -13.090   1.907  1.00  0.00     0.063 A 
HETATM    5  N   UNL     1      38.185 -11.894   1.525  1.00  0.00    -0.277 N 
HETATM    6  H   UNL     1      37.593 -11.717   0.722  1.00  0.00     0.189 HD
HETATM    7  N   UNL     1      38.484 -10.865   2.333  1.00  0.00    -0.168 NA
HETATM    8  C   UNL     1      39.268 -11.418   3.286  1.00  0.00     0.156 A 
HETATM    9  C   UNL     1      38.625 -14.370   1.356  1.00  0.00     0.034 A 
HETATM   10  C   UNL     1      39.307 -15.400   2.015  1.00  0.00     0.032 A 
ENDROOT
BRANCH   1  11
HETATM   11  N   UNL     1      40.706 -16.283   3.749  1.00  0.00    -0.327 N 
HETATM   12  C   UNL     1      42.003 -16.717   3.548  1.00  0.00     0.223 C 
HETATM   13  O   UNL     1      42.802 -16.262   2.736  1.00  0.00    -0.273 OA
HETATM   14  H   UNL     1      40.148 -16.807   4.413  1.00  0.00     0.169 HD
BRANCH  12  15
HETATM   15  C   UNL     1      42.402 -17.867   4.456  1.00  0.00     0.116 C 
BRANCH  15  16
HETATM   16  C   UNL     1      43.887 -18.264   4.356  1.00  0.00     0.049 C 
BRANCH  16  17
HETATM   17  C   UNL     1      44.644 -18.077   5.655  1.00  0.00    -0.027 C 
HETATM   18  C   UNL     1      44.091 -17.664   6.805  1.00  0.00     0.007 C 
ENDBRANCH  16  17
BRANCH  16  19
HETATM   19  C   UNL     1      44.080 -19.644   3.736  1.00  0.00    -0.050 A 
HETATM   20  C   UNL     1      44.641 -20.717   4.448  1.00  0.00     0.008 A 
HETATM   21  C   UNL     1      44.780 -21.974   3.855  1.00  0.00     0.001 A 
HETATM   22  C   UNL     1      44.368 -22.176   2.541  1.00  0.00     0.000 A 
HETATM   23  C   UNL     1      43.812 -21.124   1.818  1.00  0.00     0.001 A 
HETATM   24  C   UNL     1      43.665 -19.869   2.412  1.00  0.00     0.008 A 
ENDBRANCH  16  19
ENDBRANCH  15  16
ENDBRANCH  12  15
ENDBRANCH   1  11
BRANCH   8  25
HETATM   25  C   UNL     1      39.801 -10.615   4.396  1.00  0.00     0.270 C 
HETATM   26  N   UNL     1      38.864  -9.839   5.023  1.00  0.00    -0.365 N 
HETATM   27  H   UNL     1      37.905  -9.882   4.704  1.00  0.00     0.159 HD
HETATM   28  H   UNL     1      39.135  -9.274   5.813  1.00  0.00     0.159 HD
HETATM   29  O   UNL     1      40.969 -10.619   4.766  1.00  0.00    -0.266 OA
ENDBRANCH   8  25
TORSDOF 6
ENDMDL
