MODEL 1
REMARK VINA RESULT:      -9.4      0.000      0.000
REMARK  10 active torsions:
REMARK  status: ('A' for Active; 'I' for Inactive)
REMARK    1  A    between atoms: C_2  and  O_3 
REMARK    2  A    between atoms: O_3  and  C_4 
REMARK    3  A    between atoms: C_4  and  C_5 
REMARK    4  A    between atoms: C_6  and  C_7 
REMARK    5  A    between atoms: C_7  and  O_8 
REMARK    6  A    between atoms: O_8  and  C_9 
REMARK    7  A    between atoms: C_9  and  C_10 
REMARK       I    between atoms: C_10  and  N_11 
REMARK    8  A    between atoms: N_11  and  C_12 
REMARK    9  A    between atoms: C_12  and  C_13 
REMARK       I    between atoms: C_13  and  N_14 
REMARK   10  A    between atoms: N_14  and  C_15 
ROOT
HETATM    1  C   UNL     1      43.919 -15.072   6.332  1.00  0.00     0.281 C 
ENDROOT
BRANCH   1   2
HETATM    2  O   UNL     1      44.377 -16.400   6.538  1.00  0.00    -0.307 OA
BRANCH   2   3
HETATM    3  C   UNL     1      43.391 -17.344   6.530  1.00  0.00     0.318 C 
HETATM    4  O   UNL     1      42.546 -17.458   7.414  1.00  0.00    -0.257 OA
BRANCH   3   5
HETATM    5  C   UNL     1      43.551 -18.216   5.385  1.00  0.00     0.160 A 
HETATM    6  C   UNL     1      43.111 -18.093   4.073  1.00  0.00     0.018 A 
HETATM    7  C   UNL     1      43.506 -19.294   3.405  1.00  0.00     0.009 A 
HETATM    8  C   UNL     1      44.181 -20.054   4.350  1.00  0.00     0.087 A 
HETATM    9  C   UNL     1      43.374 -19.817   2.104  1.00  0.00     0.015 A 
HETATM   10  O   UNL     1      44.211 -19.407   5.543  1.00  0.00    -0.303 OA
HETATM   11  C   UNL     1      44.742 -21.304   4.100  1.00  0.00     0.038 A 
HETATM   12  C   UNL     1      44.596 -21.806   2.803  1.00  0.00     0.003 A 
HETATM   13  C   UNL     1      43.922 -21.078   1.821  1.00  0.00     0.001 A 
BRANCH   6  14
HETATM   14  C   UNL     1      42.407 -16.926   3.483  1.00  0.00     0.210 C 
BRANCH  14  15
HETATM   15  O   UNL     1      41.009 -17.193   3.402  1.00  0.00    -0.387 OA
BRANCH  15  16
HETATM   16  C   UNL     1      40.409 -16.603   2.255  1.00  0.00     0.163 C 
HETATM   17  C   UNL     1      41.165 -17.064   1.025  1.00  0.00     0.033 C 
ENDBRANCH  15  16
ENDBRANCH  14  15
ENDBRANCH   6  14
ENDBRANCH   3   5
ENDBRANCH   2   3
ENDBRANCH   1   2
BRANCH   1  18
HETATM   18  C   UNL     1      44.820 -13.978   6.916  1.00  0.00     0.242 C 
HETATM   19  N   UNL     1      44.392 -13.471   8.127  1.00  0.00    -0.350 N 
HETATM   20  H   UNL     1      43.488 -13.733   8.501  1.00  0.00     0.163 HD
HETATM   21  O   UNL     1      45.836 -13.588   6.352  1.00  0.00    -0.271 OA
BRANCH  19  22
HETATM   22  C   UNL     1      45.189 -12.499   8.858  1.00  0.00     0.225 C 
BRANCH  22  23
HETATM   23  C   UNL     1      44.411 -11.453   9.668  1.00  0.00     0.239 C 
HETATM   24  N   UNL     1      43.358 -11.980  10.399  1.00  0.00    -0.325 N 
HETATM   25  H   UNL     1      42.926 -12.789   9.957  1.00  0.00     0.169 HD
HETATM   26  O   UNL     1      44.804 -10.289   9.693  1.00  0.00    -0.271 OA
BRANCH  24  27
HETATM   27  C   UNL     1      42.562 -11.304  11.357  1.00  0.00     0.041 C 
HETATM   28  C   UNL     1      41.275 -10.763  11.145  1.00  0.00    -0.029 C 
HETATM   29  C   UNL     1      40.657 -10.631   9.775  1.00  0.00     0.051 C 
HETATM   30  C   UNL     1      40.543 -10.265  12.258  1.00  0.00    -0.054 C 
HETATM   31  C   UNL     1      39.120  -9.783  12.127  1.00  0.00     0.049 C 
HETATM   32  C   UNL     1      41.160 -10.164  13.512  1.00  0.00     0.007 C 
HETATM   33  C   UNL     1      42.473 -10.576  13.683  1.00  0.00     0.003 C 
HETATM   34  C   UNL     1      43.162 -11.151  12.618  1.00  0.00     0.030 C 
ENDBRANCH  24  27
ENDBRANCH  22  23
ENDBRANCH  19  22
ENDBRANCH   1  18
TORSDOF 10
ENDMDL
MODEL 2
REMARK VINA RESULT:      -8.8      2.121      3.750
REMARK  10 active torsions:
REMARK  status: ('A' for Active; 'I' for Inactive)
REMARK    1  A    between atoms: C_2  and  O_3 
REMARK    2  A    between atoms: O_3  and  C_4 
REMARK    3  A    between atoms: C_4  and  C_5 
REMARK    4  A    between atoms: C_6  and  C_7 
REMARK    5  A    between atoms: C_7  and  O_8 
REMARK    6  A    between atoms: O_8  and  C_9 
REMARK    7  A    between atoms: C_9  and  C_10 
REMARK       I    between atoms: C_10  and  N_11 
REMARK    8  A    between atoms: N_11  and  C_12 
REMARK    9  A    between atoms: C_12  and  C_13 
REMARK       I    between atoms: C_13  and  N_14 
REMARK   10  A    between atoms: N_14  and  C_15 
ROOT
HETATM    1  C   UNL     1      40.579 -15.042   5.783  1.00  0.00     0.281 C 
ENDROOT
BRANCH   1   2
HETATM    2  O   UNL     1      40.868 -15.503   4.470  1.00  0.00    -0.307 OA
BRANCH   2   3
HETATM    3  C   UNL     1      42.187 -15.430   4.126  1.00  0.00     0.318 C 
HETATM    4  O   UNL     1      42.767 -14.380   3.857  1.00  0.00    -0.257 OA
BRANCH   3   5
HETATM    5  C   UNL     1      42.752 -16.760   4.048  1.00  0.00     0.160 A 
HETATM    6  C   UNL     1      43.348 -17.560   5.016  1.00  0.00     0.018 A 
HETATM    7  C   UNL     1      43.778 -18.746   4.345  1.00  0.00     0.009 A 
HETATM    8  C   UNL     1      43.393 -18.598   3.020  1.00  0.00     0.087 A 
HETATM    9  C   UNL     1      44.444 -19.932   4.714  1.00  0.00     0.015 A 
HETATM   10  O   UNL     1      42.774 -17.404   2.837  1.00  0.00    -0.303 OA
HETATM   11  C   UNL     1      43.619 -19.546   2.024  1.00  0.00     0.038 A 
HETATM   12  C   UNL     1      44.284 -20.713   2.411  1.00  0.00     0.003 A 
HETATM   13  C   UNL     1      44.693 -20.904   3.733  1.00  0.00     0.001 A 
BRANCH   6  14
HETATM   14  C   UNL     1      43.471 -17.250   6.464  1.00  0.00     0.210 C 
BRANCH  14  15
HETATM   15  O   UNL     1      44.560 -16.355   6.677  1.00  0.00    -0.387 OA
BRANCH  15  16
HETATM   16  C   UNL     1      44.154 -15.147   7.309  1.00  0.00     0.163 C 
HETATM   17  C   UNL     1      44.877 -13.991   6.648  1.00  0.00     0.033 C 
ENDBRANCH  15  16
ENDBRANCH  14  15
ENDBRANCH   6  14
ENDBRANCH   3   5
ENDBRANCH   2   3
ENDBRANCH   1   2
BRANCH   1  18
HETATM   18  C   UNL     1      40.240 -13.551   5.884  1.00  0.00     0.242 C 
HETATM   19  N   UNL     1      41.324 -12.734   6.133  1.00  0.00    -0.350 N 
HETATM   20  H   UNL     1      42.227 -13.134   6.352  1.00  0.00     0.163 HD
HETATM   21  O   UNL     1      39.098 -13.123   5.755  1.00  0.00    -0.271 OA
BRANCH  19  22
HETATM   22  C   UNL     1      41.183 -11.286   6.160  1.00  0.00     0.225 C 
BRANCH  22  23
HETATM   23  C   UNL     1      41.791 -10.565   7.371  1.00  0.00     0.239 C 
HETATM   24  N   UNL     1      42.135 -11.412   8.412  1.00  0.00    -0.325 N 
HETATM   25  H   UNL     1      41.531 -12.228   8.484  1.00  0.00     0.169 HD
HETATM   26  O   UNL     1      42.009  -9.358   7.311  1.00  0.00    -0.271 OA
BRANCH  24  27
HETATM   27  C   UNL     1      42.853 -11.073   9.586  1.00  0.00     0.041 C 
HETATM   28  C   UNL     1      42.297 -10.730  10.838  1.00  0.00    -0.029 C 
HETATM   29  C   UNL     1      40.827 -10.453  11.034  1.00  0.00     0.051 C 
HETATM   30  C   UNL     1      43.160 -10.580  11.958  1.00  0.00    -0.054 C 
HETATM   31  C   UNL     1      42.628 -10.333  13.348  1.00  0.00     0.049 C 
HETATM   32  C   UNL     1      44.549 -10.611  11.780  1.00  0.00     0.007 C 
HETATM   33  C   UNL     1      45.091 -10.816  10.521  1.00  0.00     0.003 C 
HETATM   34  C   UNL     1      44.250 -11.057   9.437  1.00  0.00     0.030 C 
ENDBRANCH  24  27
ENDBRANCH  22  23
ENDBRANCH  19  22
ENDBRANCH   1  18
TORSDOF 10
ENDMDL
MODEL 3
REMARK VINA RESULT:      -8.8      1.087      1.683
REMARK  10 active torsions:
REMARK  status: ('A' for Active; 'I' for Inactive)
REMARK    1  A    between atoms: C_2  and  O_3 
REMARK    2  A    between atoms: O_3  and  C_4 
REMARK    3  A    between atoms: C_4  and  C_5 
REMARK    4  A    between atoms: C_6  and  C_7 
REMARK    5  A    between atoms: C_7  and  O_8 
REMARK    6  A    between atoms: O_8  and  C_9 
REMARK    7  A    between atoms: C_9  and  C_10 
REMARK       I    between atoms: C_10  and  N_11 
REMARK    8  A    between atoms: N_11  and  C_12 
REMARK    9  A    between atoms: C_12  and  C_13 
REMARK       I    between atoms: C_13  and  N_14 
REMARK   10  A    between atoms: N_14  and  C_15 
ROOT
HETATM    1  C   UNL     1      44.547 -15.013   6.486  1.00  0.00     0.281 C 
ENDROOT
BRANCH   1   2
HETATM    2  O   UNL     1      43.243 -15.480   6.802  1.00  0.00    -0.307 OA
BRANCH   2   3
HETATM    3  C   UNL     1      43.177 -16.811   7.094  1.00  0.00     0.318 C 
HETATM    4  O   UNL     1      43.074 -17.257   8.236  1.00  0.00    -0.257 OA
BRANCH   3   5
HETATM    5  C   UNL     1      43.328 -17.591   5.885  1.00  0.00     0.160 A 
HETATM    6  C   UNL     1      42.622 -17.570   4.688  1.00  0.00     0.018 A 
HETATM    7  C   UNL     1      43.174 -18.612   3.880  1.00  0.00     0.009 A 
HETATM    8  C   UNL     1      44.194 -19.180   4.631  1.00  0.00     0.087 A 
HETATM    9  C   UNL     1      42.928 -19.133   2.594  1.00  0.00     0.015 A 
HETATM   10  O   UNL     1      44.290 -18.567   5.838  1.00  0.00    -0.303 OA
HETATM   11  C   UNL     1      44.998 -20.233   4.199  1.00  0.00     0.038 A 
HETATM   12  C   UNL     1      44.734 -20.736   2.921  1.00  0.00     0.003 A 
HETATM   13  C   UNL     1      43.716 -20.198   2.131  1.00  0.00     0.001 A 
BRANCH   6  14
HETATM   14  C   UNL     1      41.538 -16.623   4.318  1.00  0.00     0.210 C 
BRANCH  14  15
HETATM   15  O   UNL     1      41.995 -15.738   3.299  1.00  0.00    -0.387 OA
BRANCH  15  16
HETATM   16  C   UNL     1      40.944 -15.306   2.443  1.00  0.00     0.163 C 
HETATM   17  C   UNL     1      40.444 -16.500   1.654  1.00  0.00     0.033 C 
ENDBRANCH  15  16
ENDBRANCH  14  15
ENDBRANCH   6  14
ENDBRANCH   3   5
ENDBRANCH   2   3
ENDBRANCH   1   2
BRANCH   1  18
HETATM   18  C   UNL     1      45.032 -13.828   7.329  1.00  0.00     0.242 C 
HETATM   19  N   UNL     1      44.219 -13.518   8.401  1.00  0.00    -0.350 N 
HETATM   20  H   UNL     1      43.322 -13.974   8.512  1.00  0.00     0.163 HD
HETATM   21  O   UNL     1      46.058 -13.208   7.069  1.00  0.00    -0.271 OA
BRANCH  19  22
HETATM   22  C   UNL     1      44.593 -12.484   9.353  1.00  0.00     0.225 C 
BRANCH  22  23
HETATM   23  C   UNL     1      43.521 -11.432   9.671  1.00  0.00     0.239 C 
HETATM   24  N   UNL     1      42.813 -11.690  10.834  1.00  0.00    -0.325 N 
HETATM   25  H   UNL     1      42.707 -12.683  11.031  1.00  0.00     0.169 HD
HETATM   26  O   UNL     1      43.423 -10.432   8.965  1.00  0.00    -0.271 OA
BRANCH  24  27
HETATM   27  C   UNL     1      41.880 -10.834  11.472  1.00  0.00     0.041 C 
HETATM   28  C   UNL     1      42.174  -9.845  12.438  1.00  0.00    -0.029 C 
HETATM   29  C   UNL     1      43.525  -9.722  13.099  1.00  0.00     0.051 C 
HETATM   30  C   UNL     1      41.144  -8.959  12.854  1.00  0.00    -0.054 C 
HETATM   31  C   UNL     1      41.412  -7.806  13.789  1.00  0.00     0.049 C 
HETATM   32  C   UNL     1      39.825  -9.173  12.433  1.00  0.00     0.007 C 
HETATM   33  C   UNL     1      39.521 -10.230  11.588  1.00  0.00     0.003 C 
HETATM   34  C   UNL     1      40.541 -11.044  11.104  1.00  0.00     0.030 C 
ENDBRANCH  24  27
ENDBRANCH  22  23
ENDBRANCH  19  22
ENDBRANCH   1  18
TORSDOF 10
ENDMDL
MODEL 4
REMARK VINA RESULT:      -8.7      1.998     10.504
REMARK  10 active torsions:
REMARK  status: ('A' for Active; 'I' for Inactive)
REMARK    1  A    between atoms: C_2  and  O_3 
REMARK    2  A    between atoms: O_3  and  C_4 
REMARK    3  A    between atoms: C_4  and  C_5 
REMARK    4  A    between atoms: C_6  and  C_7 
REMARK    5  A    between atoms: C_7  and  O_8 
REMARK    6  A    between atoms: O_8  and  C_9 
REMARK    7  A    between atoms: C_9  and  C_10 
REMARK       I    between atoms: C_10  and  N_11 
REMARK    8  A    between atoms: N_11  and  C_12 
REMARK    9  A    between atoms: C_12  and  C_13 
REMARK       I    between atoms: C_13  and  N_14 
REMARK   10  A    between atoms: N_14  and  C_15 
ROOT
HETATM    1  C   UNL     1      45.153 -13.763   7.366  1.00  0.00     0.281 C 
ENDROOT
BRANCH   1   2
HETATM    2  O   UNL     1      44.617 -13.184   8.548  1.00  0.00    -0.307 OA
BRANCH   2   3
HETATM    3  C   UNL     1      45.164 -11.979   8.883  1.00  0.00     0.318 C 
HETATM    4  O   UNL     1      46.289 -11.620   8.542  1.00  0.00    -0.257 OA
BRANCH   3   5
HETATM    5  C   UNL     1      44.262 -11.251   9.750  1.00  0.00     0.160 A 
HETATM    6  C   UNL     1      43.012 -10.694   9.510  1.00  0.00     0.018 A 
HETATM    7  C   UNL     1      42.628 -10.038  10.721  1.00  0.00     0.009 A 
HETATM    8  C   UNL     1      43.660 -10.262  11.622  1.00  0.00     0.087 A 
HETATM    9  C   UNL     1      41.518  -9.287  11.155  1.00  0.00     0.015 A 
HETATM   10  O   UNL     1      44.645 -10.992  11.041  1.00  0.00    -0.303 OA
HETATM   11  C   UNL     1      43.673  -9.794  12.934  1.00  0.00     0.038 A 
HETATM   12  C   UNL     1      42.564  -9.048  13.343  1.00  0.00     0.003 A 
HETATM   13  C   UNL     1      41.504  -8.796  12.470  1.00  0.00     0.001 A 
BRANCH   6  14
HETATM   14  C   UNL     1      42.224 -10.800   8.255  1.00  0.00     0.210 C 
BRANCH  14  15
HETATM   15  O   UNL     1      42.251  -9.557   7.559  1.00  0.00    -0.387 OA
BRANCH  15  16
HETATM   16  C   UNL     1      40.989  -8.900   7.570  1.00  0.00     0.163 C 
HETATM   17  C   UNL     1      39.903  -9.942   7.385  1.00  0.00     0.033 C 
ENDBRANCH  15  16
ENDBRANCH  14  15
ENDBRANCH   6  14
ENDBRANCH   3   5
ENDBRANCH   2   3
ENDBRANCH   1   2
BRANCH   1  18
HETATM   18  C   UNL     1      44.119 -14.115   6.291  1.00  0.00     0.242 C 
HETATM   19  N   UNL     1      43.233 -15.109   6.655  1.00  0.00    -0.350 N 
HETATM   20  H   UNL     1      43.367 -15.626   7.515  1.00  0.00     0.163 HD
HETATM   21  O   UNL     1      44.084 -13.558   5.200  1.00  0.00    -0.271 OA
BRANCH  19  22
HETATM   22  C   UNL     1      42.131 -15.489   5.785  1.00  0.00     0.225 C 
BRANCH  22  23
HETATM   23  C   UNL     1      42.140 -16.933   5.266  1.00  0.00     0.239 C 
HETATM   24  N   UNL     1      43.391 -17.379   4.872  1.00  0.00    -0.325 N 
HETATM   25  H   UNL     1      43.983 -16.640   4.498  1.00  0.00     0.169 HD
HETATM   26  O   UNL     1      41.110 -17.602   5.316  1.00  0.00    -0.271 OA
BRANCH  24  27
HETATM   27  C   UNL     1      43.748 -18.700   4.502  1.00  0.00     0.041 C 
HETATM   28  C   UNL     1      43.579 -19.289   3.229  1.00  0.00    -0.029 C 
HETATM   29  C   UNL     1      42.768 -18.646   2.131  1.00  0.00     0.051 C 
HETATM   30  C   UNL     1      44.145 -20.569   2.980  1.00  0.00    -0.054 C 
HETATM   31  C   UNL     1      44.107 -21.206   1.613  1.00  0.00     0.049 C 
HETATM   32  C   UNL     1      44.715 -21.298   4.032  1.00  0.00     0.007 C 
HETATM   33  C   UNL     1      44.759 -20.767   5.311  1.00  0.00     0.003 C 
HETATM   34  C   UNL     1      44.290 -19.475   5.540  1.00  0.00     0.030 C 
ENDBRANCH  24  27
ENDBRANCH  22  23
ENDBRANCH  19  22
ENDBRANCH   1  18
TORSDOF 10
ENDMDL
MODEL 5
REMARK VINA RESULT:      -8.7      1.000      2.789
REMARK  10 active torsions:
REMARK  status: ('A' for Active; 'I' for Inactive)
REMARK    1  A    between atoms: C_2  and  O_3 
REMARK    2  A    between atoms: O_3  and  C_4 
REMARK    3  A    between atoms: C_4  and  C_5 
REMARK    4  A    between atoms: C_6  and  C_7 
REMARK    5  A    between atoms: C_7  and  O_8 
REMARK    6  A    between atoms: O_8  and  C_9 
REMARK    7  A    between atoms: C_9  and  C_10 
REMARK       I    between atoms: C_10  and  N_11 
REMARK    8  A    between atoms: N_11  and  C_12 
REMARK    9  A    between atoms: C_12  and  C_13 
REMARK       I    between atoms: C_13  and  N_14 
REMARK   10  A    between atoms: N_14  and  C_15 
ROOT
HETATM    1  C   UNL     1      44.069 -14.980   6.375  1.00  0.00     0.281 C 
ENDROOT
BRANCH   1   2
HETATM    2  O   UNL     1      43.685 -16.040   7.239  1.00  0.00    -0.307 OA
BRANCH   2   3
HETATM    3  C   UNL     1      42.654 -16.803   6.772  1.00  0.00     0.318 C 
HETATM    4  O   UNL     1      41.734 -17.214   7.476  1.00  0.00    -0.257 OA
BRANCH   3   5
HETATM    5  C   UNL     1      42.860 -17.110   5.373  1.00  0.00     0.160 A 
HETATM    6  C   UNL     1      43.731 -17.994   4.749  1.00  0.00     0.018 A 
HETATM    7  C   UNL     1      43.537 -17.821   3.343  1.00  0.00     0.009 A 
HETATM    8  C   UNL     1      42.544 -16.861   3.209  1.00  0.00     0.087 A 
HETATM    9  C   UNL     1      44.087 -18.376   2.171  1.00  0.00     0.015 A 
HETATM   10  O   UNL     1      42.134 -16.431   4.429  1.00  0.00    -0.303 OA
HETATM   11  C   UNL     1      42.049 -16.406   1.989  1.00  0.00     0.038 A 
HETATM   12  C   UNL     1      42.611 -16.968   0.838  1.00  0.00     0.003 A 
HETATM   13  C   UNL     1      43.615 -17.935   0.925  1.00  0.00     0.001 A 
BRANCH   6  14
HETATM   14  C   UNL     1      44.648 -18.953   5.419  1.00  0.00     0.210 C 
BRANCH  14  15
HETATM   15  O   UNL     1      43.894 -19.906   6.163  1.00  0.00    -0.387 OA
BRANCH  15  16
HETATM   16  C   UNL     1      44.297 -21.244   5.897  1.00  0.00     0.163 C 
HETATM   17  C   UNL     1      45.120 -21.255   4.624  1.00  0.00     0.033 C 
ENDBRANCH  15  16
ENDBRANCH  14  15
ENDBRANCH   6  14
ENDBRANCH   3   5
ENDBRANCH   2   3
ENDBRANCH   1   2
BRANCH   1  18
HETATM   18  C   UNL     1      44.921 -13.887   7.029  1.00  0.00     0.242 C 
HETATM   19  N   UNL     1      44.439 -13.435   8.241  1.00  0.00    -0.350 N 
HETATM   20  H   UNL     1      43.530 -13.731   8.573  1.00  0.00     0.163 HD
HETATM   21  O   UNL     1      45.947 -13.454   6.516  1.00  0.00    -0.271 OA
BRANCH  19  22
HETATM   22  C   UNL     1      45.185 -12.471   9.034  1.00  0.00     0.225 C 
BRANCH  22  23
HETATM   23  C   UNL     1      44.356 -11.419   9.784  1.00  0.00     0.239 C 
HETATM   24  N   UNL     1      43.352 -11.957  10.573  1.00  0.00    -0.325 N 
HETATM   25  H   UNL     1      42.965 -12.821  10.199  1.00  0.00     0.169 HD
HETATM   26  O   UNL     1      44.675 -10.235   9.717  1.00  0.00    -0.271 OA
BRANCH  24  27
HETATM   27  C   UNL     1      42.531 -11.264  11.497  1.00  0.00     0.041 C 
HETATM   28  C   UNL     1      41.261 -10.702  11.233  1.00  0.00    -0.029 C 
HETATM   29  C   UNL     1      40.699 -10.566   9.840  1.00  0.00     0.051 C 
HETATM   30  C   UNL     1      40.496 -10.187  12.315  1.00  0.00    -0.054 C 
HETATM   31  C   UNL     1      39.088  -9.682  12.127  1.00  0.00     0.049 C 
HETATM   32  C   UNL     1      41.066 -10.092  13.592  1.00  0.00     0.007 C 
HETATM   33  C   UNL     1      42.364 -10.524  13.815  1.00  0.00     0.003 C 
HETATM   34  C   UNL     1      43.084 -11.115  12.780  1.00  0.00     0.030 C 
ENDBRANCH  24  27
ENDBRANCH  22  23
ENDBRANCH  19  22
ENDBRANCH   1  18
TORSDOF 10
ENDMDL
MODEL 6
REMARK VINA RESULT:      -8.6      2.709     10.884
REMARK  10 active torsions:
REMARK  status: ('A' for Active; 'I' for Inactive)
REMARK    1  A    between atoms: C_2  and  O_3 
REMARK    2  A    between atoms: O_3  and  C_4 
REMARK    3  A    between atoms: C_4  and  C_5 
REMARK    4  A    between atoms: C_6  and  C_7 
REMARK    5  A    between atoms: C_7  and  O_8 
REMARK    6  A    between atoms: O_8  and  C_9 
REMARK    7  A    between atoms: C_9  and  C_10 
REMARK       I    between atoms: C_10  and  N_11 
REMARK    8  A    between atoms: N_11  and  C_12 
REMARK    9  A    between atoms: C_12  and  C_13 
REMARK       I    between atoms: C_13  and  N_14 
REMARK   10  A    between atoms: N_14  and  C_15 
ROOT
HETATM    1  C   UNL     1      39.780 -11.318   7.514  1.00  0.00     0.281 C 
ENDROOT
BRANCH   1   2
HETATM    2  O   UNL     1      41.086 -11.388   8.070  1.00  0.00    -0.307 OA
BRANCH   2   3
HETATM    3  C   UNL     1      41.737 -10.190   8.132  1.00  0.00     0.318 C 
HETATM    4  O   UNL     1      41.993  -9.499   7.148  1.00  0.00    -0.257 OA
BRANCH   3   5
HETATM    5  C   UNL     1      42.140  -9.915   9.494  1.00  0.00     0.160 A 
HETATM    6  C   UNL     1      43.075 -10.534  10.315  1.00  0.00     0.018 A 
HETATM    7  C   UNL     1      42.994  -9.876  11.581  1.00  0.00     0.009 A 
HETATM    8  C   UNL     1      42.033  -8.885  11.437  1.00  0.00     0.087 A 
HETATM    9  C   UNL     1      43.633 -10.004  12.830  1.00  0.00     0.015 A 
HETATM   10  O   UNL     1      41.517  -8.905  10.182  1.00  0.00    -0.303 OA
HETATM   11  C   UNL     1      41.656  -8.002  12.446  1.00  0.00     0.038 A 
HETATM   12  C   UNL     1      42.300  -8.149  13.678  1.00  0.00     0.003 A 
HETATM   13  C   UNL     1      43.271  -9.134  13.870  1.00  0.00     0.001 A 
BRANCH   6  14
HETATM   14  C   UNL     1      43.997 -11.634   9.930  1.00  0.00     0.210 C 
BRANCH  14  15
HETATM   15  O   UNL     1      44.979 -11.148   9.019  1.00  0.00    -0.387 OA
BRANCH  15  16
HETATM   16  C   UNL     1      45.815 -12.184   8.516  1.00  0.00     0.163 C 
HETATM   17  C   UNL     1      44.934 -13.289   7.969  1.00  0.00     0.033 C 
ENDBRANCH  15  16
ENDBRANCH  14  15
ENDBRANCH   6  14
ENDBRANCH   3   5
ENDBRANCH   2   3
ENDBRANCH   1   2
BRANCH   1  18
HETATM   18  C   UNL     1      39.496 -12.333   6.401  1.00  0.00     0.242 C 
HETATM   19  N   UNL     1      40.213 -13.508   6.502  1.00  0.00    -0.350 N 
HETATM   20  H   UNL     1      40.948 -13.601   7.192  1.00  0.00     0.163 HD
HETATM   21  O   UNL     1      38.696 -12.116   5.498  1.00  0.00    -0.271 OA
BRANCH  19  22
HETATM   22  C   UNL     1      39.984 -14.609   5.581  1.00  0.00     0.225 C 
BRANCH  22  23
HETATM   23  C   UNL     1      41.235 -15.272   4.987  1.00  0.00     0.239 C 
HETATM   24  N   UNL     1      40.957 -16.307   4.109  1.00  0.00    -0.325 N 
HETATM   25  H   UNL     1      40.105 -16.812   4.339  1.00  0.00     0.169 HD
HETATM   26  O   UNL     1      42.345 -14.809   5.241  1.00  0.00    -0.271 OA
BRANCH  24  27
HETATM   27  C   UNL     1      41.881 -17.000   3.288  1.00  0.00     0.041 C 
HETATM   28  C   UNL     1      42.677 -18.104   3.669  1.00  0.00    -0.029 C 
HETATM   29  C   UNL     1      42.815 -18.558   5.101  1.00  0.00     0.051 C 
HETATM   30  C   UNL     1      43.428 -18.789   2.676  1.00  0.00    -0.054 C 
HETATM   31  C   UNL     1      44.204 -20.044   2.986  1.00  0.00     0.049 C 
HETATM   32  C   UNL     1      43.504 -18.272   1.376  1.00  0.00     0.007 C 
HETATM   33  C   UNL     1      42.825 -17.110   1.042  1.00  0.00     0.003 C 
HETATM   34  C   UNL     1      42.012 -16.488   1.987  1.00  0.00     0.030 C 
ENDBRANCH  24  27
ENDBRANCH  22  23
ENDBRANCH  19  22
ENDBRANCH   1  18
TORSDOF 10
ENDMDL
MODEL 7
REMARK VINA RESULT:      -8.6      1.422      2.989
REMARK  10 active torsions:
REMARK  status: ('A' for Active; 'I' for Inactive)
REMARK    1  A    between atoms: C_2  and  O_3 
REMARK    2  A    between atoms: O_3  and  C_4 
REMARK    3  A    between atoms: C_4  and  C_5 
REMARK    4  A    between atoms: C_6  and  C_7 
REMARK    5  A    between atoms: C_7  and  O_8 
REMARK    6  A    between atoms: O_8  and  C_9 
REMARK    7  A    between atoms: C_9  and  C_10 
REMARK       I    between atoms: C_10  and  N_11 
REMARK    8  A    between atoms: N_11  and  C_12 
REMARK    9  A    between atoms: C_12  and  C_13 
REMARK       I    between atoms: C_13  and  N_14 
REMARK   10  A    between atoms: N_14  and  C_15 
ROOT
HETATM    1  C   UNL     1      44.302 -15.303   6.747  1.00  0.00     0.281 C 
ENDROOT
BRANCH   1   2
HETATM    2  O   UNL     1      43.988 -15.413   5.366  1.00  0.00    -0.307 OA
BRANCH   2   3
HETATM    3  C   UNL     1      42.860 -16.134   5.101  1.00  0.00     0.318 C 
HETATM    4  O   UNL     1      41.723 -15.744   5.357  1.00  0.00    -0.257 OA
BRANCH   3   5
HETATM    5  C   UNL     1      43.216 -17.429   4.562  1.00  0.00     0.160 A 
HETATM    6  C   UNL     1      43.998 -18.453   5.081  1.00  0.00     0.018 A 
HETATM    7  C   UNL     1      44.053 -19.465   4.074  1.00  0.00     0.009 A 
HETATM    8  C   UNL     1      43.280 -18.998   3.020  1.00  0.00     0.087 A 
HETATM    9  C   UNL     1      44.665 -20.728   3.941  1.00  0.00     0.015 A 
HETATM   10  O   UNL     1      42.774 -17.773   3.310  1.00  0.00    -0.303 OA
HETATM   11  C   UNL     1      43.064 -19.696   1.833  1.00  0.00     0.038 A 
HETATM   12  C   UNL     1      43.683 -20.945   1.721  1.00  0.00     0.003 A 
HETATM   13  C   UNL     1      44.472 -21.453   2.755  1.00  0.00     0.001 A 
BRANCH   6  14
HETATM   14  C   UNL     1      44.617 -18.494   6.432  1.00  0.00     0.210 C 
BRANCH  14  15
HETATM   15  O   UNL     1      43.631 -18.824   7.407  1.00  0.00    -0.387 OA
BRANCH  15  16
HETATM   16  C   UNL     1      43.980 -19.978   8.163  1.00  0.00     0.163 C 
HETATM   17  C   UNL     1      43.503 -21.206   7.414  1.00  0.00     0.033 C 
ENDBRANCH  15  16
ENDBRANCH  14  15
ENDBRANCH   6  14
ENDBRANCH   3   5
ENDBRANCH   2   3
ENDBRANCH   1   2
BRANCH   1  18
HETATM   18  C   UNL     1      44.790 -13.919   7.192  1.00  0.00     0.242 C 
HETATM   19  N   UNL     1      44.096 -13.385   8.259  1.00  0.00    -0.350 N 
HETATM   20  H   UNL     1      43.262 -13.840   8.607  1.00  0.00     0.163 HD
HETATM   21  O   UNL     1      45.719 -13.339   6.643  1.00  0.00    -0.271 OA
BRANCH  19  22
HETATM   22  C   UNL     1      44.500 -12.124   8.861  1.00  0.00     0.225 C 
BRANCH  22  23
HETATM   23  C   UNL     1      43.368 -11.206   9.342  1.00  0.00     0.239 C 
HETATM   24  N   UNL     1      42.839 -11.566  10.571  1.00  0.00    -0.325 N 
HETATM   25  H   UNL     1      42.865 -12.568  10.743  1.00  0.00     0.169 HD
HETATM   26  O   UNL     1      43.078 -10.207   8.688  1.00  0.00    -0.271 OA
BRANCH  24  27
HETATM   27  C   UNL     1      41.904 -10.833  11.345  1.00  0.00     0.041 C 
HETATM   28  C   UNL     1      42.205  -9.942  12.399  1.00  0.00    -0.029 C 
HETATM   29  C   UNL     1      43.582  -9.823  13.004  1.00  0.00     0.051 C 
HETATM   30  C   UNL     1      41.160  -9.160  12.961  1.00  0.00    -0.054 C 
HETATM   31  C   UNL     1      41.425  -8.104  14.005  1.00  0.00     0.049 C 
HETATM   32  C   UNL     1      39.830  -9.394  12.584  1.00  0.00     0.007 C 
HETATM   33  C   UNL     1      39.529 -10.366  11.642  1.00  0.00     0.003 C 
HETATM   34  C   UNL     1      40.558 -11.069  11.021  1.00  0.00     0.030 C 
ENDBRANCH  24  27
ENDBRANCH  22  23
ENDBRANCH  19  22
ENDBRANCH   1  18
TORSDOF 10
ENDMDL
MODEL 8
REMARK VINA RESULT:      -8.6      1.275      1.509
REMARK  10 active torsions:
REMARK  status: ('A' for Active; 'I' for Inactive)
REMARK    1  A    between atoms: C_2  and  O_3 
REMARK    2  A    between atoms: O_3  and  C_4 
REMARK    3  A    between atoms: C_4  and  C_5 
REMARK    4  A    between atoms: C_6  and  C_7 
REMARK    5  A    between atoms: C_7  and  O_8 
REMARK    6  A    between atoms: O_8  and  C_9 
REMARK    7  A    between atoms: C_9  and  C_10 
REMARK       I    between atoms: C_10  and  N_11 
REMARK    8  A    between atoms: N_11  and  C_12 
REMARK    9  A    between atoms: C_12  and  C_13 
REMARK       I    between atoms: C_13  and  N_14 
REMARK   10  A    between atoms: N_14  and  C_15 
ROOT
HETATM    1  C   UNL     1      43.563 -14.713   5.499  1.00  0.00     0.281 C 
ENDROOT
BRANCH   1   2
HETATM    2  O   UNL     1      42.148 -14.804   5.402  1.00  0.00    -0.307 OA
BRANCH   2   3
HETATM    3  C   UNL     1      41.641 -16.033   5.711  1.00  0.00     0.318 C 
HETATM    4  O   UNL     1      40.873 -16.240   6.649  1.00  0.00    -0.257 OA
BRANCH   3   5
HETATM    5  C   UNL     1      42.204 -17.036   4.834  1.00  0.00     0.160 A 
HETATM    6  C   UNL     1      41.879 -17.401   3.533  1.00  0.00     0.018 A 
HETATM    7  C   UNL     1      42.730 -18.501   3.201  1.00  0.00     0.009 A 
HETATM    8  C   UNL     1      43.532 -18.713   4.314  1.00  0.00     0.087 A 
HETATM    9  C   UNL     1      42.915 -19.334   2.080  1.00  0.00     0.015 A 
HETATM   10  O   UNL     1      43.219 -17.833   5.298  1.00  0.00    -0.303 OA
HETATM   11  C   UNL     1      44.515 -19.697   4.399  1.00  0.00     0.038 A 
HETATM   12  C   UNL     1      44.679 -20.515   3.277  1.00  0.00     0.003 A 
HETATM   13  C   UNL     1      43.892 -20.339   2.136  1.00  0.00     0.001 A 
BRANCH   6  14
HETATM   14  C   UNL     1      40.872 -16.747   2.657  1.00  0.00     0.210 C 
BRANCH  14  15
HETATM   15  O   UNL     1      41.467 -15.649   1.971  1.00  0.00    -0.387 OA
BRANCH  15  16
HETATM   16  C   UNL     1      41.886 -15.993   0.655  1.00  0.00     0.163 C 
HETATM   17  C   UNL     1      41.077 -15.179  -0.335  1.00  0.00     0.033 C 
ENDBRANCH  15  16
ENDBRANCH  14  15
ENDBRANCH   6  14
ENDBRANCH   3   5
ENDBRANCH   2   3
ENDBRANCH   1   2
BRANCH   1  18
HETATM   18  C   UNL     1      44.109 -14.624   6.929  1.00  0.00     0.242 C 
HETATM   19  N   UNL     1      44.296 -13.337   7.390  1.00  0.00    -0.350 N 
HETATM   20  H   UNL     1      44.192 -12.548   6.764  1.00  0.00     0.163 HD
HETATM   21  O   UNL     1      44.358 -15.617   7.603  1.00  0.00    -0.271 OA
BRANCH  19  22
HETATM   22  C   UNL     1      44.714 -13.083   8.760  1.00  0.00     0.225 C 
BRANCH  22  23
HETATM   23  C   UNL     1      44.175 -11.801   9.410  1.00  0.00     0.239 C 
HETATM   24  N   UNL     1      43.256 -12.031  10.421  1.00  0.00    -0.325 N 
HETATM   25  H   UNL     1      42.698 -12.869  10.276  1.00  0.00     0.169 HD
HETATM   26  O   UNL     1      44.636 -10.712   9.077  1.00  0.00    -0.271 OA
BRANCH  24  27
HETATM   27  C   UNL     1      42.706 -11.071  11.307  1.00  0.00     0.041 C 
HETATM   28  C   UNL     1      41.369 -10.614  11.322  1.00  0.00    -0.029 C 
HETATM   29  C   UNL     1      40.384 -10.928  10.224  1.00  0.00     0.051 C 
HETATM   30  C   UNL     1      40.939  -9.773  12.385  1.00  0.00    -0.054 C 
HETATM   31  C   UNL     1      39.501  -9.344  12.531  1.00  0.00     0.049 C 
HETATM   32  C   UNL     1      41.872  -9.277  13.305  1.00  0.00     0.007 C 
HETATM   33  C   UNL     1      43.210  -9.625  13.205  1.00  0.00     0.003 C 
HETATM   34  C   UNL     1      43.620 -10.523  12.223  1.00  0.00     0.030 C 
ENDBRANCH  24  27
ENDBRANCH  22  23
ENDBRANCH  19  22
ENDBRANCH   1  18
TORSDOF 10
ENDMDL
MODEL 9
REMARK VINA RESULT:      -8.6      4.019      6.801
REMARK  10 active torsions:
REMARK  status: ('A' for Active; 'I' for Inactive)
REMARK    1  A    between atoms: C_2  and  O_3 
REMARK    2  A    between atoms: O_3  and  C_4 
REMARK    3  A    between atoms: C_4  and  C_5 
REMARK    4  A    between atoms: C_6  and  C_7 
REMARK    5  A    between atoms: C_7  and  O_8 
REMARK    6  A    between atoms: O_8  and  C_9 
REMARK    7  A    between atoms: C_9  and  C_10 
REMARK       I    between atoms: C_10  and  N_11 
REMARK    8  A    between atoms: N_11  and  C_12 
REMARK    9  A    between atoms: C_12  and  C_13 
REMARK       I    between atoms: C_13  and  N_14 
REMARK   10  A    between atoms: N_14  and  C_15 
ROOT
HETATM    1  C   UNL     1      44.130 -14.806   6.794  1.00  0.00     0.281 C 
ENDROOT
BRANCH   1   2
HETATM    2  O   UNL     1      44.435 -16.130   6.379  1.00  0.00    -0.307 OA
BRANCH   2   3
HETATM    3  C   UNL     1      43.358 -16.966   6.323  1.00  0.00     0.318 C 
HETATM    4  O   UNL     1      42.437 -16.949   7.137  1.00  0.00    -0.257 OA
BRANCH   3   5
HETATM    5  C   UNL     1      43.515 -17.903   5.232  1.00  0.00     0.160 A 
HETATM    6  C   UNL     1      43.039 -17.875   3.926  1.00  0.00     0.018 A 
HETATM    7  C   UNL     1      43.452 -19.104   3.324  1.00  0.00     0.009 A 
HETATM    8  C   UNL     1      44.172 -19.784   4.297  1.00  0.00     0.087 A 
HETATM    9  C   UNL     1      43.302 -19.712   2.062  1.00  0.00     0.015 A 
HETATM   10  O   UNL     1      44.212 -19.064   5.446  1.00  0.00    -0.303 OA
HETATM   11  C   UNL     1      44.762 -21.032   4.110  1.00  0.00     0.038 A 
HETATM   12  C   UNL     1      44.598 -21.619   2.851  1.00  0.00     0.003 A 
HETATM   13  C   UNL     1      43.879 -20.972   1.843  1.00  0.00     0.001 A 
BRANCH   6  14
HETATM   14  C   UNL     1      42.286 -16.767   3.284  1.00  0.00     0.210 C 
BRANCH  14  15
HETATM   15  O   UNL     1      40.889 -17.047   3.315  1.00  0.00    -0.387 OA
BRANCH  15  16
HETATM   16  C   UNL     1      40.251 -16.766   2.074  1.00  0.00     0.163 C 
HETATM   17  C   UNL     1      41.266 -16.936   0.962  1.00  0.00     0.033 C 
ENDBRANCH  15  16
ENDBRANCH  14  15
ENDBRANCH   6  14
ENDBRANCH   3   5
ENDBRANCH   2   3
ENDBRANCH   1   2
BRANCH   1  18
HETATM   18  C   UNL     1      43.487 -13.922   5.719  1.00  0.00     0.242 C 
HETATM   19  N   UNL     1      42.235 -13.442   6.048  1.00  0.00    -0.350 N 
HETATM   20  H   UNL     1      41.763 -13.771   6.880  1.00  0.00     0.163 HD
HETATM   21  O   UNL     1      44.041 -13.666   4.656  1.00  0.00    -0.271 OA
BRANCH  19  22
HETATM   22  C   UNL     1      41.536 -12.510   5.177  1.00  0.00     0.225 C 
BRANCH  22  23
HETATM   23  C   UNL     1      40.543 -13.125   4.181  1.00  0.00     0.239 C 
HETATM   24  N   UNL     1      40.490 -12.464   2.964  1.00  0.00    -0.325 N 
HETATM   25  H   UNL     1      40.671 -11.466   3.039  1.00  0.00     0.169 HD
HETATM   26  O   UNL     1      39.955 -14.164   4.472  1.00  0.00    -0.271 OA
BRANCH  24  27
HETATM   27  C   UNL     1      39.798 -12.878   1.798  1.00  0.00     0.041 C 
HETATM   28  C   UNL     1      40.382 -13.344   0.599  1.00  0.00    -0.029 C 
HETATM   29  C   UNL     1      41.860 -13.246   0.315  1.00  0.00     0.051 C 
HETATM   30  C   UNL     1      39.541 -13.879  -0.416  1.00  0.00    -0.054 C 
HETATM   31  C   UNL     1      40.100 -14.502  -1.670  1.00  0.00     0.049 C 
HETATM   32  C   UNL     1      38.148 -13.789  -0.289  1.00  0.00     0.007 C 
HETATM   33  C   UNL     1      37.582 -13.208   0.835  1.00  0.00     0.003 C 
HETATM   34  C   UNL     1      38.400 -12.768   1.873  1.00  0.00     0.030 C 
ENDBRANCH  24  27
ENDBRANCH  22  23
ENDBRANCH  19  22
ENDBRANCH   1  18
TORSDOF 10
ENDMDL
MODEL 10
REMARK VINA RESULT:      -8.5      2.082      2.998
REMARK  10 active torsions:
REMARK  status: ('A' for Active; 'I' for Inactive)
REMARK    1  A    between atoms: C_2  and  O_3 
REMARK    2  A    between atoms: O_3  and  C_4 
REMARK    3  A    between atoms: C_4  and  C_5 
REMARK    4  A    between atoms: C_6  and  C_7 
REMARK    5  A    between atoms: C_7  and  O_8 
REMARK    6  A    between atoms: O_8  and  C_9 
REMARK    7  A    between atoms: C_9  and  C_10 
REMARK       I    between atoms: C_10  and  N_11 
REMARK    8  A    between atoms: N_11  and  C_12 
REMARK    9  A    between atoms: C_12  and  C_13 
REMARK       I    between atoms: C_13  and  N_14 
REMARK   10  A    between atoms: N_14  and  C_15 
ROOT
HETATM    1  C   UNL     1      40.846 -15.459   5.687  1.00  0.00     0.281 C 
ENDROOT
BRANCH   1   2
HETATM    2  O   UNL     1      42.111 -15.724   6.276  1.00  0.00    -0.307 OA
BRANCH   2   3
HETATM    3  C   UNL     1      43.174 -15.513   5.447  1.00  0.00     0.318 C 
HETATM    4  O   UNL     1      43.763 -14.438   5.349  1.00  0.00    -0.257 OA
BRANCH   3   5
HETATM    5  C   UNL     1      43.434 -16.702   4.663  1.00  0.00     0.160 A 
HETATM    6  C   UNL     1      43.192 -16.986   3.325  1.00  0.00     0.018 A 
HETATM    7  C   UNL     1      43.595 -18.343   3.125  1.00  0.00     0.009 A 
HETATM    8  C   UNL     1      44.077 -18.783   4.350  1.00  0.00     0.087 A 
HETATM    9  C   UNL     1      43.611 -19.244   2.043  1.00  0.00     0.015 A 
HETATM   10  O   UNL     1      43.982 -17.798   5.278  1.00  0.00    -0.303 OA
HETATM   11  C   UNL     1      44.581 -20.061   4.584  1.00  0.00     0.038 A 
HETATM   12  C   UNL     1      44.585 -20.940   3.497  1.00  0.00     0.003 A 
HETATM   13  C   UNL     1      44.107 -20.541   2.247  1.00  0.00     0.001 A 
BRANCH   6  14
HETATM   14  C   UNL     1      42.658 -16.047   2.304  1.00  0.00     0.210 C 
BRANCH  14  15
HETATM   15  O   UNL     1      41.241 -15.958   2.421  1.00  0.00    -0.387 OA
BRANCH  15  16
HETATM   16  C   UNL     1      40.583 -16.088   1.167  1.00  0.00     0.163 C 
HETATM   17  C   UNL     1      41.626 -16.372   0.104  1.00  0.00     0.033 C 
ENDBRANCH  15  16
ENDBRANCH  14  15
ENDBRANCH   6  14
ENDBRANCH   3   5
ENDBRANCH   2   3
ENDBRANCH   1   2
BRANCH   1  18
HETATM   18  C   UNL     1      40.525 -13.974   5.484  1.00  0.00     0.242 C 
HETATM   19  N   UNL     1      41.142 -13.128   6.383  1.00  0.00    -0.350 N 
HETATM   20  H   UNL     1      41.652 -13.503   7.173  1.00  0.00     0.163 HD
HETATM   21  O   UNL     1      39.781 -13.575   4.595  1.00  0.00    -0.271 OA
BRANCH  19  22
HETATM   22  C   UNL     1      41.017 -11.684   6.263  1.00  0.00     0.225 C 
BRANCH  22  23
HETATM   23  C   UNL     1      41.784 -10.846   7.296  1.00  0.00     0.239 C 
HETATM   24  N   UNL     1      42.307 -11.589   8.342  1.00  0.00    -0.325 N 
HETATM   25  H   UNL     1      41.744 -12.402   8.580  1.00  0.00     0.169 HD
HETATM   26  O   UNL     1      41.958  -9.646   7.095  1.00  0.00    -0.271 OA
BRANCH  24  27
HETATM   27  C   UNL     1      43.187 -11.133   9.355  1.00  0.00     0.041 C 
HETATM   28  C   UNL     1      42.824 -10.442  10.533  1.00  0.00    -0.029 C 
HETATM   29  C   UNL     1      41.439  -9.888  10.763  1.00  0.00     0.051 C 
HETATM   30  C   UNL     1      43.812 -10.205  11.526  1.00  0.00    -0.054 C 
HETATM   31  C   UNL     1      43.472  -9.582  12.857  1.00  0.00     0.049 C 
HETATM   32  C   UNL     1      45.155 -10.505  11.263  1.00  0.00     0.007 C 
HETATM   33  C   UNL     1      45.524 -11.062  10.048  1.00  0.00     0.003 C 
HETATM   34  C   UNL     1      44.547 -11.383   9.109  1.00  0.00     0.030 C 
ENDBRANCH  24  27
ENDBRANCH  22  23
ENDBRANCH  19  22
ENDBRANCH   1  18
TORSDOF 10
ENDMDL
