MODEL 1
REMARK VINA RESULT:      -8.4      0.000      0.000
REMARK  8 active torsions:
REMARK  status: ('A' for Active; 'I' for Inactive)
REMARK    1  A    between atoms: C_2  and  C_3 
REMARK    2  A    between atoms: C_3  and  O_4 
REMARK    3  A    between atoms: O_4  and  C_5 
REMARK    4  A    between atoms: C_7  and  C_8 
REMARK    5  A    between atoms: N_9  and  C_10 
REMARK    6  A    between atoms: C_10  and  C_11 
REMARK    7  A    between atoms: C_24  and  C_25 
REMARK    8  A    between atoms: C_26  and  O_27 
ROOT
HETATM    1  C   UNL     1      41.895 -14.042   3.342  1.00  0.00     0.159 C 
HETATM    2  N   UNL     1      40.792 -13.066   3.545  1.00  0.00    -0.329 N 
HETATM    3  C   UNL     1      39.594 -13.468   2.935  1.00  0.00     0.273 C 
HETATM    4  O   UNL     1      38.585 -12.824   2.720  1.00  0.00    -0.266 OA
HETATM    5  C   UNL     1      39.845 -14.814   2.576  1.00  0.00     0.129 A 
HETATM    6  C   UNL     1      41.133 -15.195   2.808  1.00  0.00     0.034 A 
HETATM    7  N   UNL     1      39.176 -15.866   2.090  1.00  0.00    -0.272 N 
HETATM    8  H   UNL     1      38.201 -15.935   1.811  1.00  0.00     0.189 HD
HETATM    9  N   UNL     1      39.967 -16.970   2.032  1.00  0.00    -0.173 NA
HETATM   10  C   UNL     1      41.190 -16.556   2.461  1.00  0.00     0.101 A 
ENDROOT
BRANCH   1  11
HETATM   11  C   UNL     1      42.622 -14.450   4.594  1.00  0.00    -0.028 A 
HETATM   12  C   UNL     1      42.180 -15.487   5.433  1.00  0.00     0.046 A 
HETATM   13  C   UNL     1      42.903 -15.862   6.570  1.00  0.00     0.069 A 
HETATM   14  C   UNL     1      44.080 -15.183   6.888  1.00  0.00     0.037 A 
HETATM   15  C   UNL     1      44.523 -14.136   6.082  1.00  0.00     0.003 A 
HETATM   16  C   UNL     1      43.799 -13.768   4.950  1.00  0.00     0.010 A 
BRANCH  13  17
HETATM   17  O   UNL     1      42.354 -16.890   7.286  1.00  0.00    -0.348 OA
BRANCH  17  18
HETATM   18  C   UNL     1      43.222 -17.591   8.176  1.00  0.00     0.202 C 
BRANCH  18  19
HETATM   19  C   UNL     1      43.923 -18.652   7.382  1.00  0.00    -0.011 C 
HETATM   20  C   UNL     1      43.670 -19.964   7.473  1.00  0.00     0.009 C 
ENDBRANCH  18  19
ENDBRANCH  17  18
ENDBRANCH  13  17
ENDBRANCH   1  11
BRANCH   2  21
HETATM   21  C   UNL     1      41.058 -11.684   3.882  1.00  0.00     0.165 C 
BRANCH  21  22
HETATM   22  C   UNL     1      40.428 -11.271   5.188  1.00  0.00    -0.037 A 
HETATM   23  C   UNL     1      40.166 -12.208   6.192  1.00  0.00     0.028 A 
HETATM   24  C   UNL     1      39.563 -11.777   7.364  1.00  0.00     0.116 A 
HETATM   25  N   UNL     1      39.216 -10.495   7.606  1.00  0.00    -0.273 NA
HETATM   26  C   UNL     1      39.467  -9.607   6.621  1.00  0.00     0.116 A 
HETATM   27  C   UNL     1      40.064  -9.941   5.415  1.00  0.00     0.028 A 
ENDBRANCH  21  22
ENDBRANCH   2  21
BRANCH  10  28
HETATM   28  C   UNL     1      42.298 -17.509   2.568  1.00  0.00     0.028 A 
HETATM   29  C   UNL     1      43.182 -17.722   1.495  1.00  0.00     0.078 A 
HETATM   30  C   UNL     1      44.193 -18.678   1.566  1.00  0.00     0.037 A 
HETATM   31  C   UNL     1      44.354 -19.429   2.728  1.00  0.00     0.003 A 
HETATM   32  C   UNL     1      43.513 -19.212   3.817  1.00  0.00     0.001 A 
HETATM   33  C   UNL     1      42.495 -18.254   3.741  1.00  0.00     0.017 A 
BRANCH  29  34
HETATM   34  O   UNL     1      43.106 -17.009   0.326  1.00  0.00    -0.360 OA
HETATM   35  H   UNL     1      42.930 -16.076   0.589  1.00  0.00     0.217 HD
ENDBRANCH  29  34
ENDBRANCH  10  28
TORSDOF 8
ENDMDL
MODEL 2
REMARK VINA RESULT:      -8.4      2.831      5.467
REMARK  8 active torsions:
REMARK  status: ('A' for Active; 'I' for Inactive)
REMARK    1  A    between atoms: C_2  and  C_3 
REMARK    2  A    between atoms: C_3  and  O_4 
REMARK    3  A    between atoms: O_4  and  C_5 
REMARK    4  A    between atoms: C_7  and  C_8 
REMARK    5  A    between atoms: N_9  and  C_10 
REMARK    6  A    between atoms: C_10  and  C_11 
REMARK    7  A    between atoms: C_24  and  C_25 
REMARK    8  A    between atoms: C_26  and  O_27 
ROOT
HETATM    1  C   UNL     1      42.684 -13.849   2.482  1.00  0.00     0.159 C 
HETATM    2  N   UNL     1      42.533 -13.473   3.912  1.00  0.00    -0.329 N 
HETATM    3  C   UNL     1      41.800 -12.288   4.086  1.00  0.00     0.273 C 
HETATM    4  O   UNL     1      41.681 -11.595   5.079  1.00  0.00    -0.266 OA
HETATM    5  C   UNL     1      41.253 -12.050   2.803  1.00  0.00     0.129 A 
HETATM    6  C   UNL     1      41.708 -12.924   1.860  1.00  0.00     0.034 A 
HETATM    7  N   UNL     1      40.377 -11.223   2.221  1.00  0.00    -0.272 N 
HETATM    8  H   UNL     1      39.850 -10.455   2.629  1.00  0.00     0.189 HD
HETATM    9  N   UNL     1      40.188 -11.543   0.915  1.00  0.00    -0.173 NA
HETATM   10  C   UNL     1      41.023 -12.590   0.678  1.00  0.00     0.101 A 
ENDROOT
BRANCH   1  11
HETATM   11  C   UNL     1      42.315 -15.271   2.156  1.00  0.00    -0.028 A 
HETATM   12  C   UNL     1      43.271 -16.274   1.916  1.00  0.00     0.046 A 
HETATM   13  C   UNL     1      42.889 -17.593   1.652  1.00  0.00     0.069 A 
HETATM   14  C   UNL     1      41.534 -17.920   1.609  1.00  0.00     0.037 A 
HETATM   15  C   UNL     1      40.570 -16.935   1.820  1.00  0.00     0.003 A 
HETATM   16  C   UNL     1      40.956 -15.622   2.084  1.00  0.00     0.010 A 
BRANCH  13  17
HETATM   17  O   UNL     1      43.928 -18.460   1.445  1.00  0.00    -0.348 OA
BRANCH  17  18
HETATM   18  C   UNL     1      44.129 -19.471   2.431  1.00  0.00     0.202 C 
BRANCH  18  19
HETATM   19  C   UNL     1      43.604 -20.759   1.872  1.00  0.00    -0.011 C 
HETATM   20  C   UNL     1      44.308 -21.896   1.786  1.00  0.00     0.009 C 
ENDBRANCH  18  19
ENDBRANCH  17  18
ENDBRANCH  13  17
ENDBRANCH   1  11
BRANCH   2  21
HETATM   21  C   UNL     1      43.435 -13.975   4.926  1.00  0.00     0.165 C 
BRANCH  21  22
HETATM   22  C   UNL     1      42.847 -15.118   5.715  1.00  0.00    -0.037 A 
HETATM   23  C   UNL     1      41.487 -15.429   5.631  1.00  0.00     0.028 A 
HETATM   24  C   UNL     1      40.995 -16.475   6.397  1.00  0.00     0.116 A 
HETATM   25  N   UNL     1      41.754 -17.228   7.221  1.00  0.00    -0.273 NA
HETATM   26  C   UNL     1      43.062 -16.906   7.296  1.00  0.00     0.116 A 
HETATM   27  C   UNL     1      43.647 -15.878   6.573  1.00  0.00     0.028 A 
ENDBRANCH  21  22
ENDBRANCH   2  21
BRANCH  10  28
HETATM   28  C   UNL     1      41.054 -13.231  -0.640  1.00  0.00     0.028 A 
HETATM   29  C   UNL     1      40.013 -14.077  -1.063  1.00  0.00     0.078 A 
HETATM   30  C   UNL     1      40.071 -14.745  -2.284  1.00  0.00     0.037 A 
HETATM   31  C   UNL     1      41.168 -14.559  -3.122  1.00  0.00     0.003 A 
HETATM   32  C   UNL     1      42.196 -13.700  -2.740  1.00  0.00     0.001 A 
HETATM   33  C   UNL     1      42.137 -13.035  -1.510  1.00  0.00     0.017 A 
BRANCH  29  34
HETATM   34  O   UNL     1      38.888 -14.293  -0.308  1.00  0.00    -0.360 OA
HETATM   35  H   UNL     1      39.196 -14.734   0.517  1.00  0.00     0.217 HD
ENDBRANCH  29  34
ENDBRANCH  10  28
TORSDOF 8
ENDMDL
MODEL 3
REMARK VINA RESULT:      -8.4      2.996      5.562
REMARK  8 active torsions:
REMARK  status: ('A' for Active; 'I' for Inactive)
REMARK    1  A    between atoms: C_2  and  C_3 
REMARK    2  A    between atoms: C_3  and  O_4 
REMARK    3  A    between atoms: O_4  and  C_5 
REMARK    4  A    between atoms: C_7  and  C_8 
REMARK    5  A    between atoms: N_9  and  C_10 
REMARK    6  A    between atoms: C_10  and  C_11 
REMARK    7  A    between atoms: C_24  and  C_25 
REMARK    8  A    between atoms: C_26  and  O_27 
ROOT
HETATM    1  C   UNL     1      42.770 -13.776   2.740  1.00  0.00     0.159 C 
HETATM    2  N   UNL     1      42.479 -13.417   4.153  1.00  0.00    -0.329 N 
HETATM    3  C   UNL     1      41.846 -12.170   4.274  1.00  0.00     0.273 C 
HETATM    4  O   UNL     1      41.671 -11.490   5.268  1.00  0.00    -0.266 OA
HETATM    5  C   UNL     1      41.486 -11.854   2.944  1.00  0.00     0.129 A 
HETATM    6  C   UNL     1      41.970 -12.748   2.035  1.00  0.00     0.034 A 
HETATM    7  N   UNL     1      40.771 -10.933   2.287  1.00  0.00    -0.272 N 
HETATM    8  H   UNL     1      40.272 -10.126   2.653  1.00  0.00     0.189 HD
HETATM    9  N   UNL     1      40.715 -11.206   0.957  1.00  0.00    -0.173 NA
HETATM   10  C   UNL     1      41.472 -12.325   0.790  1.00  0.00     0.101 A 
ENDROOT
BRANCH   1  11
HETATM   11  C   UNL     1      42.313 -15.148   2.325  1.00  0.00    -0.028 A 
HETATM   12  C   UNL     1      43.203 -16.181   1.984  1.00  0.00     0.046 A 
HETATM   13  C   UNL     1      42.740 -17.456   1.639  1.00  0.00     0.069 A 
HETATM   14  C   UNL     1      41.367 -17.704   1.617  1.00  0.00     0.037 A 
HETATM   15  C   UNL     1      40.467 -16.686   1.929  1.00  0.00     0.003 A 
HETATM   16  C   UNL     1      40.935 -15.419   2.274  1.00  0.00     0.010 A 
BRANCH  13  17
HETATM   17  O   UNL     1      43.721 -18.359   1.336  1.00  0.00    -0.348 OA
BRANCH  17  18
HETATM   18  C   UNL     1      44.022 -19.340   2.329  1.00  0.00     0.202 C 
BRANCH  18  19
HETATM   19  C   UNL     1      43.561 -20.668   1.808  1.00  0.00    -0.011 C 
HETATM   20  C   UNL     1      44.262 -21.806   1.893  1.00  0.00     0.009 C 
ENDBRANCH  18  19
ENDBRANCH  17  18
ENDBRANCH  13  17
ENDBRANCH   1  11
BRANCH   2  21
HETATM   21  C   UNL     1      43.198 -14.026   5.251  1.00  0.00     0.165 C 
BRANCH  21  22
HETATM   22  C   UNL     1      42.656 -15.383   5.622  1.00  0.00    -0.037 A 
HETATM   23  C   UNL     1      43.471 -16.518   5.594  1.00  0.00     0.028 A 
HETATM   24  C   UNL     1      42.915 -17.746   5.922  1.00  0.00     0.116 A 
HETATM   25  N   UNL     1      41.624 -17.917   6.279  1.00  0.00    -0.273 NA
HETATM   26  C   UNL     1      40.850 -16.812   6.289  1.00  0.00     0.116 A 
HETATM   27  C   UNL     1      41.313 -15.542   5.976  1.00  0.00     0.028 A 
ENDBRANCH  21  22
ENDBRANCH   2  21
BRANCH  10  28
HETATM   28  C   UNL     1      41.605 -12.937  -0.535  1.00  0.00     0.028 A 
HETATM   29  C   UNL     1      42.521 -12.439  -1.479  1.00  0.00     0.078 A 
HETATM   30  C   UNL     1      42.600 -12.972  -2.764  1.00  0.00     0.037 A 
HETATM   31  C   UNL     1      41.777 -14.035  -3.124  1.00  0.00     0.003 A 
HETATM   32  C   UNL     1      40.886 -14.568  -2.195  1.00  0.00     0.001 A 
HETATM   33  C   UNL     1      40.804 -14.027  -0.906  1.00  0.00     0.017 A 
BRANCH  29  34
HETATM   34  O   UNL     1      43.383 -11.410  -1.196  1.00  0.00    -0.360 OA
HETATM   35  H   UNL     1      42.892 -10.802  -0.597  1.00  0.00     0.217 HD
ENDBRANCH  29  34
ENDBRANCH  10  28
TORSDOF 8
ENDMDL
MODEL 4
REMARK VINA RESULT:      -8.3      2.612      5.978
REMARK  8 active torsions:
REMARK  status: ('A' for Active; 'I' for Inactive)
REMARK    1  A    between atoms: C_2  and  C_3 
REMARK    2  A    between atoms: C_3  and  O_4 
REMARK    3  A    between atoms: O_4  and  C_5 
REMARK    4  A    between atoms: C_7  and  C_8 
REMARK    5  A    between atoms: N_9  and  C_10 
REMARK    6  A    between atoms: C_10  and  C_11 
REMARK    7  A    between atoms: C_24  and  C_25 
REMARK    8  A    between atoms: C_26  and  O_27 
ROOT
HETATM    1  C   UNL     1      40.873 -16.004   3.269  1.00  0.00     0.159 C 
HETATM    2  N   UNL     1      41.627 -17.280   3.385  1.00  0.00    -0.329 N 
HETATM    3  C   UNL     1      42.061 -17.766   2.142  1.00  0.00     0.273 C 
HETATM    4  O   UNL     1      42.500 -18.864   1.855  1.00  0.00    -0.266 OA
HETATM    5  C   UNL     1      41.828 -16.680   1.265  1.00  0.00     0.129 A 
HETATM    6  C   UNL     1      41.174 -15.644   1.864  1.00  0.00     0.034 A 
HETATM    7  N   UNL     1      42.087 -16.337  -0.002  1.00  0.00    -0.272 N 
HETATM    8  H   UNL     1      42.560 -16.870  -0.728  1.00  0.00     0.189 HD
HETATM    9  N   UNL     1      41.667 -15.073  -0.267  1.00  0.00    -0.173 NA
HETATM   10  C   UNL     1      41.084 -14.641   0.883  1.00  0.00     0.101 A 
ENDROOT
BRANCH   1  11
HETATM   11  C   UNL     1      41.338 -14.905   4.185  1.00  0.00    -0.028 A 
HETATM   12  C   UNL     1      42.685 -14.725   4.544  1.00  0.00     0.046 A 
HETATM   13  C   UNL     1      43.083 -13.669   5.370  1.00  0.00     0.069 A 
HETATM   14  C   UNL     1      42.124 -12.783   5.861  1.00  0.00     0.037 A 
HETATM   15  C   UNL     1      40.779 -12.958   5.537  1.00  0.00     0.003 A 
HETATM   16  C   UNL     1      40.389 -14.012   4.712  1.00  0.00     0.010 A 
BRANCH  13  17
HETATM   17  O   UNL     1      44.426 -13.618   5.628  1.00  0.00    -0.348 OA
BRANCH  17  18
HETATM   18  C   UNL     1      44.875 -14.252   6.825  1.00  0.00     0.202 C 
BRANCH  18  19
HETATM   19  C   UNL     1      45.531 -13.204   7.673  1.00  0.00    -0.011 C 
HETATM   20  C   UNL     1      44.930 -12.547   8.675  1.00  0.00     0.009 C 
ENDBRANCH  18  19
ENDBRANCH  17  18
ENDBRANCH  13  17
ENDBRANCH   1  11
BRANCH   2  21
HETATM   21  C   UNL     1      41.488 -18.138   4.541  1.00  0.00     0.165 C 
BRANCH  21  22
HETATM   22  C   UNL     1      42.704 -18.118   5.432  1.00  0.00    -0.037 A 
HETATM   23  C   UNL     1      43.949 -18.553   4.965  1.00  0.00     0.028 A 
HETATM   24  C   UNL     1      45.029 -18.536   5.835  1.00  0.00     0.116 A 
HETATM   25  N   UNL     1      44.959 -18.113   7.115  1.00  0.00    -0.273 NA
HETATM   26  C   UNL     1      43.748 -17.706   7.550  1.00  0.00     0.116 A 
HETATM   27  C   UNL     1      42.610 -17.688   6.759  1.00  0.00     0.028 A 
ENDBRANCH  21  22
ENDBRANCH   2  21
BRANCH  10  28
HETATM   28  C   UNL     1      40.546 -13.281   0.976  1.00  0.00     0.028 A 
HETATM   29  C   UNL     1      41.311 -12.230   1.514  1.00  0.00     0.078 A 
HETATM   30  C   UNL     1      40.780 -10.951   1.670  1.00  0.00     0.037 A 
HETATM   31  C   UNL     1      39.472 -10.692   1.267  1.00  0.00     0.003 A 
HETATM   32  C   UNL     1      38.707 -11.708   0.700  1.00  0.00     0.001 A 
HETATM   33  C   UNL     1      39.241 -12.993   0.549  1.00  0.00     0.017 A 
BRANCH  29  34
HETATM   34  O   UNL     1      42.613 -12.397   1.912  1.00  0.00    -0.360 OA
HETATM   35  H   UNL     1      42.979 -11.490   2.027  1.00  0.00     0.217 HD
ENDBRANCH  29  34
ENDBRANCH  10  28
TORSDOF 8
ENDMDL
MODEL 5
REMARK VINA RESULT:      -8.2      2.244      5.322
REMARK  8 active torsions:
REMARK  status: ('A' for Active; 'I' for Inactive)
REMARK    1  A    between atoms: C_2  and  C_3 
REMARK    2  A    between atoms: C_3  and  O_4 
REMARK    3  A    between atoms: O_4  and  C_5 
REMARK    4  A    between atoms: C_7  and  C_8 
REMARK    5  A    between atoms: N_9  and  C_10 
REMARK    6  A    between atoms: C_10  and  C_11 
REMARK    7  A    between atoms: C_24  and  C_25 
REMARK    8  A    between atoms: C_26  and  O_27 
ROOT
HETATM    1  C   UNL     1      40.785 -15.995   3.483  1.00  0.00     0.159 C 
HETATM    2  N   UNL     1      40.166 -14.891   2.704  1.00  0.00    -0.329 N 
HETATM    3  C   UNL     1      40.103 -13.689   3.426  1.00  0.00     0.273 C 
HETATM    4  O   UNL     1      39.477 -12.675   3.180  1.00  0.00    -0.266 OA
HETATM    5  C   UNL     1      40.918 -13.941   4.555  1.00  0.00     0.129 A 
HETATM    6  C   UNL     1      41.348 -15.233   4.621  1.00  0.00     0.034 A 
HETATM    7  N   UNL     1      41.434 -13.272   5.592  1.00  0.00    -0.272 N 
HETATM    8  H   UNL     1      41.319 -12.295   5.848  1.00  0.00     0.189 HD
HETATM    9  N   UNL     1      42.245 -14.067   6.338  1.00  0.00    -0.173 NA
HETATM   10  C   UNL     1      42.185 -15.292   5.750  1.00  0.00     0.101 A 
ENDROOT
BRANCH   1  11
HETATM   11  C   UNL     1      41.886 -16.735   2.772  1.00  0.00    -0.028 A 
HETATM   12  C   UNL     1      41.902 -18.134   2.631  1.00  0.00     0.046 A 
HETATM   13  C   UNL     1      42.925 -18.783   1.931  1.00  0.00     0.069 A 
HETATM   14  C   UNL     1      43.960 -18.030   1.376  1.00  0.00     0.037 A 
HETATM   15  C   UNL     1      43.976 -16.644   1.526  1.00  0.00     0.003 A 
HETATM   16  C   UNL     1      42.952 -16.003   2.222  1.00  0.00     0.010 A 
BRANCH  13  17
HETATM   17  O   UNL     1      42.804 -20.144   1.871  1.00  0.00    -0.348 OA
BRANCH  17  18
HETATM   18  C   UNL     1      44.015 -20.898   1.851  1.00  0.00     0.202 C 
BRANCH  18  19
HETATM   19  C   UNL     1      44.365 -21.229   3.271  1.00  0.00    -0.011 C 
HETATM   20  C   UNL     1      45.118 -20.462   4.070  1.00  0.00     0.009 C 
ENDBRANCH  18  19
ENDBRANCH  17  18
ENDBRANCH  13  17
ENDBRANCH   1  11
BRANCH   2  21
HETATM   21  C   UNL     1      39.305 -15.154   1.571  1.00  0.00     0.165 C 
BRANCH  21  22
HETATM   22  C   UNL     1      39.804 -14.517   0.299  1.00  0.00    -0.037 A 
HETATM   23  C   UNL     1      40.872 -15.070  -0.415  1.00  0.00     0.028 A 
HETATM   24  C   UNL     1      41.305 -14.429  -1.566  1.00  0.00     0.116 A 
HETATM   25  N   UNL     1      40.751 -13.298  -2.053  1.00  0.00    -0.273 NA
HETATM   26  C   UNL     1      39.729 -12.774  -1.345  1.00  0.00     0.116 A 
HETATM   27  C   UNL     1      39.226 -13.339  -0.183  1.00  0.00     0.028 A 
ENDBRANCH  21  22
ENDBRANCH   2  21
BRANCH  10  28
HETATM   28  C   UNL     1      42.982 -16.405   6.273  1.00  0.00     0.028 A 
HETATM   29  C   UNL     1      44.312 -16.215   6.691  1.00  0.00     0.078 A 
HETATM   30  C   UNL     1      45.097 -17.282   7.121  1.00  0.00     0.037 A 
HETATM   31  C   UNL     1      44.557 -18.564   7.165  1.00  0.00     0.003 A 
HETATM   32  C   UNL     1      43.231 -18.772   6.789  1.00  0.00     0.001 A 
HETATM   33  C   UNL     1      42.447 -17.699   6.352  1.00  0.00     0.017 A 
BRANCH  29  34
HETATM   34  O   UNL     1      44.911 -14.980   6.701  1.00  0.00    -0.360 OA
HETATM   35  H   UNL     1      44.205 -14.339   6.944  1.00  0.00     0.217 HD
ENDBRANCH  29  34
ENDBRANCH  10  28
TORSDOF 8
ENDMDL
MODEL 6
REMARK VINA RESULT:      -8.2      2.725      5.480
REMARK  8 active torsions:
REMARK  status: ('A' for Active; 'I' for Inactive)
REMARK    1  A    between atoms: C_2  and  C_3 
REMARK    2  A    between atoms: C_3  and  O_4 
REMARK    3  A    between atoms: O_4  and  C_5 
REMARK    4  A    between atoms: C_7  and  C_8 
REMARK    5  A    between atoms: N_9  and  C_10 
REMARK    6  A    between atoms: C_10  and  C_11 
REMARK    7  A    between atoms: C_24  and  C_25 
REMARK    8  A    between atoms: C_26  and  O_27 
ROOT
HETATM    1  C   UNL     1      42.072 -17.438   5.171  1.00  0.00     0.159 C 
HETATM    2  N   UNL     1      42.164 -16.237   6.042  1.00  0.00    -0.329 N 
HETATM    3  C   UNL     1      43.313 -16.240   6.849  1.00  0.00     0.273 C 
HETATM    4  O   UNL     1      43.581 -15.543   7.809  1.00  0.00    -0.266 OA
HETATM    5  C   UNL     1      44.089 -17.293   6.310  1.00  0.00     0.129 A 
HETATM    6  C   UNL     1      43.436 -17.991   5.337  1.00  0.00     0.034 A 
HETATM    7  N   UNL     1      45.315 -17.810   6.447  1.00  0.00    -0.272 N 
HETATM    8  H   UNL     1      46.063 -17.533   7.078  1.00  0.00     0.189 HD
HETATM    9  N   UNL     1      45.531 -18.813   5.556  1.00  0.00    -0.173 NA
HETATM   10  C   UNL     1      44.361 -18.943   4.873  1.00  0.00     0.101 A 
ENDROOT
BRANCH   1  11
HETATM   11  C   UNL     1      41.813 -17.151   3.717  1.00  0.00    -0.028 A 
HETATM   12  C   UNL     1      42.406 -16.077   3.031  1.00  0.00     0.046 A 
HETATM   13  C   UNL     1      42.169 -15.865   1.669  1.00  0.00     0.069 A 
HETATM   14  C   UNL     1      41.316 -16.726   0.979  1.00  0.00     0.037 A 
HETATM   15  C   UNL     1      40.700 -17.784   1.646  1.00  0.00     0.003 A 
HETATM   16  C   UNL     1      40.941 -17.991   3.003  1.00  0.00     0.010 A 
BRANCH  13  17
HETATM   17  O   UNL     1      42.817 -14.784   1.136  1.00  0.00    -0.348 OA
BRANCH  17  18
HETATM   18  C   UNL     1      42.266 -13.499   1.420  1.00  0.00     0.202 C 
BRANCH  18  19
HETATM   19  C   UNL     1      41.392 -13.116   0.264  1.00  0.00    -0.011 C 
HETATM   20  C   UNL     1      40.052 -13.120   0.286  1.00  0.00     0.009 C 
ENDBRANCH  18  19
ENDBRANCH  17  18
ENDBRANCH  13  17
ENDBRANCH   1  11
BRANCH   2  21
HETATM   21  C   UNL     1      40.996 -15.448   6.369  1.00  0.00     0.165 C 
BRANCH  21  22
HETATM   22  C   UNL     1      40.898 -14.184   5.554  1.00  0.00    -0.037 A 
HETATM   23  C   UNL     1      41.879 -13.192   5.640  1.00  0.00     0.028 A 
HETATM   24  C   UNL     1      41.727 -12.038   4.885  1.00  0.00     0.116 A 
HETATM   25  N   UNL     1      40.686 -11.811   4.057  1.00  0.00    -0.273 NA
HETATM   26  C   UNL     1      39.744 -12.776   3.995  1.00  0.00     0.116 A 
HETATM   27  C   UNL     1      39.805 -13.962   4.711  1.00  0.00     0.028 A 
ENDBRANCH  21  22
ENDBRANCH   2  21
BRANCH  10  28
HETATM   28  C   UNL     1      44.242 -19.921   3.788  1.00  0.00     0.028 A 
HETATM   29  C   UNL     1      44.524 -21.282   4.000  1.00  0.00     0.078 A 
HETATM   30  C   UNL     1      44.482 -22.203   2.956  1.00  0.00     0.037 A 
HETATM   31  C   UNL     1      44.131 -21.781   1.676  1.00  0.00     0.003 A 
HETATM   32  C   UNL     1      43.814 -20.444   1.448  1.00  0.00     0.001 A 
HETATM   33  C   UNL     1      43.863 -19.520   2.498  1.00  0.00     0.017 A 
BRANCH  29  34
HETATM   34  O   UNL     1      44.853 -21.782   5.234  1.00  0.00    -0.360 OA
HETATM   35  H   UNL     1      44.569 -21.101   5.887  1.00  0.00     0.217 HD
ENDBRANCH  29  34
ENDBRANCH  10  28
TORSDOF 8
ENDMDL
MODEL 7
REMARK VINA RESULT:      -8.1      1.281      2.532
REMARK  8 active torsions:
REMARK  status: ('A' for Active; 'I' for Inactive)
REMARK    1  A    between atoms: C_2  and  C_3 
REMARK    2  A    between atoms: C_3  and  O_4 
REMARK    3  A    between atoms: O_4  and  C_5 
REMARK    4  A    between atoms: C_7  and  C_8 
REMARK    5  A    between atoms: N_9  and  C_10 
REMARK    6  A    between atoms: C_10  and  C_11 
REMARK    7  A    between atoms: C_24  and  C_25 
REMARK    8  A    between atoms: C_26  and  O_27 
ROOT
HETATM    1  C   UNL     1      41.988 -14.195   3.637  1.00  0.00     0.159 C 
HETATM    2  N   UNL     1      40.902 -13.195   3.806  1.00  0.00    -0.329 N 
HETATM    3  C   UNL     1      39.759 -13.505   3.051  1.00  0.00     0.273 C 
HETATM    4  O   UNL     1      38.797 -12.808   2.790  1.00  0.00    -0.266 OA
HETATM    5  C   UNL     1      40.003 -14.829   2.616  1.00  0.00     0.129 A 
HETATM    6  C   UNL     1      41.249 -15.275   2.943  1.00  0.00     0.034 A 
HETATM    7  N   UNL     1      39.355 -15.816   1.987  1.00  0.00    -0.272 N 
HETATM    8  H   UNL     1      38.410 -15.826   1.609  1.00  0.00     0.189 HD
HETATM    9  N   UNL     1      40.113 -16.941   1.921  1.00  0.00    -0.173 NA
HETATM   10  C   UNL     1      41.299 -16.608   2.499  1.00  0.00     0.101 A 
ENDROOT
BRANCH   1  11
HETATM   11  C   UNL     1      42.573 -14.722   4.919  1.00  0.00    -0.028 A 
HETATM   12  C   UNL     1      43.814 -14.301   5.425  1.00  0.00     0.046 A 
HETATM   13  C   UNL     1      44.308 -14.787   6.641  1.00  0.00     0.069 A 
HETATM   14  C   UNL     1      43.561 -15.722   7.359  1.00  0.00     0.037 A 
HETATM   15  C   UNL     1      42.338 -16.171   6.862  1.00  0.00     0.003 A 
HETATM   16  C   UNL     1      41.851 -15.681   5.652  1.00  0.00     0.010 A 
BRANCH  13  17
HETATM   17  O   UNL     1      45.525 -14.283   7.008  1.00  0.00    -0.348 OA
BRANCH  17  18
HETATM   18  C   UNL     1      45.587 -12.884   7.280  1.00  0.00     0.202 C 
BRANCH  18  19
HETATM   19  C   UNL     1      45.205 -12.685   8.717  1.00  0.00    -0.011 C 
HETATM   20  C   UNL     1      45.505 -11.599   9.442  1.00  0.00     0.009 C 
ENDBRANCH  18  19
ENDBRANCH  17  18
ENDBRANCH  13  17
ENDBRANCH   1  11
BRANCH   2  21
HETATM   21  C   UNL     1      41.174 -11.853   4.273  1.00  0.00     0.165 C 
BRANCH  21  22
HETATM   22  C   UNL     1      40.431 -11.515   5.540  1.00  0.00    -0.037 A 
HETATM   23  C   UNL     1      40.154 -10.187   5.882  1.00  0.00     0.028 A 
HETATM   24  C   UNL     1      39.487  -9.931   7.071  1.00  0.00     0.116 A 
HETATM   25  N   UNL     1      39.076 -10.891   7.927  1.00  0.00    -0.273 NA
HETATM   26  C   UNL     1      39.362 -12.165   7.585  1.00  0.00     0.116 A 
HETATM   27  C   UNL     1      40.024 -12.522   6.420  1.00  0.00     0.028 A 
ENDBRANCH  21  22
ENDBRANCH   2  21
BRANCH  10  28
HETATM   28  C   UNL     1      42.360 -17.609   2.640  1.00  0.00     0.028 A 
HETATM   29  C   UNL     1      43.223 -17.911   1.571  1.00  0.00     0.078 A 
HETATM   30  C   UNL     1      44.187 -18.911   1.677  1.00  0.00     0.037 A 
HETATM   31  C   UNL     1      44.323 -19.617   2.870  1.00  0.00     0.003 A 
HETATM   32  C   UNL     1      43.503 -19.312   3.954  1.00  0.00     0.001 A 
HETATM   33  C   UNL     1      42.532 -18.310   3.843  1.00  0.00     0.017 A 
BRANCH  29  34
HETATM   34  O   UNL     1      43.170 -17.247   0.372  1.00  0.00    -0.360 OA
HETATM   35  H   UNL     1      43.914 -17.601  -0.166  1.00  0.00     0.217 HD
ENDBRANCH  29  34
ENDBRANCH  10  28
TORSDOF 8
ENDMDL
MODEL 8
REMARK VINA RESULT:      -8.1      2.808      8.059
REMARK  8 active torsions:
REMARK  status: ('A' for Active; 'I' for Inactive)
REMARK    1  A    between atoms: C_2  and  C_3 
REMARK    2  A    between atoms: C_3  and  O_4 
REMARK    3  A    between atoms: O_4  and  C_5 
REMARK    4  A    between atoms: C_7  and  C_8 
REMARK    5  A    between atoms: N_9  and  C_10 
REMARK    6  A    between atoms: C_10  and  C_11 
REMARK    7  A    between atoms: C_24  and  C_25 
REMARK    8  A    between atoms: C_26  and  O_27 
ROOT
HETATM    1  C   UNL     1      42.851 -16.444   3.849  1.00  0.00     0.159 C 
HETATM    2  N   UNL     1      43.336 -17.791   4.247  1.00  0.00    -0.329 N 
HETATM    3  C   UNL     1      42.845 -18.195   5.498  1.00  0.00     0.273 C 
HETATM    4  O   UNL     1      43.206 -19.116   6.206  1.00  0.00    -0.266 OA
HETATM    5  C   UNL     1      41.839 -17.241   5.780  1.00  0.00     0.129 A 
HETATM    6  C   UNL     1      41.788 -16.236   4.859  1.00  0.00     0.034 A 
HETATM    7  N   UNL     1      40.875 -17.032   6.684  1.00  0.00    -0.272 N 
HETATM    8  H   UNL     1      40.631 -17.584   7.502  1.00  0.00     0.189 HD
HETATM    9  N   UNL     1      40.137 -15.934   6.374  1.00  0.00    -0.173 NA
HETATM   10  C   UNL     1      40.708 -15.424   5.250  1.00  0.00     0.101 A 
ENDROOT
BRANCH   1  11
HETATM   11  C   UNL     1      42.261 -16.363   2.467  1.00  0.00    -0.028 A 
HETATM   12  C   UNL     1      42.407 -15.239   1.636  1.00  0.00     0.046 A 
HETATM   13  C   UNL     1      41.875 -15.216   0.343  1.00  0.00     0.069 A 
HETATM   14  C   UNL     1      41.171 -16.324  -0.128  1.00  0.00     0.037 A 
HETATM   15  C   UNL     1      40.994 -17.440   0.688  1.00  0.00     0.003 A 
HETATM   16  C   UNL     1      41.528 -17.457   1.976  1.00  0.00     0.010 A 
BRANCH  13  17
HETATM   17  O   UNL     1      42.101 -14.058  -0.350  1.00  0.00    -0.348 OA
BRANCH  17  18
HETATM   18  C   UNL     1      41.372 -13.882  -1.564  1.00  0.00     0.202 C 
BRANCH  18  19
HETATM   19  C   UNL     1      40.217 -12.973  -1.271  1.00  0.00    -0.011 C 
HETATM   20  C   UNL     1      38.961 -13.383  -1.048  1.00  0.00     0.009 C 
ENDBRANCH  18  19
ENDBRANCH  17  18
ENDBRANCH  13  17
ENDBRANCH   1  11
BRANCH   2  21
HETATM   21  C   UNL     1      44.530 -18.367   3.667  1.00  0.00     0.165 C 
BRANCH  21  22
HETATM   22  C   UNL     1      44.336 -19.798   3.234  1.00  0.00    -0.037 A 
HETATM   23  C   UNL     1      44.857 -20.857   3.985  1.00  0.00     0.028 A 
HETATM   24  C   UNL     1      44.669 -22.153   3.529  1.00  0.00     0.116 A 
HETATM   25  N   UNL     1      44.002 -22.464   2.397  1.00  0.00    -0.273 NA
HETATM   26  C   UNL     1      43.516 -21.429   1.680  1.00  0.00     0.116 A 
HETATM   27  C   UNL     1      43.653 -20.100   2.053  1.00  0.00     0.028 A 
ENDBRANCH  21  22
ENDBRANCH   2  21
BRANCH  10  28
HETATM   28  C   UNL     1      40.137 -14.241   4.601  1.00  0.00     0.028 A 
HETATM   29  C   UNL     1      39.983 -13.030   5.300  1.00  0.00     0.078 A 
HETATM   30  C   UNL     1      39.375 -11.924   4.710  1.00  0.00     0.037 A 
HETATM   31  C   UNL     1      38.928 -12.001   3.393  1.00  0.00     0.003 A 
HETATM   32  C   UNL     1      39.101 -13.178   2.670  1.00  0.00     0.001 A 
HETATM   33  C   UNL     1      39.706 -14.290   3.267  1.00  0.00     0.017 A 
BRANCH  29  34
HETATM   34  O   UNL     1      40.417 -12.865   6.590  1.00  0.00    -0.360 OA
HETATM   35  H   UNL     1      41.273 -12.381   6.528  1.00  0.00     0.217 HD
ENDBRANCH  29  34
ENDBRANCH  10  28
TORSDOF 8
ENDMDL
MODEL 9
REMARK VINA RESULT:      -8.1      2.099      2.756
REMARK  8 active torsions:
REMARK  status: ('A' for Active; 'I' for Inactive)
REMARK    1  A    between atoms: C_2  and  C_3 
REMARK    2  A    between atoms: C_3  and  O_4 
REMARK    3  A    between atoms: O_4  and  C_5 
REMARK    4  A    between atoms: C_7  and  C_8 
REMARK    5  A    between atoms: N_9  and  C_10 
REMARK    6  A    between atoms: C_10  and  C_11 
REMARK    7  A    between atoms: C_24  and  C_25 
REMARK    8  A    between atoms: C_26  and  O_27 
ROOT
HETATM    1  C   UNL     1      41.993 -13.500   1.841  1.00  0.00     0.159 C 
HETATM    2  N   UNL     1      41.139 -12.436   1.250  1.00  0.00    -0.329 N 
HETATM    3  C   UNL     1      40.636 -12.784  -0.013  1.00  0.00     0.273 C 
HETATM    4  O   UNL     1      40.102 -12.081  -0.850  1.00  0.00    -0.266 OA
HETATM    5  C   UNL     1      40.936 -14.163  -0.116  1.00  0.00     0.129 A 
HETATM    6  C   UNL     1      41.688 -14.623   0.924  1.00  0.00     0.034 A 
HETATM    7  N   UNL     1      40.676 -15.190  -0.933  1.00  0.00    -0.272 N 
HETATM    8  H   UNL     1      40.143 -15.203  -1.800  1.00  0.00     0.189 HD
HETATM    9  N   UNL     1      41.191 -16.350  -0.448  1.00  0.00    -0.173 NA
HETATM   10  C   UNL     1      41.836 -16.003   0.699  1.00  0.00     0.101 A 
ENDROOT
BRANCH   1  11
HETATM   11  C   UNL     1      41.642 -13.886   3.252  1.00  0.00    -0.028 A 
HETATM   12  C   UNL     1      42.609 -14.177   4.229  1.00  0.00     0.046 A 
HETATM   13  C   UNL     1      42.245 -14.497   5.541  1.00  0.00     0.069 A 
HETATM   14  C   UNL     1      40.893 -14.545   5.885  1.00  0.00     0.037 A 
HETATM   15  C   UNL     1      39.918 -14.284   4.925  1.00  0.00     0.003 A 
HETATM   16  C   UNL     1      40.287 -13.963   3.619  1.00  0.00     0.010 A 
BRANCH  13  17
HETATM   17  O   UNL     1      43.294 -14.750   6.382  1.00  0.00    -0.348 OA
BRANCH  17  18
HETATM   18  C   UNL     1      43.347 -16.048   6.972  1.00  0.00     0.202 C 
BRANCH  18  19
HETATM   19  C   UNL     1      44.435 -16.815   6.281  1.00  0.00    -0.011 C 
HETATM   20  C   UNL     1      44.887 -18.014   6.670  1.00  0.00     0.009 C 
ENDBRANCH  18  19
ENDBRANCH  17  18
ENDBRANCH  13  17
ENDBRANCH   1  11
BRANCH   2  21
HETATM   21  C   UNL     1      41.235 -11.060   1.687  1.00  0.00     0.165 C 
BRANCH  21  22
HETATM   22  C   UNL     1      40.213 -10.709   2.739  1.00  0.00    -0.037 A 
HETATM   23  C   UNL     1      40.601 -10.386   4.043  1.00  0.00     0.028 A 
HETATM   24  C   UNL     1      39.618 -10.095   4.977  1.00  0.00     0.116 A 
HETATM   25  N   UNL     1      38.296 -10.094   4.705  1.00  0.00    -0.273 NA
HETATM   26  C   UNL     1      37.941 -10.419   3.444  1.00  0.00     0.116 A 
HETATM   27  C   UNL     1      38.848 -10.727   2.441  1.00  0.00     0.028 A 
ENDBRANCH  21  22
ENDBRANCH   2  21
BRANCH  10  28
HETATM   28  C   UNL     1      42.486 -17.027   1.521  1.00  0.00     0.028 A 
HETATM   29  C   UNL     1      41.861 -17.541   2.672  1.00  0.00     0.078 A 
HETATM   30  C   UNL     1      42.504 -18.461   3.498  1.00  0.00     0.037 A 
HETATM   31  C   UNL     1      43.784 -18.904   3.173  1.00  0.00     0.003 A 
HETATM   32  C   UNL     1      44.409 -18.435   2.020  1.00  0.00     0.001 A 
HETATM   33  C   UNL     1      43.763 -17.507   1.196  1.00  0.00     0.017 A 
BRANCH  29  34
HETATM   34  O   UNL     1      40.594 -17.174   3.048  1.00  0.00    -0.360 OA
HETATM   35  H   UNL     1      40.415 -16.317   2.596  1.00  0.00     0.217 HD
ENDBRANCH  29  34
ENDBRANCH  10  28
TORSDOF 8
ENDMDL
MODEL 10
REMARK VINA RESULT:      -8.1      2.729      6.662
REMARK  8 active torsions:
REMARK  status: ('A' for Active; 'I' for Inactive)
REMARK    1  A    between atoms: C_2  and  C_3 
REMARK    2  A    between atoms: C_3  and  O_4 
REMARK    3  A    between atoms: O_4  and  C_5 
REMARK    4  A    between atoms: C_7  and  C_8 
REMARK    5  A    between atoms: N_9  and  C_10 
REMARK    6  A    between atoms: C_10  and  C_11 
REMARK    7  A    between atoms: C_24  and  C_25 
REMARK    8  A    between atoms: C_26  and  O_27 
ROOT
HETATM    1  C   UNL     1      43.201 -16.225   4.591  1.00  0.00     0.159 C 
HETATM    2  N   UNL     1      43.220 -17.007   5.855  1.00  0.00    -0.329 N 
HETATM    3  C   UNL     1      42.156 -16.679   6.710  1.00  0.00     0.273 C 
HETATM    4  O   UNL     1      41.997 -16.957   7.884  1.00  0.00    -0.266 OA
HETATM    5  C   UNL     1      41.308 -15.895   5.893  1.00  0.00     0.129 A 
HETATM    6  C   UNL     1      41.848 -15.627   4.669  1.00  0.00     0.034 A 
HETATM    7  N   UNL     1      40.090 -15.343   5.944  1.00  0.00    -0.272 N 
HETATM    8  H   UNL     1      39.413 -15.349   6.703  1.00  0.00     0.189 HD
HETATM    9  N   UNL     1      39.767 -14.748   4.766  1.00  0.00    -0.173 NA
HETATM   10  C   UNL     1      40.862 -14.906   3.974  1.00  0.00     0.101 A 
ENDROOT
BRANCH   1  11
HETATM   11  C   UNL     1      43.323 -17.044   3.335  1.00  0.00    -0.028 A 
HETATM   12  C   UNL     1      42.895 -18.380   3.248  1.00  0.00     0.046 A 
HETATM   13  C   UNL     1      42.991 -19.098   2.051  1.00  0.00     0.069 A 
HETATM   14  C   UNL     1      43.537 -18.483   0.924  1.00  0.00     0.037 A 
HETATM   15  C   UNL     1      43.989 -17.166   0.996  1.00  0.00     0.003 A 
HETATM   16  C   UNL     1      43.889 -16.456   2.191  1.00  0.00     0.010 A 
BRANCH  13  17
HETATM   17  O   UNL     1      42.530 -20.385   2.115  1.00  0.00    -0.348 OA
BRANCH  17  18
HETATM   18  C   UNL     1      43.249 -21.364   1.366  1.00  0.00     0.202 C 
BRANCH  18  19
HETATM   19  C   UNL     1      44.541 -21.623   2.082  1.00  0.00    -0.011 C 
HETATM   20  C   UNL     1      44.876 -22.788   2.653  1.00  0.00     0.009 C 
ENDBRANCH  18  19
ENDBRANCH  17  18
ENDBRANCH  13  17
ENDBRANCH   1  11
BRANCH   2  21
HETATM   21  C   UNL     1      44.431 -17.633   6.340  1.00  0.00     0.165 C 
BRANCH  21  22
HETATM   22  C   UNL     1      44.317 -19.133   6.428  1.00  0.00    -0.037 A 
HETATM   23  C   UNL     1      44.801 -19.956   5.405  1.00  0.00     0.028 A 
HETATM   24  C   UNL     1      44.649 -21.329   5.527  1.00  0.00     0.116 A 
HETATM   25  N   UNL     1      44.064 -21.931   6.584  1.00  0.00    -0.273 NA
HETATM   26  C   UNL     1      43.594 -21.121   7.556  1.00  0.00     0.116 A 
HETATM   27  C   UNL     1      43.697 -19.739   7.525  1.00  0.00     0.028 A 
ENDBRANCH  21  22
ENDBRANCH   2  21
BRANCH  10  28
HETATM   28  C   UNL     1      40.854 -14.413   2.593  1.00  0.00     0.028 A 
HETATM   29  C   UNL     1      39.966 -14.938   1.638  1.00  0.00     0.078 A 
HETATM   30  C   UNL     1      40.003 -14.525   0.308  1.00  0.00     0.037 A 
HETATM   31  C   UNL     1      40.920 -13.555  -0.089  1.00  0.00     0.003 A 
HETATM   32  C   UNL     1      41.787 -12.995   0.847  1.00  0.00     0.001 A 
HETATM   33  C   UNL     1      41.751 -13.416   2.181  1.00  0.00     0.017 A 
BRANCH  29  34
HETATM   34  O   UNL     1      39.018 -15.879   1.952  1.00  0.00    -0.360 OA
HETATM   35  H   UNL     1      38.181 -15.381   2.097  1.00  0.00     0.217 HD
ENDBRANCH  29  34
ENDBRANCH  10  28
TORSDOF 8
ENDMDL
