MODEL 1
REMARK VINA RESULT:      -8.0      0.000      0.000
REMARK  2 active torsions:
REMARK  status: ('A' for Active; 'I' for Inactive)
REMARK    1  A    between atoms: C_8  and  S_9 
REMARK    2  A    between atoms: S_9  and  C_10 
ROOT
HETATM    1  C   UNL     1      -6.170  -4.628 -34.955  1.00  0.00     0.002 A 
HETATM    2  C   UNL     1      -6.808  -3.399 -34.782  1.00  0.00     0.034 A 
HETATM    3  C   UNL     1      -6.129  -2.300 -34.269  1.00  0.00     0.087 A 
HETATM    4  C   UNL     1      -4.763  -2.445 -33.903  1.00  0.00     0.087 A 
HETATM    5  N   UNL     1      -4.064  -1.422 -33.373  1.00  0.00    -0.231 NA
HETATM    6  C   UNL     1      -4.719  -0.258 -33.175  1.00  0.00     0.167 A 
HETATM    7 CL   UNL     1      -3.755   0.955 -32.453  1.00  0.00    -0.059 Cl
HETATM    8  C   UNL     1      -6.036  -0.125 -33.546  1.00  0.00     0.193 A 
HETATM    9  N   UNL     1      -6.773  -1.121 -34.124  1.00  0.00    -0.232 NA
HETATM   10  C   UNL     1      -4.138  -3.670 -34.095  1.00  0.00     0.034 A 
HETATM   11  C   UNL     1      -4.830  -4.762 -34.618  1.00  0.00     0.002 A 
ENDROOT
BRANCH   8  12
HETATM   12  S   UNL     1      -6.900   1.391 -33.345  1.00  0.00     0.201 S 
HETATM   13  O   UNL     1      -6.977   1.658 -31.924  1.00  0.00    -0.221 OA
HETATM   14  O   UNL     1      -6.346   2.353 -34.278  1.00  0.00    -0.221 OA
BRANCH  12  15
HETATM   15  C   UNL     1      -8.571   1.087 -33.920  1.00  0.00     0.141 C 
HETATM   16  C   UNL     1      -9.187   2.402 -34.387  1.00  0.00     0.252 C 
HETATM   17  N   UNL     1     -10.631   2.202 -34.762  1.00  0.00    -0.074 N 
HETATM   18  H   UNL     1     -10.706   1.592 -35.591  1.00  0.00     0.277 HD
HETATM   19  H   UNL     1     -11.027   3.108 -35.055  1.00  0.00     0.277 HD
HETATM   20  C   UNL     1     -11.472   1.655 -33.654  1.00  0.00     0.232 C 
HETATM   21  C   UNL     1     -10.887   0.325 -33.206  1.00  0.00     0.029 C 
HETATM   22  C   UNL     1      -9.419   0.461 -32.801  1.00  0.00     0.024 C 
ENDBRANCH  12  15
ENDBRANCH   8  12
TORSDOF 2
ENDMDL
MODEL 2
REMARK VINA RESULT:      -7.8      1.852      2.206
REMARK  2 active torsions:
REMARK  status: ('A' for Active; 'I' for Inactive)
REMARK    1  A    between atoms: C_8  and  S_9 
REMARK    2  A    between atoms: S_9  and  C_10 
ROOT
HETATM    1  C   UNL     1      -5.697  -4.893 -34.886  1.00  0.00     0.002 A 
HETATM    2  C   UNL     1      -6.450  -3.719 -34.934  1.00  0.00     0.034 A 
HETATM    3  C   UNL     1      -5.958  -2.524 -34.423  1.00  0.00     0.087 A 
HETATM    4  C   UNL     1      -4.667  -2.511 -33.828  1.00  0.00     0.087 A 
HETATM    5  N   UNL     1      -4.152  -1.388 -33.289  1.00  0.00    -0.231 NA
HETATM    6  C   UNL     1      -4.922  -0.279 -33.309  1.00  0.00     0.167 A 
HETATM    7 CL   UNL     1      -4.194   1.072 -32.556  1.00  0.00    -0.059 Cl
HETATM    8  C   UNL     1      -6.162  -0.300 -33.901  1.00  0.00     0.193 A 
HETATM    9  N   UNL     1      -6.709  -1.403 -34.495  1.00  0.00    -0.232 NA
HETATM   10  C   UNL     1      -3.923  -3.683 -33.800  1.00  0.00     0.034 A 
HETATM   11  C   UNL     1      -4.427  -4.874 -34.325  1.00  0.00     0.002 A 
ENDROOT
BRANCH   8  12
HETATM   12  S   UNL     1      -7.166   1.139 -33.985  1.00  0.00     0.201 S 
HETATM   13  O   UNL     1      -6.323   2.227 -34.435  1.00  0.00    -0.221 OA
HETATM   14  O   UNL     1      -8.399   0.789 -34.665  1.00  0.00    -0.221 OA
BRANCH  12  15
HETATM   15  C   UNL     1      -7.649   1.505 -32.297  1.00  0.00     0.141 C 
HETATM   16  C   UNL     1      -9.142   1.243 -32.135  1.00  0.00     0.252 C 
HETATM   17  N   UNL     1      -9.603   1.655 -30.762  1.00  0.00    -0.074 N 
HETATM   18  H   UNL     1      -9.172   1.055 -30.043  1.00  0.00     0.277 HD
HETATM   19  H   UNL     1     -10.617   1.486 -30.687  1.00  0.00     0.277 HD
HETATM   20  C   UNL     1      -9.339   3.092 -30.445  1.00  0.00     0.232 C 
HETATM   21  C   UNL     1      -7.847   3.355 -30.568  1.00  0.00     0.029 C 
HETATM   22  C   UNL     1      -7.316   2.964 -31.947  1.00  0.00     0.024 C 
ENDBRANCH  12  15
ENDBRANCH   8  12
TORSDOF 2
ENDMDL
MODEL 3
REMARK VINA RESULT:      -7.3      3.102      4.917
REMARK  2 active torsions:
REMARK  status: ('A' for Active; 'I' for Inactive)
REMARK    1  A    between atoms: C_8  and  S_9 
REMARK    2  A    between atoms: S_9  and  C_10 
ROOT
HETATM    1  C   UNL     1      -4.387  -3.087 -34.257  1.00  0.00     0.002 A 
HETATM    2  C   UNL     1      -4.290  -1.764 -33.823  1.00  0.00     0.034 A 
HETATM    3  C   UNL     1      -5.389  -0.914 -33.848  1.00  0.00     0.087 A 
HETATM    4  C   UNL     1      -6.628  -1.407 -34.341  1.00  0.00     0.087 A 
HETATM    5  N   UNL     1      -7.719  -0.618 -34.417  1.00  0.00    -0.231 NA
HETATM    6  C   UNL     1      -7.584   0.669 -34.032  1.00  0.00     0.167 A 
HETATM    7 CL   UNL     1      -9.011   1.591 -34.216  1.00  0.00    -0.059 Cl
HETATM    8  C   UNL     1      -6.385   1.130 -33.543  1.00  0.00     0.193 A 
HETATM    9  N   UNL     1      -5.264   0.358 -33.410  1.00  0.00    -0.232 NA
HETATM   10  C   UNL     1      -6.713  -2.729 -34.756  1.00  0.00     0.034 A 
HETATM   11  C   UNL     1      -5.603  -3.573 -34.718  1.00  0.00     0.002 A 
ENDROOT
BRANCH   8  12
HETATM   12  S   UNL     1      -6.192   2.786 -32.991  1.00  0.00     0.201 S 
HETATM   13  O   UNL     1      -6.582   3.653 -34.083  1.00  0.00    -0.221 OA
HETATM   14  O   UNL     1      -6.789   2.894 -31.673  1.00  0.00    -0.221 OA
BRANCH  12  15
HETATM   15  C   UNL     1      -4.433   3.019 -32.730  1.00  0.00     0.141 C 
HETATM   16  C   UNL     1      -4.167   3.202 -31.240  1.00  0.00     0.252 C 
HETATM   17  N   UNL     1      -2.715   3.520 -31.000  1.00  0.00    -0.074 N 
HETATM   18  H   UNL     1      -2.124   2.715 -31.255  1.00  0.00     0.277 HD
HETATM   19  H   UNL     1      -2.568   3.658 -29.989  1.00  0.00     0.277 HD
HETATM   20  C   UNL     1      -2.240   4.743 -31.717  1.00  0.00     0.232 C 
HETATM   21  C   UNL     1      -2.467   4.556 -33.208  1.00  0.00     0.029 C 
HETATM   22  C   UNL     1      -3.929   4.237 -33.522  1.00  0.00     0.024 C 
ENDBRANCH  12  15
ENDBRANCH   8  12
TORSDOF 2
ENDMDL
MODEL 4
REMARK VINA RESULT:      -7.2      1.714      2.078
REMARK  2 active torsions:
REMARK  status: ('A' for Active; 'I' for Inactive)
REMARK    1  A    between atoms: C_8  and  S_9 
REMARK    2  A    between atoms: S_9  and  C_10 
ROOT
HETATM    1  C   UNL     1      -5.694  -2.709 -34.971  1.00  0.00     0.002 A 
HETATM    2  C   UNL     1      -6.655  -1.711 -34.797  1.00  0.00     0.034 A 
HETATM    3  C   UNL     1      -6.545  -0.774 -33.777  1.00  0.00     0.087 A 
HETATM    4  C   UNL     1      -5.437  -0.850 -32.890  1.00  0.00     0.087 A 
HETATM    5  N   UNL     1      -5.296   0.013 -31.865  1.00  0.00    -0.231 NA
HETATM    6  C   UNL     1      -6.264   0.940 -31.694  1.00  0.00     0.167 A 
HETATM    7 CL   UNL     1      -6.013   1.949 -30.338  1.00  0.00    -0.059 Cl
HETATM    8  C   UNL     1      -7.323   1.013 -32.567  1.00  0.00     0.193 A 
HETATM    9  N   UNL     1      -7.487   0.186 -33.643  1.00  0.00    -0.232 NA
HETATM   10  C   UNL     1      -4.482  -1.839 -33.084  1.00  0.00     0.034 A 
HETATM   11  C   UNL     1      -4.601  -2.768 -34.117  1.00  0.00     0.002 A 
ENDROOT
BRANCH   8  12
HETATM   12  S   UNL     1      -8.572   2.236 -32.398  1.00  0.00     0.201 S 
HETATM   13  O   UNL     1      -9.366   1.885 -31.239  1.00  0.00    -0.221 OA
HETATM   14  O   UNL     1      -7.948   3.539 -32.536  1.00  0.00    -0.221 OA
BRANCH  12  15
HETATM   15  C   UNL     1      -9.628   2.066 -33.837  1.00  0.00     0.141 C 
HETATM   16  C   UNL     1      -9.886   3.445 -34.435  1.00  0.00     0.252 C 
HETATM   17  N   UNL     1     -10.867   3.350 -35.573  1.00  0.00    -0.074 N 
HETATM   18  H   UNL     1     -10.459   2.818 -36.357  1.00  0.00     0.277 HD
HETATM   19  H   UNL     1     -11.037   4.296 -35.945  1.00  0.00     0.277 HD
HETATM   20  C   UNL     1     -12.181   2.751 -35.186  1.00  0.00     0.232 C 
HETATM   21  C   UNL     1     -11.939   1.361 -34.622  1.00  0.00     0.029 C 
HETATM   22  C   UNL     1     -10.954   1.388 -33.453  1.00  0.00     0.024 C 
ENDBRANCH  12  15
ENDBRANCH   8  12
TORSDOF 2
ENDMDL
MODEL 5
REMARK VINA RESULT:      -7.2      2.778      3.761
REMARK  2 active torsions:
REMARK  status: ('A' for Active; 'I' for Inactive)
REMARK    1  A    between atoms: C_8  and  S_9 
REMARK    2  A    between atoms: S_9  and  C_10 
ROOT
HETATM    1  C   UNL     1      -6.370  -3.887 -35.032  1.00  0.00     0.002 A 
HETATM    2  C   UNL     1      -6.773  -2.636 -34.563  1.00  0.00     0.034 A 
HETATM    3  C   UNL     1      -5.924  -1.843 -33.802  1.00  0.00     0.087 A 
HETATM    4  C   UNL     1      -4.625  -2.330 -33.488  1.00  0.00     0.087 A 
HETATM    5  N   UNL     1      -3.771  -1.617 -32.728  1.00  0.00    -0.231 NA
HETATM    6  C   UNL     1      -4.204  -0.431 -32.250  1.00  0.00     0.167 A 
HETATM    7 CL   UNL     1      -3.062   0.365 -31.259  1.00  0.00    -0.059 Cl
HETATM    8  C   UNL     1      -5.456   0.037 -32.573  1.00  0.00     0.193 A 
HETATM    9  N   UNL     1      -6.341  -0.632 -33.372  1.00  0.00    -0.232 NA
HETATM   10  C   UNL     1      -4.233  -3.570 -33.975  1.00  0.00     0.034 A 
HETATM   11  C   UNL     1      -5.094  -4.352 -34.744  1.00  0.00     0.002 A 
ENDROOT
BRANCH   8  12
HETATM   12  S   UNL     1      -6.030   1.597 -32.005  1.00  0.00     0.201 S 
HETATM   13  O   UNL     1      -7.371   1.776 -32.520  1.00  0.00    -0.221 OA
HETATM   14  O   UNL     1      -5.729   1.700 -30.589  1.00  0.00    -0.221 OA
BRANCH  12  15
HETATM   15  C   UNL     1      -4.988   2.824 -32.796  1.00  0.00     0.141 C 
HETATM   16  C   UNL     1      -4.414   3.754 -31.733  1.00  0.00     0.252 C 
HETATM   17  N   UNL     1      -3.633   4.869 -32.377  1.00  0.00    -0.074 N 
HETATM   18  H   UNL     1      -2.796   4.495 -32.849  1.00  0.00     0.277 HD
HETATM   19  H   UNL     1      -3.273   5.491 -31.637  1.00  0.00     0.277 HD
HETATM   20  C   UNL     1      -4.433   5.688 -33.337  1.00  0.00     0.232 C 
HETATM   21  C   UNL     1      -4.980   4.776 -34.423  1.00  0.00     0.029 C 
HETATM   22  C   UNL     1      -5.793   3.623 -33.834  1.00  0.00     0.024 C 
ENDBRANCH  12  15
ENDBRANCH   8  12
TORSDOF 2
ENDMDL
MODEL 6
REMARK VINA RESULT:      -7.2      4.326      5.817
REMARK  2 active torsions:
REMARK  status: ('A' for Active; 'I' for Inactive)
REMARK    1  A    between atoms: C_8  and  S_9 
REMARK    2  A    between atoms: S_9  and  C_10 
ROOT
HETATM    1  C   UNL     1      -7.449  -0.893 -35.067  1.00  0.00     0.002 A 
HETATM    2  C   UNL     1      -7.290   0.491 -34.983  1.00  0.00     0.034 A 
HETATM    3  C   UNL     1      -6.349   1.059 -34.132  1.00  0.00     0.087 A 
HETATM    4  C   UNL     1      -5.547   0.205 -33.326  1.00  0.00     0.087 A 
HETATM    5  N   UNL     1      -4.641   0.702 -32.461  1.00  0.00    -0.231 NA
HETATM    6  C   UNL     1      -4.541   2.046 -32.368  1.00  0.00     0.167 A 
HETATM    7 CL   UNL     1      -3.400   2.568 -31.208  1.00  0.00    -0.059 Cl
HETATM    8  C   UNL     1      -5.310   2.861 -33.164  1.00  0.00     0.193 A 
HETATM    9  N   UNL     1      -6.213   2.403 -34.083  1.00  0.00    -0.232 NA
HETATM   10  C   UNL     1      -5.706  -1.170 -33.431  1.00  0.00     0.034 A 
HETATM   11  C   UNL     1      -6.650  -1.726 -34.295  1.00  0.00     0.002 A 
ENDROOT
BRANCH   8  12
HETATM   12  S   UNL     1      -5.168   4.610 -33.099  1.00  0.00     0.201 S 
HETATM   13  O   UNL     1      -5.744   5.135 -34.320  1.00  0.00    -0.221 OA
HETATM   14  O   UNL     1      -5.611   5.050 -31.790  1.00  0.00    -0.221 OA
BRANCH  12  15
HETATM   15  C   UNL     1      -3.411   4.966 -33.144  1.00  0.00     0.141 C 
HETATM   16  C   UNL     1      -3.137   6.239 -32.352  1.00  0.00     0.252 C 
HETATM   17  N   UNL     1      -1.688   6.631 -32.471  1.00  0.00    -0.074 N 
HETATM   18  H   UNL     1      -1.087   5.928 -32.016  1.00  0.00     0.277 HD
HETATM   19  H   UNL     1      -1.536   7.503 -31.942  1.00  0.00     0.277 HD
HETATM   20  C   UNL     1      -1.237   6.847 -33.880  1.00  0.00     0.232 C 
HETATM   21  C   UNL     1      -1.473   5.570 -34.671  1.00  0.00     0.029 C 
HETATM   22  C   UNL     1      -2.932   5.120 -34.597  1.00  0.00     0.024 C 
ENDBRANCH  12  15
ENDBRANCH   8  12
TORSDOF 2
ENDMDL
MODEL 7
REMARK VINA RESULT:      -6.7      3.514      5.355
REMARK  2 active torsions:
REMARK  status: ('A' for Active; 'I' for Inactive)
REMARK    1  A    between atoms: C_8  and  S_9 
REMARK    2  A    between atoms: S_9  and  C_10 
ROOT
HETATM    1  C   UNL     1      -3.824   5.908 -33.414  1.00  0.00     0.002 A 
HETATM    2  C   UNL     1      -4.778   4.891 -33.364  1.00  0.00     0.034 A 
HETATM    3  C   UNL     1      -4.498   3.666 -32.770  1.00  0.00     0.087 A 
HETATM    4  C   UNL     1      -3.206   3.450 -32.216  1.00  0.00     0.087 A 
HETATM    5  N   UNL     1      -2.870   2.272 -31.654  1.00  0.00    -0.231 NA
HETATM    6  C   UNL     1      -3.799   1.292 -31.662  1.00  0.00     0.167 A 
HETATM    7 CL   UNL     1      -3.252  -0.173 -30.971  1.00  0.00    -0.059 Cl
HETATM    8  C   UNL     1      -5.049   1.517 -32.187  1.00  0.00     0.193 A 
HETATM    9  N   UNL     1      -5.449   2.707 -32.730  1.00  0.00    -0.232 NA
HETATM   10  C   UNL     1      -2.272   4.476 -32.259  1.00  0.00     0.034 A 
HETATM   11  C   UNL     1      -2.570   5.703 -32.852  1.00  0.00     0.002 A 
ENDROOT
BRANCH   8  12
HETATM   12  S   UNL     1      -6.292   0.277 -32.168  1.00  0.00     0.201 S 
HETATM   13  O   UNL     1      -5.942  -0.700 -33.178  1.00  0.00    -0.221 OA
HETATM   14  O   UNL     1      -6.534  -0.098 -30.787  1.00  0.00    -0.221 OA
BRANCH  12  15
HETATM   15  C   UNL     1      -7.802   1.081 -32.707  1.00  0.00     0.141 C 
HETATM   16  C   UNL     1      -8.878   0.890 -31.644  1.00  0.00     0.252 C 
HETATM   17  N   UNL     1     -10.192   1.450 -32.120  1.00  0.00    -0.074 N 
HETATM   18  H   UNL     1     -10.131   2.474 -32.222  1.00  0.00     0.277 HD
HETATM   19  H   UNL     1     -10.904   1.291 -31.392  1.00  0.00     0.277 HD
HETATM   20  C   UNL     1     -10.678   0.843 -33.397  1.00  0.00     0.232 C 
HETATM   21  C   UNL     1      -9.627   1.060 -34.474  1.00  0.00     0.029 C 
HETATM   22  C   UNL     1      -8.265   0.505 -34.054  1.00  0.00     0.024 C 
ENDBRANCH  12  15
ENDBRANCH   8  12
TORSDOF 2
ENDMDL
MODEL 8
REMARK VINA RESULT:      -6.7      5.586      7.611
REMARK  2 active torsions:
REMARK  status: ('A' for Active; 'I' for Inactive)
REMARK    1  A    between atoms: C_8  and  S_9 
REMARK    2  A    between atoms: S_9  and  C_10 
ROOT
HETATM    1  C   UNL     1      -4.060  -0.656 -31.297  1.00  0.00     0.002 A 
HETATM    2  C   UNL     1      -3.296   0.512 -31.299  1.00  0.00     0.034 A 
HETATM    3  C   UNL     1      -3.738   1.662 -31.943  1.00  0.00     0.087 A 
HETATM    4  C   UNL     1      -4.987   1.632 -32.621  1.00  0.00     0.087 A 
HETATM    5  N   UNL     1      -5.451   2.708 -33.288  1.00  0.00    -0.231 NA
HETATM    6  C   UNL     1      -4.670   3.810 -33.311  1.00  0.00     0.167 A 
HETATM    7 CL   UNL     1      -5.328   5.096 -34.224  1.00  0.00    -0.059 Cl
HETATM    8  C   UNL     1      -3.471   3.831 -32.639  1.00  0.00     0.193 A 
HETATM    9  N   UNL     1      -2.979   2.779 -31.916  1.00  0.00    -0.232 NA
HETATM   10  C   UNL     1      -5.743   0.468 -32.598  1.00  0.00     0.034 A 
HETATM   11  C   UNL     1      -5.290  -0.676 -31.941  1.00  0.00     0.002 A 
ENDROOT
BRANCH   8  12
HETATM   12  S   UNL     1      -2.457   5.264 -32.611  1.00  0.00     0.201 S 
HETATM   13  O   UNL     1      -1.489   5.129 -33.681  1.00  0.00    -0.221 OA
HETATM   14  O   UNL     1      -3.319   6.425 -32.498  1.00  0.00    -0.221 OA
BRANCH  12  15
HETATM   15  C   UNL     1      -1.551   5.200 -31.064  1.00  0.00     0.141 C 
HETATM   16  C   UNL     1      -1.966   6.380 -30.192  1.00  0.00     0.252 C 
HETATM   17  N   UNL     1      -1.136   6.422 -28.937  1.00  0.00    -0.074 N 
HETATM   18  H   UNL     1      -1.336   5.601 -28.345  1.00  0.00     0.277 HD
HETATM   19  H   UNL     1      -1.424   7.238 -28.376  1.00  0.00     0.277 HD
HETATM   20  C   UNL     1       0.334   6.518 -29.190  1.00  0.00     0.232 C 
HETATM   21  C   UNL     1       0.765   5.326 -30.029  1.00  0.00     0.029 C 
HETATM   22  C   UNL     1      -0.037   5.229 -31.327  1.00  0.00     0.024 C 
ENDBRANCH  12  15
ENDBRANCH   8  12
TORSDOF 2
ENDMDL
MODEL 9
REMARK VINA RESULT:      -6.7      3.099      3.901
REMARK  2 active torsions:
REMARK  status: ('A' for Active; 'I' for Inactive)
REMARK    1  A    between atoms: C_8  and  S_9 
REMARK    2  A    between atoms: S_9  and  C_10 
ROOT
HETATM    1  C   UNL     1      -4.506  -3.197 -34.589  1.00  0.00     0.002 A 
HETATM    2  C   UNL     1      -4.296  -2.072 -33.791  1.00  0.00     0.034 A 
HETATM    3  C   UNL     1      -5.353  -1.263 -33.392  1.00  0.00     0.087 A 
HETATM    4  C   UNL     1      -6.669  -1.589 -33.823  1.00  0.00     0.087 A 
HETATM    5  N   UNL     1      -7.727  -0.823 -33.491  1.00  0.00    -0.231 NA
HETATM    6  C   UNL     1      -7.488   0.285 -32.756  1.00  0.00     0.167 A 
HETATM    7 CL   UNL     1      -8.889   1.209 -32.436  1.00  0.00    -0.059 Cl
HETATM    8  C   UNL     1      -6.214   0.581 -32.333  1.00  0.00     0.193 A 
HETATM    9  N   UNL     1      -5.117  -0.187 -32.610  1.00  0.00    -0.232 NA
HETATM   10  C   UNL     1      -6.864  -2.719 -34.604  1.00  0.00     0.034 A 
HETATM   11  C   UNL     1      -5.794  -3.527 -34.990  1.00  0.00     0.002 A 
ENDROOT
BRANCH   8  12
HETATM   12  S   UNL     1      -5.879   1.988 -31.337  1.00  0.00     0.201 S 
HETATM   13  O   UNL     1      -6.841   1.988 -30.254  1.00  0.00    -0.221 OA
HETATM   14  O   UNL     1      -4.450   2.039 -31.095  1.00  0.00    -0.221 OA
BRANCH  12  15
HETATM   15  C   UNL     1      -6.233   3.416 -32.362  1.00  0.00     0.141 C 
HETATM   16  C   UNL     1      -4.926   4.116 -32.715  1.00  0.00     0.252 C 
HETATM   17  N   UNL     1      -5.198   5.387 -33.475  1.00  0.00    -0.074 N 
HETATM   18  H   UNL     1      -5.615   5.174 -34.394  1.00  0.00     0.277 HD
HETATM   19  H   UNL     1      -4.299   5.848 -33.684  1.00  0.00     0.277 HD
HETATM   20  C   UNL     1      -6.066   6.355 -32.737  1.00  0.00     0.232 C 
HETATM   21  C   UNL     1      -7.388   5.679 -32.412  1.00  0.00     0.029 C 
HETATM   22  C   UNL     1      -7.181   4.380 -31.631  1.00  0.00     0.024 C 
ENDBRANCH  12  15
ENDBRANCH   8  12
TORSDOF 2
ENDMDL
MODEL 10
REMARK VINA RESULT:      -6.6      4.792      6.747
REMARK  2 active torsions:
REMARK  status: ('A' for Active; 'I' for Inactive)
REMARK    1  A    between atoms: C_8  and  S_9 
REMARK    2  A    between atoms: S_9  and  C_10 
ROOT
HETATM    1  C   UNL     1      -1.283   5.744 -34.507  1.00  0.00     0.002 A 
HETATM    2  C   UNL     1      -2.196   4.713 -34.280  1.00  0.00     0.034 A 
HETATM    3  C   UNL     1      -3.039   4.724 -33.175  1.00  0.00     0.087 A 
HETATM    4  C   UNL     1      -2.951   5.805 -32.255  1.00  0.00     0.087 A 
HETATM    5  N   UNL     1      -3.722   5.852 -31.151  1.00  0.00    -0.231 NA
HETATM    6  C   UNL     1      -4.563   4.818 -30.934  1.00  0.00     0.167 A 
HETATM    7 CL   UNL     1      -5.455   4.955 -29.483  1.00  0.00    -0.059 Cl
HETATM    8  C   UNL     1      -4.650   3.787 -31.839  1.00  0.00     0.193 A 
HETATM    9  N   UNL     1      -3.919   3.716 -32.992  1.00  0.00    -0.232 NA
HETATM   10  C   UNL     1      -2.048   6.831 -32.501  1.00  0.00     0.034 A 
HETATM   11  C   UNL     1      -1.214   6.809 -33.619  1.00  0.00     0.002 A 
ENDROOT
BRANCH   8  12
HETATM   12  S   UNL     1      -5.770   2.453 -31.608  1.00  0.00     0.201 S 
HETATM   13  O   UNL     1      -5.266   1.652 -30.512  1.00  0.00    -0.221 OA
HETATM   14  O   UNL     1      -7.117   2.990 -31.613  1.00  0.00    -0.221 OA
BRANCH  12  15
HETATM   15  C   UNL     1      -5.658   1.452 -33.092  1.00  0.00     0.141 C 
HETATM   16  C   UNL     1      -6.874   1.722 -33.971  1.00  0.00     0.252 C 
HETATM   17  N   UNL     1      -6.872   0.808 -35.167  1.00  0.00    -0.074 N 
HETATM   18  H   UNL     1      -6.074   1.025 -35.784  1.00  0.00     0.277 HD
HETATM   19  H   UNL     1      -7.713   0.999 -35.733  1.00  0.00     0.277 HD
HETATM   20  C   UNL     1      -6.858  -0.644 -34.815  1.00  0.00     0.232 C 
HETATM   21  C   UNL     1      -5.629  -0.932 -33.969  1.00  0.00     0.029 C 
HETATM   22  C   UNL     1      -5.575  -0.039 -32.729  1.00  0.00     0.024 C 
ENDBRANCH  12  15
ENDBRANCH   8  12
TORSDOF 2
ENDMDL
