MODEL 1
REMARK VINA RESULT:      -8.4      0.000      0.000
REMARK  8 active torsions:
REMARK  status: ('A' for Active; 'I' for Inactive)
REMARK    1  A    between atoms: C_2  and  O_3 
REMARK    2  A    between atoms: C_2  and  C_4 
REMARK    3  A    between atoms: C_4  and  N_5 
REMARK       I    between atoms: N_5  and  C_6 
REMARK    4  A    between atoms: C_6  and  C_7 
REMARK    5  A    between atoms: C_10  and  O_11 
REMARK    6  A    between atoms: O_11  and  C_12 
REMARK    7  A    between atoms: C_15  and  O_16 
REMARK    8  A    between atoms: O_16  and  C_17 
ROOT
HETATM    1  C   UNL     1      -2.702   4.506 -31.658  1.00  0.00     0.049 A 
HETATM    2  C   UNL     1      -3.817   5.018 -31.004  1.00  0.00     0.136 A 
HETATM    3  N   UNL     1      -5.092   4.659 -31.288  1.00  0.00    -0.236 NA
HETATM    4  C   UNL     1      -5.265   3.757 -32.279  1.00  0.00     0.169 A 
HETATM    5  C   UNL     1      -4.221   3.229 -33.026  1.00  0.00     0.059 A 
HETATM    6  C   UNL     1      -2.915   3.605 -32.705  1.00  0.00     0.023 A 
ENDROOT
BRANCH   4   7
HETATM    7  O   UNL     1      -6.547   3.353 -32.626  1.00  0.00    -0.292 OA
BRANCH   7   8
HETATM    8  C   UNL     1      -6.682   2.100 -33.181  1.00  0.00     0.078 A 
HETATM    9  C   UNL     1      -6.816   1.026 -32.300  1.00  0.00     0.040 A 
HETATM   10  C   UNL     1      -6.999  -0.269 -32.797  1.00  0.00     0.040 A 
HETATM   11  C   UNL     1      -7.083  -0.475 -34.176  1.00  0.00     0.076 A 
HETATM   12  C   UNL     1      -6.956   0.600 -35.057  1.00  0.00     0.040 A 
HETATM   13  C   UNL     1      -6.772   1.891 -34.561  1.00  0.00     0.040 A 
BRANCH  11  14
HETATM   14  O   UNL     1      -7.201  -1.723 -34.740  1.00  0.00    -0.311 OA
BRANCH  14  15
HETATM   15  C   UNL     1      -6.176  -2.624 -34.562  1.00  0.00     0.076 A 
HETATM   16  C   UNL     1      -4.935  -2.288 -34.015  1.00  0.00     0.037 A 
HETATM   17  C   UNL     1      -3.970  -3.279 -33.822  1.00  0.00     0.003 A 
HETATM   18  C   UNL     1      -4.252  -4.604 -34.153  1.00  0.00     0.000 A 
HETATM   19  C   UNL     1      -5.499  -4.943 -34.678  1.00  0.00     0.003 A 
HETATM   20  C   UNL     1      -6.462  -3.954 -34.876  1.00  0.00     0.037 A 
ENDBRANCH  14  15
ENDBRANCH  11  14
ENDBRANCH   7   8
ENDBRANCH   4   7
BRANCH   1  21
HETATM   21  C   UNL     1      -1.359   4.947 -31.215  1.00  0.00     0.253 C 
HETATM   22  N   UNL     1      -1.267   5.496 -29.955  1.00  0.00    -0.354 N 
HETATM   23  H   UNL     1      -2.098   5.698 -29.415  1.00  0.00     0.162 HD
HETATM   24  O   UNL     1      -0.401   4.856 -31.974  1.00  0.00    -0.268 OA
BRANCH  22  25
HETATM   25  C   UNL     1      -0.006   6.023 -29.449  1.00  0.00     0.154 C 
BRANCH  25  26
HETATM   26  C   UNL     1      -0.168   6.706 -28.083  1.00  0.00     0.132 C 
HETATM   27  C   UNL     1       1.075   7.498 -27.711  1.00  0.00     0.041 C 
BRANCH  26  28
HETATM   28  O   UNL     1      -0.377   5.710 -27.076  1.00  0.00    -0.394 OA
HETATM   29  H   UNL     1      -1.268   5.354 -27.236  1.00  0.00     0.210 HD
ENDBRANCH  26  28
ENDBRANCH  25  26
ENDBRANCH  22  25
ENDBRANCH   1  21
TORSDOF 8
ENDMDL
MODEL 2
REMARK VINA RESULT:      -8.3      5.631      7.900
REMARK  8 active torsions:
REMARK  status: ('A' for Active; 'I' for Inactive)
REMARK    1  A    between atoms: C_2  and  O_3 
REMARK    2  A    between atoms: C_2  and  C_4 
REMARK    3  A    between atoms: C_4  and  N_5 
REMARK       I    between atoms: N_5  and  C_6 
REMARK    4  A    between atoms: C_6  and  C_7 
REMARK    5  A    between atoms: C_10  and  O_11 
REMARK    6  A    between atoms: O_11  and  C_12 
REMARK    7  A    between atoms: C_15  and  O_16 
REMARK    8  A    between atoms: O_16  and  C_17 
ROOT
HETATM    1  C   UNL     1     -11.644   4.085 -34.886  1.00  0.00     0.049 A 
HETATM    2  C   UNL     1     -10.531   4.007 -34.057  1.00  0.00     0.136 A 
HETATM    3  N   UNL     1     -10.011   2.845 -33.594  1.00  0.00    -0.236 NA
HETATM    4  C   UNL     1     -10.639   1.707 -33.964  1.00  0.00     0.169 A 
HETATM    5  C   UNL     1     -11.787   1.683 -34.743  1.00  0.00     0.059 A 
HETATM    6  C   UNL     1     -12.295   2.894 -35.218  1.00  0.00     0.023 A 
ENDROOT
BRANCH   4   7
HETATM    7  O   UNL     1     -10.164   0.482 -33.517  1.00  0.00    -0.292 OA
BRANCH   7   8
HETATM    8  C   UNL     1      -8.809   0.258 -33.620  1.00  0.00     0.078 A 
HETATM    9  C   UNL     1      -8.110   0.032 -32.433  1.00  0.00     0.040 A 
HETATM   10  C   UNL     1      -6.739  -0.243 -32.470  1.00  0.00     0.040 A 
HETATM   11  C   UNL     1      -6.083  -0.327 -33.700  1.00  0.00     0.076 A 
HETATM   12  C   UNL     1      -6.782  -0.108 -34.887  1.00  0.00     0.040 A 
HETATM   13  C   UNL     1      -8.150   0.168 -34.850  1.00  0.00     0.040 A 
BRANCH  11  14
HETATM   14  O   UNL     1      -4.728  -0.533 -33.813  1.00  0.00    -0.311 OA
BRANCH  14  15
HETATM   15  C   UNL     1      -4.221  -1.767 -33.476  1.00  0.00     0.076 A 
HETATM   16  C   UNL     1      -3.559  -2.032 -32.274  1.00  0.00     0.037 A 
HETATM   17  C   UNL     1      -3.125  -3.329 -31.992  1.00  0.00     0.003 A 
HETATM   18  C   UNL     1      -3.368  -4.362 -32.898  1.00  0.00     0.000 A 
HETATM   19  C   UNL     1      -4.049  -4.101 -34.087  1.00  0.00     0.003 A 
HETATM   20  C   UNL     1      -4.480  -2.806 -34.372  1.00  0.00     0.037 A 
ENDBRANCH  14  15
ENDBRANCH  11  14
ENDBRANCH   7   8
ENDBRANCH   4   7
BRANCH   1  21
HETATM   21  C   UNL     1     -12.079   5.419 -35.361  1.00  0.00     0.253 C 
HETATM   22  N   UNL     1     -11.299   6.495 -34.998  1.00  0.00    -0.354 N 
HETATM   23  H   UNL     1     -10.541   6.387 -34.338  1.00  0.00     0.162 HD
HETATM   24  O   UNL     1     -13.114   5.533 -36.007  1.00  0.00    -0.268 OA
BRANCH  22  25
HETATM   25  C   UNL     1     -11.676   7.857 -35.356  1.00  0.00     0.154 C 
BRANCH  25  26
HETATM   26  C   UNL     1     -10.726   8.467 -36.398  1.00  0.00     0.132 C 
HETATM   27  C   UNL     1     -11.473   8.860 -37.662  1.00  0.00     0.041 C 
BRANCH  26  28
HETATM   28  O   UNL     1      -9.729   7.503 -36.754  1.00  0.00    -0.394 OA
HETATM   29  H   UNL     1      -9.247   7.305 -35.932  1.00  0.00     0.210 HD
ENDBRANCH  26  28
ENDBRANCH  25  26
ENDBRANCH  22  25
ENDBRANCH   1  21
TORSDOF 8
ENDMDL
MODEL 3
REMARK VINA RESULT:      -8.2      4.516      8.290
REMARK  8 active torsions:
REMARK  status: ('A' for Active; 'I' for Inactive)
REMARK    1  A    between atoms: C_2  and  O_3 
REMARK    2  A    between atoms: C_2  and  C_4 
REMARK    3  A    between atoms: C_4  and  N_5 
REMARK       I    between atoms: N_5  and  C_6 
REMARK    4  A    between atoms: C_6  and  C_7 
REMARK    5  A    between atoms: C_10  and  O_11 
REMARK    6  A    between atoms: O_11  and  C_12 
REMARK    7  A    between atoms: C_15  and  O_16 
REMARK    8  A    between atoms: O_16  and  C_17 
ROOT
HETATM    1  C   UNL     1     -10.773   3.215 -32.170  1.00  0.00     0.049 A 
HETATM    2  C   UNL     1      -9.923   2.294 -32.770  1.00  0.00     0.136 A 
HETATM    3  N   UNL     1      -8.654   2.053 -32.358  1.00  0.00    -0.236 NA
HETATM    4  C   UNL     1      -8.209   2.773 -31.305  1.00  0.00     0.169 A 
HETATM    5  C   UNL     1      -8.962   3.753 -30.674  1.00  0.00     0.059 A 
HETATM    6  C   UNL     1     -10.270   3.974 -31.110  1.00  0.00     0.023 A 
ENDROOT
BRANCH   4   7
HETATM    7  O   UNL     1      -6.916   2.582 -30.837  1.00  0.00    -0.292 OA
BRANCH   7   8
HETATM    8  C   UNL     1      -6.166   1.603 -31.448  1.00  0.00     0.078 A 
HETATM    9  C   UNL     1      -6.296   0.303 -30.955  1.00  0.00     0.040 A 
HETATM   10  C   UNL     1      -5.594  -0.747 -31.556  1.00  0.00     0.040 A 
HETATM   11  C   UNL     1      -4.793  -0.494 -32.672  1.00  0.00     0.076 A 
HETATM   12  C   UNL     1      -4.668   0.803 -33.169  1.00  0.00     0.040 A 
HETATM   13  C   UNL     1      -5.368   1.851 -32.569  1.00  0.00     0.040 A 
BRANCH  11  14
HETATM   14  O   UNL     1      -4.027  -1.463 -33.278  1.00  0.00    -0.311 OA
BRANCH  14  15
HETATM   15  C   UNL     1      -4.659  -2.565 -33.807  1.00  0.00     0.076 A 
HETATM   16  C   UNL     1      -5.870  -2.504 -34.503  1.00  0.00     0.037 A 
HETATM   17  C   UNL     1      -6.413  -3.668 -35.052  1.00  0.00     0.003 A 
HETATM   18  C   UNL     1      -5.741  -4.883 -34.923  1.00  0.00     0.000 A 
HETATM   19  C   UNL     1      -4.522  -4.938 -34.248  1.00  0.00     0.003 A 
HETATM   20  C   UNL     1      -3.980  -3.778 -33.696  1.00  0.00     0.037 A 
ENDBRANCH  14  15
ENDBRANCH  11  14
ENDBRANCH   7   8
ENDBRANCH   4   7
BRANCH   1  21
HETATM   21  C   UNL     1     -12.154   3.345 -32.690  1.00  0.00     0.253 C 
HETATM   22  N   UNL     1     -12.963   2.234 -32.595  1.00  0.00    -0.354 N 
HETATM   23  H   UNL     1     -12.589   1.343 -32.298  1.00  0.00     0.162 HD
HETATM   24  O   UNL     1     -12.516   4.391 -33.217  1.00  0.00    -0.268 OA
BRANCH  22  25
HETATM   25  C   UNL     1     -14.316   2.235 -33.138  1.00  0.00     0.154 C 
BRANCH  25  26
HETATM   26  C   UNL     1     -14.762   0.835 -33.586  1.00  0.00     0.132 C 
HETATM   27  C   UNL     1     -13.575  -0.103 -33.732  1.00  0.00     0.041 C 
BRANCH  26  28
HETATM   28  O   UNL     1     -15.413   0.928 -34.858  1.00  0.00    -0.394 OA
HETATM   29  H   UNL     1     -15.022   0.228 -35.408  1.00  0.00     0.210 HD
ENDBRANCH  26  28
ENDBRANCH  25  26
ENDBRANCH  22  25
ENDBRANCH   1  21
TORSDOF 8
ENDMDL
MODEL 4
REMARK VINA RESULT:      -8.0      1.553      2.106
REMARK  8 active torsions:
REMARK  status: ('A' for Active; 'I' for Inactive)
REMARK    1  A    between atoms: C_2  and  O_3 
REMARK    2  A    between atoms: C_2  and  C_4 
REMARK    3  A    between atoms: C_4  and  N_5 
REMARK       I    between atoms: N_5  and  C_6 
REMARK    4  A    between atoms: C_6  and  C_7 
REMARK    5  A    between atoms: C_10  and  O_11 
REMARK    6  A    between atoms: O_11  and  C_12 
REMARK    7  A    between atoms: C_15  and  O_16 
REMARK    8  A    between atoms: O_16  and  C_17 
ROOT
HETATM    1  C   UNL     1      -4.330   5.053 -32.524  1.00  0.00     0.049 A 
HETATM    2  C   UNL     1      -4.856   4.283 -31.493  1.00  0.00     0.136 A 
HETATM    3  N   UNL     1      -5.971   3.522 -31.610  1.00  0.00    -0.236 NA
HETATM    4  C   UNL     1      -6.598   3.539 -32.806  1.00  0.00     0.169 A 
HETATM    5  C   UNL     1      -6.182   4.316 -33.878  1.00  0.00     0.059 A 
HETATM    6  C   UNL     1      -5.024   5.082 -33.737  1.00  0.00     0.023 A 
ENDROOT
BRANCH   4   7
HETATM    7  O   UNL     1      -7.751   2.788 -32.990  1.00  0.00    -0.292 OA
BRANCH   7   8
HETATM    8  C   UNL     1      -7.596   1.503 -33.459  1.00  0.00     0.078 A 
HETATM    9  C   UNL     1      -7.304   1.352 -34.816  1.00  0.00     0.040 A 
HETATM   10  C   UNL     1      -7.093   0.077 -35.349  1.00  0.00     0.040 A 
HETATM   11  C   UNL     1      -7.139  -1.040 -34.511  1.00  0.00     0.076 A 
HETATM   12  C   UNL     1      -7.425  -0.889 -33.153  1.00  0.00     0.040 A 
HETATM   13  C   UNL     1      -7.636   0.384 -32.622  1.00  0.00     0.040 A 
BRANCH  11  14
HETATM   14  O   UNL     1      -7.003  -2.328 -34.972  1.00  0.00    -0.311 OA
BRANCH  14  15
HETATM   15  C   UNL     1      -5.892  -3.047 -34.593  1.00  0.00     0.076 A 
HETATM   16  C   UNL     1      -4.779  -2.480 -33.966  1.00  0.00     0.037 A 
HETATM   17  C   UNL     1      -3.717  -3.296 -33.567  1.00  0.00     0.003 A 
HETATM   18  C   UNL     1      -3.776  -4.674 -33.775  1.00  0.00     0.000 A 
HETATM   19  C   UNL     1      -4.897  -5.241 -34.380  1.00  0.00     0.003 A 
HETATM   20  C   UNL     1      -5.956  -4.428 -34.783  1.00  0.00     0.037 A 
ENDBRANCH  14  15
ENDBRANCH  11  14
ENDBRANCH   7   8
ENDBRANCH   4   7
BRANCH   1  21
HETATM   21  C   UNL     1      -3.075   5.801 -32.278  1.00  0.00     0.253 C 
HETATM   22  N   UNL     1      -1.894   5.112 -32.453  1.00  0.00    -0.354 N 
HETATM   23  H   UNL     1      -1.895   4.115 -32.620  1.00  0.00     0.162 HD
HETATM   24  O   UNL     1      -3.118   6.963 -31.892  1.00  0.00    -0.268 OA
BRANCH  22  25
HETATM   25  C   UNL     1      -0.607   5.735 -32.171  1.00  0.00     0.154 C 
BRANCH  25  26
HETATM   26  C   UNL     1      -0.100   5.406 -30.759  1.00  0.00     0.132 C 
HETATM   27  C   UNL     1       0.373   6.657 -30.036  1.00  0.00     0.041 C 
BRANCH  26  28
HETATM   28  O   UNL     1       1.006   4.502 -30.850  1.00  0.00    -0.394 OA
HETATM   29  H   UNL     1       1.057   4.057 -29.987  1.00  0.00     0.210 HD
ENDBRANCH  26  28
ENDBRANCH  25  26
ENDBRANCH  22  25
ENDBRANCH   1  21
TORSDOF 8
ENDMDL
MODEL 5
REMARK VINA RESULT:      -7.9      2.129      4.149
REMARK  8 active torsions:
REMARK  status: ('A' for Active; 'I' for Inactive)
REMARK    1  A    between atoms: C_2  and  O_3 
REMARK    2  A    between atoms: C_2  and  C_4 
REMARK    3  A    between atoms: C_4  and  N_5 
REMARK       I    between atoms: N_5  and  C_6 
REMARK    4  A    between atoms: C_6  and  C_7 
REMARK    5  A    between atoms: C_10  and  O_11 
REMARK    6  A    between atoms: O_11  and  C_12 
REMARK    7  A    between atoms: C_15  and  O_16 
REMARK    8  A    between atoms: O_16  and  C_17 
ROOT
HETATM    1  C   UNL     1      -0.581   6.954 -29.635  1.00  0.00     0.049 A 
HETATM    2  C   UNL     1      -1.883   6.992 -30.121  1.00  0.00     0.136 A 
HETATM    3  N   UNL     1      -2.317   6.267 -31.181  1.00  0.00    -0.236 NA
HETATM    4  C   UNL     1      -1.408   5.476 -31.791  1.00  0.00     0.169 A 
HETATM    5  C   UNL     1      -0.074   5.410 -31.415  1.00  0.00     0.059 A 
HETATM    6  C   UNL     1       0.346   6.157 -30.313  1.00  0.00     0.023 A 
ENDROOT
BRANCH   4   7
HETATM    7  O   UNL     1      -1.785   4.713 -32.887  1.00  0.00    -0.292 OA
BRANCH   7   8
HETATM    8  C   UNL     1      -2.979   4.034 -32.799  1.00  0.00     0.078 A 
HETATM    9  C   UNL     1      -3.070   3.029 -31.834  1.00  0.00     0.040 A 
HETATM   10  C   UNL     1      -4.268   2.328 -31.663  1.00  0.00     0.040 A 
HETATM   11  C   UNL     1      -5.382   2.663 -32.436  1.00  0.00     0.076 A 
HETATM   12  C   UNL     1      -5.294   3.671 -33.397  1.00  0.00     0.040 A 
HETATM   13  C   UNL     1      -4.098   4.370 -33.568  1.00  0.00     0.040 A 
BRANCH  11  14
HETATM   14  O   UNL     1      -6.574   1.980 -32.368  1.00  0.00    -0.311 OA
BRANCH  14  15
HETATM   15  C   UNL     1      -6.783   0.935 -33.239  1.00  0.00     0.076 A 
HETATM   16  C   UNL     1      -7.353   1.084 -34.506  1.00  0.00     0.037 A 
HETATM   17  C   UNL     1      -7.479  -0.025 -35.345  1.00  0.00     0.003 A 
HETATM   18  C   UNL     1      -7.018  -1.274 -34.929  1.00  0.00     0.000 A 
HETATM   19  C   UNL     1      -6.428  -1.417 -33.673  1.00  0.00     0.003 A 
HETATM   20  C   UNL     1      -6.305  -0.312 -32.832  1.00  0.00     0.037 A 
ENDBRANCH  14  15
ENDBRANCH  11  14
ENDBRANCH   7   8
ENDBRANCH   4   7
BRANCH   1  21
HETATM   21  C   UNL     1      -0.250   7.761 -28.438  1.00  0.00     0.253 C 
HETATM   22  N   UNL     1       0.301   7.091 -27.367  1.00  0.00    -0.354 N 
HETATM   23  H   UNL     1       0.359   6.082 -27.360  1.00  0.00     0.162 HD
HETATM   24  O   UNL     1      -0.510   8.958 -28.413  1.00  0.00    -0.268 OA
BRANCH  22  25
HETATM   25  C   UNL     1       0.599   7.779 -26.117  1.00  0.00     0.154 C 
BRANCH  25  26
HETATM   26  C   UNL     1       2.065   8.233 -26.040  1.00  0.00     0.132 C 
HETATM   27  C   UNL     1       2.412   8.744 -24.651  1.00  0.00     0.041 C 
BRANCH  26  28
HETATM   28  O   UNL     1       2.282   9.298 -26.972  1.00  0.00    -0.394 OA
HETATM   29  H   UNL     1       1.929  10.098 -26.545  1.00  0.00     0.210 HD
ENDBRANCH  26  28
ENDBRANCH  25  26
ENDBRANCH  22  25
ENDBRANCH   1  21
TORSDOF 8
ENDMDL
MODEL 6
REMARK VINA RESULT:      -7.9      8.409     12.687
REMARK  8 active torsions:
REMARK  status: ('A' for Active; 'I' for Inactive)
REMARK    1  A    between atoms: C_2  and  O_3 
REMARK    2  A    between atoms: C_2  and  C_4 
REMARK    3  A    between atoms: C_4  and  N_5 
REMARK       I    between atoms: N_5  and  C_6 
REMARK    4  A    between atoms: C_6  and  C_7 
REMARK    5  A    between atoms: C_10  and  O_11 
REMARK    6  A    between atoms: O_11  and  C_12 
REMARK    7  A    between atoms: C_15  and  O_16 
REMARK    8  A    between atoms: O_16  and  C_17 
ROOT
HETATM    1  C   UNL     1       4.820   8.354 -21.756  1.00  0.00     0.049 A 
HETATM    2  C   UNL     1       5.320   9.069 -22.838  1.00  0.00     0.136 A 
HETATM    3  N   UNL     1       4.544   9.681 -23.766  1.00  0.00    -0.236 NA
HETATM    4  C   UNL     1       3.207   9.563 -23.614  1.00  0.00     0.169 A 
HETATM    5  C   UNL     1       2.612   8.827 -22.599  1.00  0.00     0.059 A 
HETATM    6  C   UNL     1       3.433   8.217 -21.649  1.00  0.00     0.023 A 
ENDROOT
BRANCH   4   7
HETATM    7  O   UNL     1       2.355  10.159 -24.534  1.00  0.00    -0.292 OA
BRANCH   7   8
HETATM    8  C   UNL     1       1.567   9.323 -25.293  1.00  0.00     0.078 A 
HETATM    9  C   UNL     1       2.219   8.338 -26.038  1.00  0.00     0.040 A 
HETATM   10  C   UNL     1       1.476   7.429 -26.797  1.00  0.00     0.040 A 
HETATM   11  C   UNL     1       0.080   7.489 -26.779  1.00  0.00     0.076 A 
HETATM   12  C   UNL     1      -0.572   8.470 -26.031  1.00  0.00     0.040 A 
HETATM   13  C   UNL     1       0.170   9.377 -25.273  1.00  0.00     0.040 A 
BRANCH  11  14
HETATM   14  O   UNL     1      -0.715   6.670 -27.547  1.00  0.00    -0.311 OA
BRANCH  14  15
HETATM   15  C   UNL     1      -0.421   6.536 -28.884  1.00  0.00     0.076 A 
HETATM   16  C   UNL     1       0.312   5.471 -29.415  1.00  0.00     0.037 A 
HETATM   17  C   UNL     1       0.517   5.388 -30.794  1.00  0.00     0.003 A 
HETATM   18  C   UNL     1      -0.025   6.354 -31.642  1.00  0.00     0.000 A 
HETATM   19  C   UNL     1      -0.775   7.405 -31.113  1.00  0.00     0.003 A 
HETATM   20  C   UNL     1      -0.978   7.491 -29.736  1.00  0.00     0.037 A 
ENDBRANCH  14  15
ENDBRANCH  11  14
ENDBRANCH   7   8
ENDBRANCH   4   7
BRANCH   1  21
HETATM   21  C   UNL     1       5.779   7.776 -20.787  1.00  0.00     0.253 C 
HETATM   22  N   UNL     1       6.713   6.893 -21.285  1.00  0.00    -0.354 N 
HETATM   23  H   UNL     1       6.660   6.566 -22.240  1.00  0.00     0.162 HD
HETATM   24  O   UNL     1       5.693   8.054 -19.596  1.00  0.00    -0.268 OA
BRANCH  22  25
HETATM   25  C   UNL     1       7.658   6.217 -20.406  1.00  0.00     0.154 C 
BRANCH  25  26
HETATM   26  C   UNL     1       8.446   5.118 -21.135  1.00  0.00     0.132 C 
HETATM   27  C   UNL     1       7.892   4.875 -22.530  1.00  0.00     0.041 C 
BRANCH  26  28
HETATM   28  O   UNL     1       8.347   3.894 -20.399  1.00  0.00    -0.394 OA
HETATM   29  H   UNL     1       8.902   4.015 -19.610  1.00  0.00     0.210 HD
ENDBRANCH  26  28
ENDBRANCH  25  26
ENDBRANCH  22  25
ENDBRANCH   1  21
TORSDOF 8
ENDMDL
MODEL 7
REMARK VINA RESULT:      -7.8      2.725      9.383
REMARK  8 active torsions:
REMARK  status: ('A' for Active; 'I' for Inactive)
REMARK    1  A    between atoms: C_2  and  O_3 
REMARK    2  A    between atoms: C_2  and  C_4 
REMARK    3  A    between atoms: C_4  and  N_5 
REMARK       I    between atoms: N_5  and  C_6 
REMARK    4  A    between atoms: C_6  and  C_7 
REMARK    5  A    between atoms: C_10  and  O_11 
REMARK    6  A    between atoms: O_11  and  C_12 
REMARK    7  A    between atoms: C_15  and  O_16 
REMARK    8  A    between atoms: O_16  and  C_17 
ROOT
HETATM    1  C   UNL     1      -4.883   0.015 -32.976  1.00  0.00     0.049 A 
HETATM    2  C   UNL     1      -5.892   0.383 -33.859  1.00  0.00     0.136 A 
HETATM    3  N   UNL     1      -6.374   1.644 -33.976  1.00  0.00    -0.236 NA
HETATM    4  C   UNL     1      -5.833   2.580 -33.165  1.00  0.00     0.169 A 
HETATM    5  C   UNL     1      -4.861   2.302 -32.215  1.00  0.00     0.059 A 
HETATM    6  C   UNL     1      -4.373   0.997 -32.123  1.00  0.00     0.023 A 
ENDROOT
BRANCH   4   7
HETATM    7  O   UNL     1      -6.288   3.890 -33.227  1.00  0.00    -0.292 OA
BRANCH   7   8
HETATM    8  C   UNL     1      -5.355   4.888 -33.057  1.00  0.00     0.078 A 
HETATM    9  C   UNL     1      -5.466   5.673 -31.907  1.00  0.00     0.040 A 
HETATM   10  C   UNL     1      -4.526   6.676 -31.651  1.00  0.00     0.040 A 
HETATM   11  C   UNL     1      -3.457   6.864 -32.531  1.00  0.00     0.076 A 
HETATM   12  C   UNL     1      -3.342   6.076 -33.676  1.00  0.00     0.040 A 
HETATM   13  C   UNL     1      -4.280   5.075 -33.932  1.00  0.00     0.040 A 
BRANCH  11  14
HETATM   14  O   UNL     1      -2.530   7.868 -32.378  1.00  0.00    -0.311 OA
BRANCH  14  15
HETATM   15  C   UNL     1      -1.555   7.720 -31.418  1.00  0.00     0.076 A 
HETATM   16  C   UNL     1      -1.670   8.210 -30.114  1.00  0.00     0.037 A 
HETATM   17  C   UNL     1      -0.652   7.968 -29.189  1.00  0.00     0.003 A 
HETATM   18  C   UNL     1       0.467   7.221 -29.559  1.00  0.00     0.000 A 
HETATM   19  C   UNL     1       0.570   6.713 -30.853  1.00  0.00     0.003 A 
HETATM   20  C   UNL     1      -0.443   6.958 -31.780  1.00  0.00     0.037 A 
ENDBRANCH  14  15
ENDBRANCH  11  14
ENDBRANCH   7   8
ENDBRANCH   4   7
BRANCH   1  21
HETATM   21  C   UNL     1      -4.414  -1.390 -32.985  1.00  0.00     0.253 C 
HETATM   22  N   UNL     1      -4.599  -2.101 -34.151  1.00  0.00    -0.354 N 
HETATM   23  H   UNL     1      -5.139  -1.717 -34.914  1.00  0.00     0.162 HD
HETATM   24  O   UNL     1      -3.930  -1.882 -31.973  1.00  0.00    -0.268 OA
BRANCH  22  25
HETATM   25  C   UNL     1      -4.236  -3.510 -34.242  1.00  0.00     0.154 C 
BRANCH  25  26
HETATM   26  C   UNL     1      -5.253  -4.320 -35.061  1.00  0.00     0.132 C 
HETATM   27  C   UNL     1      -6.678  -3.892 -34.749  1.00  0.00     0.041 C 
BRANCH  26  28
HETATM   28  O   UNL     1      -5.125  -5.708 -34.737  1.00  0.00    -0.394 OA
HETATM   29  H   UNL     1      -4.214  -5.953 -34.974  1.00  0.00     0.210 HD
ENDBRANCH  26  28
ENDBRANCH  25  26
ENDBRANCH  22  25
ENDBRANCH   1  21
TORSDOF 8
ENDMDL
MODEL 8
REMARK VINA RESULT:      -7.8      4.464      8.444
REMARK  8 active torsions:
REMARK  status: ('A' for Active; 'I' for Inactive)
REMARK    1  A    between atoms: C_2  and  O_3 
REMARK    2  A    between atoms: C_2  and  C_4 
REMARK    3  A    between atoms: C_4  and  N_5 
REMARK       I    between atoms: N_5  and  C_6 
REMARK    4  A    between atoms: C_6  and  C_7 
REMARK    5  A    between atoms: C_10  and  O_11 
REMARK    6  A    between atoms: O_11  and  C_12 
REMARK    7  A    between atoms: C_15  and  O_16 
REMARK    8  A    between atoms: O_16  and  C_17 
ROOT
HETATM    1  C   UNL     1      -5.167  -0.358 -32.265  1.00  0.00     0.049 A 
HETATM    2  C   UNL     1      -4.760   0.883 -32.741  1.00  0.00     0.136 A 
HETATM    3  N   UNL     1      -5.336   2.057 -32.386  1.00  0.00    -0.236 NA
HETATM    4  C   UNL     1      -6.374   1.989 -31.525  1.00  0.00     0.169 A 
HETATM    5  C   UNL     1      -6.889   0.797 -31.036  1.00  0.00     0.059 A 
HETATM    6  C   UNL     1      -6.270  -0.398 -31.408  1.00  0.00     0.023 A 
ENDROOT
BRANCH   4   7
HETATM    7  O   UNL     1      -7.015   3.154 -31.126  1.00  0.00    -0.292 OA
BRANCH   7   8
HETATM    8  C   UNL     1      -8.278   3.380 -31.626  1.00  0.00     0.078 A 
HETATM    9  C   UNL     1      -8.386   3.614 -32.998  1.00  0.00     0.040 A 
HETATM   10  C   UNL     1      -9.643   3.809 -33.578  1.00  0.00     0.040 A 
HETATM   11  C   UNL     1     -10.791   3.731 -32.785  1.00  0.00     0.076 A 
HETATM   12  C   UNL     1     -10.684   3.491 -31.415  1.00  0.00     0.040 A 
HETATM   13  C   UNL     1      -9.429   3.297 -30.836  1.00  0.00     0.040 A 
BRANCH  11  14
HETATM   14  O   UNL     1     -12.055   3.971 -33.272  1.00  0.00    -0.311 OA
BRANCH  14  15
HETATM   15  C   UNL     1     -12.934   2.916 -33.364  1.00  0.00     0.076 A 
HETATM   16  C   UNL     1     -14.104   2.814 -32.606  1.00  0.00     0.037 A 
HETATM   17  C   UNL     1     -14.966   1.733 -32.803  1.00  0.00     0.003 A 
HETATM   18  C   UNL     1     -14.671   0.769 -33.767  1.00  0.00     0.000 A 
HETATM   19  C   UNL     1     -13.514   0.884 -34.538  1.00  0.00     0.003 A 
HETATM   20  C   UNL     1     -12.650   1.960 -34.340  1.00  0.00     0.037 A 
ENDBRANCH  14  15
ENDBRANCH  11  14
ENDBRANCH   7   8
ENDBRANCH   4   7
BRANCH   1  21
HETATM   21  C   UNL     1      -4.418  -1.561 -32.697  1.00  0.00     0.253 C 
HETATM   22  N   UNL     1      -4.883  -2.217 -33.816  1.00  0.00    -0.354 N 
HETATM   23  H   UNL     1      -5.762  -1.957 -34.243  1.00  0.00     0.162 HD
HETATM   24  O   UNL     1      -3.461  -1.957 -32.041  1.00  0.00    -0.268 OA
BRANCH  22  25
HETATM   25  C   UNL     1      -4.259  -3.448 -34.285  1.00  0.00     0.154 C 
BRANCH  25  26
HETATM   26  C   UNL     1      -5.244  -4.342 -35.053  1.00  0.00     0.132 C 
HETATM   27  C   UNL     1      -6.685  -3.981 -34.729  1.00  0.00     0.041 C 
BRANCH  26  28
HETATM   28  O   UNL     1      -5.035  -5.708 -34.680  1.00  0.00    -0.394 OA
HETATM   29  H   UNL     1      -5.899  -6.034 -34.373  1.00  0.00     0.210 HD
ENDBRANCH  26  28
ENDBRANCH  25  26
ENDBRANCH  22  25
ENDBRANCH   1  21
TORSDOF 8
ENDMDL
MODEL 9
REMARK VINA RESULT:      -7.7      1.772      2.401
REMARK  8 active torsions:
REMARK  status: ('A' for Active; 'I' for Inactive)
REMARK    1  A    between atoms: C_2  and  O_3 
REMARK    2  A    between atoms: C_2  and  C_4 
REMARK    3  A    between atoms: C_4  and  N_5 
REMARK       I    between atoms: N_5  and  C_6 
REMARK    4  A    between atoms: C_6  and  C_7 
REMARK    5  A    between atoms: C_10  and  O_11 
REMARK    6  A    between atoms: O_11  and  C_12 
REMARK    7  A    between atoms: C_15  and  O_16 
REMARK    8  A    between atoms: O_16  and  C_17 
ROOT
HETATM    1  C   UNL     1      -4.948   5.455 -29.921  1.00  0.00     0.049 A 
HETATM    2  C   UNL     1      -4.668   4.548 -30.936  1.00  0.00     0.136 A 
HETATM    3  N   UNL     1      -5.469   3.504 -31.262  1.00  0.00    -0.236 NA
HETATM    4  C   UNL     1      -6.595   3.351 -30.532  1.00  0.00     0.169 A 
HETATM    5  C   UNL     1      -6.935   4.170 -29.465  1.00  0.00     0.059 A 
HETATM    6  C   UNL     1      -6.099   5.246 -29.158  1.00  0.00     0.023 A 
ENDROOT
BRANCH   4   7
HETATM    7  O   UNL     1      -7.456   2.297 -30.807  1.00  0.00    -0.292 OA
BRANCH   7   8
HETATM    8  C   UNL     1      -7.134   1.486 -31.872  1.00  0.00     0.078 A 
HETATM    9  C   UNL     1      -6.562   0.247 -31.577  1.00  0.00     0.040 A 
HETATM   10  C   UNL     1      -6.250  -0.644 -32.609  1.00  0.00     0.040 A 
HETATM   11  C   UNL     1      -6.546  -0.302 -33.931  1.00  0.00     0.076 A 
HETATM   12  C   UNL     1      -7.124   0.934 -34.226  1.00  0.00     0.040 A 
HETATM   13  C   UNL     1      -7.434   1.822 -33.196  1.00  0.00     0.040 A 
BRANCH  11  14
HETATM   14  O   UNL     1      -6.214  -1.098 -35.003  1.00  0.00    -0.311 OA
BRANCH  14  15
HETATM   15  C   UNL     1      -5.863  -2.407 -34.764  1.00  0.00     0.076 A 
HETATM   16  C   UNL     1      -6.726  -3.489 -34.958  1.00  0.00     0.037 A 
HETATM   17  C   UNL     1      -6.267  -4.791 -34.741  1.00  0.00     0.003 A 
HETATM   18  C   UNL     1      -4.946  -5.011 -34.351  1.00  0.00     0.000 A 
HETATM   19  C   UNL     1      -4.079  -3.931 -34.179  1.00  0.00     0.003 A 
HETATM   20  C   UNL     1      -4.537  -2.631 -34.392  1.00  0.00     0.037 A 
ENDBRANCH  14  15
ENDBRANCH  11  14
ENDBRANCH   7   8
ENDBRANCH   4   7
BRANCH   1  21
HETATM   21  C   UNL     1      -4.011   6.581 -29.702  1.00  0.00     0.253 C 
HETATM   22  N   UNL     1      -2.665   6.302 -29.802  1.00  0.00    -0.354 N 
HETATM   23  H   UNL     1      -2.339   5.350 -29.898  1.00  0.00     0.162 HD
HETATM   24  O   UNL     1      -4.441   7.689 -29.401  1.00  0.00    -0.268 OA
BRANCH  22  25
HETATM   25  C   UNL     1      -1.659   7.323 -29.538  1.00  0.00     0.154 C 
BRANCH  25  26
HETATM   26  C   UNL     1      -0.583   6.837 -28.555  1.00  0.00     0.132 C 
HETATM   27  C   UNL     1       0.680   7.675 -28.661  1.00  0.00     0.041 C 
BRANCH  26  28
HETATM   28  O   UNL     1      -0.242   5.480 -28.856  1.00  0.00    -0.394 OA
HETATM   29  H   UNL     1      -1.078   5.043 -29.095  1.00  0.00     0.210 HD
ENDBRANCH  26  28
ENDBRANCH  25  26
ENDBRANCH  22  25
ENDBRANCH   1  21
TORSDOF 8
ENDMDL
MODEL 10
REMARK VINA RESULT:      -7.7      3.846      9.936
REMARK  8 active torsions:
REMARK  status: ('A' for Active; 'I' for Inactive)
REMARK    1  A    between atoms: C_2  and  O_3 
REMARK    2  A    between atoms: C_2  and  C_4 
REMARK    3  A    between atoms: C_4  and  N_5 
REMARK       I    between atoms: N_5  and  C_6 
REMARK    4  A    between atoms: C_6  and  C_7 
REMARK    5  A    between atoms: C_10  and  O_11 
REMARK    6  A    between atoms: O_11  and  C_12 
REMARK    7  A    between atoms: C_15  and  O_16 
REMARK    8  A    between atoms: O_16  and  C_17 
ROOT
HETATM    1  C   UNL     1      -6.765   4.071 -32.870  1.00  0.00     0.049 A 
HETATM    2  C   UNL     1      -6.179   3.841 -34.109  1.00  0.00     0.136 A 
HETATM    3  N   UNL     1      -5.114   4.533 -34.582  1.00  0.00    -0.236 NA
HETATM    4  C   UNL     1      -4.619   5.507 -33.788  1.00  0.00     0.169 A 
HETATM    5  C   UNL     1      -5.167   5.848 -32.560  1.00  0.00     0.059 A 
HETATM    6  C   UNL     1      -6.256   5.112 -32.089  1.00  0.00     0.023 A 
ENDROOT
BRANCH   4   7
HETATM    7  O   UNL     1      -3.534   6.260 -34.217  1.00  0.00    -0.292 OA
BRANCH   7   8
HETATM    8  C   UNL     1      -2.451   6.340 -33.371  1.00  0.00     0.078 A 
HETATM    9  C   UNL     1      -2.187   7.582 -32.791  1.00  0.00     0.040 A 
HETATM   10  C   UNL     1      -1.128   7.723 -31.889  1.00  0.00     0.040 A 
HETATM   11  C   UNL     1      -0.359   6.609 -31.545  1.00  0.00     0.076 A 
HETATM   12  C   UNL     1      -0.625   5.366 -32.119  1.00  0.00     0.040 A 
HETATM   13  C   UNL     1      -1.682   5.225 -33.020  1.00  0.00     0.040 A 
BRANCH  11  14
HETATM   14  O   UNL     1       0.735   6.682 -30.714  1.00  0.00    -0.311 OA
BRANCH  14  15
HETATM   15  C   UNL     1       0.525   6.888 -29.369  1.00  0.00     0.076 A 
HETATM   16  C   UNL     1      -0.126   5.973 -28.536  1.00  0.00     0.037 A 
HETATM   17  C   UNL     1      -0.247   6.242 -27.171  1.00  0.00     0.003 A 
HETATM   18  C   UNL     1       0.296   7.411 -26.637  1.00  0.00     0.000 A 
HETATM   19  C   UNL     1       0.965   8.312 -27.465  1.00  0.00     0.003 A 
HETATM   20  C   UNL     1       1.084   8.047 -28.829  1.00  0.00     0.037 A 
ENDBRANCH  14  15
ENDBRANCH  11  14
ENDBRANCH   7   8
ENDBRANCH   4   7
BRANCH   1  21
HETATM   21  C   UNL     1      -7.895   3.208 -32.453  1.00  0.00     0.253 C 
HETATM   22  N   UNL     1      -9.036   3.260 -33.222  1.00  0.00    -0.354 N 
HETATM   23  H   UNL     1      -9.135   3.946 -33.958  1.00  0.00     0.162 HD
HETATM   24  O   UNL     1      -7.804   2.525 -31.439  1.00  0.00    -0.268 OA
BRANCH  22  25
HETATM   25  C   UNL     1     -10.228   2.503 -32.860  1.00  0.00     0.154 C 
BRANCH  25  26
HETATM   26  C   UNL     1     -10.389   1.233 -33.709  1.00  0.00     0.132 C 
HETATM   27  C   UNL     1     -10.042  -0.013 -32.911  1.00  0.00     0.041 C 
BRANCH  26  28
HETATM   28  O   UNL     1      -9.508   1.300 -34.835  1.00  0.00    -0.394 OA
HETATM   29  H   UNL     1      -9.207   0.388 -34.990  1.00  0.00     0.210 HD
ENDBRANCH  26  28
ENDBRANCH  25  26
ENDBRANCH  22  25
ENDBRANCH   1  21
TORSDOF 8
ENDMDL
