MODEL 1
REMARK VINA RESULT:      -9.3      0.000      0.000
REMARK  10 active torsions:
REMARK  status: ('A' for Active; 'I' for Inactive)
REMARK    1  A    between atoms: C_6  and  C_7 
REMARK    2  A    between atoms: C_7  and  N_8 
REMARK    3  A    between atoms: N_8  and  C_10 
REMARK    4  A    between atoms: N_8  and  C_20 
REMARK    5  A    between atoms: C_10  and  C_11 
REMARK    6  A    between atoms: N_12  and  C_13 
REMARK    7  A    between atoms: C_20  and  C_21 
REMARK    8  A    between atoms: C_21  and  C_22 
REMARK    9  A    between atoms: C_22  and  N_23 
REMARK   10  A    between atoms: C_30  and  O_31 
ROOT
HETATM    1  N   UNL     1      -6.888   1.882 -32.521  1.00  0.00    -0.060 N 
HETATM    2  H   UNL     1      -6.721   1.174 -31.791  1.00  0.00     0.280 HD
ENDROOT
BRANCH   1   3
HETATM    3  C   UNL     1      -6.011   1.411 -33.691  1.00  0.00     0.278 C 
BRANCH   3   4
HETATM    4  C   UNL     1      -5.678  -0.043 -33.774  1.00  0.00     0.021 A 
HETATM    5  C   UNL     1      -6.560  -0.967 -34.338  1.00  0.00     0.027 A 
HETATM    6  C   UNL     1      -6.197  -2.320 -34.455  1.00  0.00    -0.006 A 
HETATM    7  C   UNL     1      -4.925  -2.723 -33.986  1.00  0.00     0.075 A 
HETATM    8  C   UNL     1      -7.071  -3.251 -35.040  1.00  0.00     0.014 A 
HETATM    9  C   UNL     1      -4.566  -4.070 -34.114  1.00  0.00    -0.032 A 
HETATM   10  N   UNL     1      -4.079  -1.826 -33.438  1.00  0.00    -0.223 NA
HETATM   11  C   UNL     1      -3.208  -4.563 -33.687  1.00  0.00     0.050 C 
HETATM   12  C   UNL     1      -5.445  -4.989 -34.712  1.00  0.00     0.009 A 
HETATM   13  C   UNL     1      -6.692  -4.582 -35.169  1.00  0.00     0.002 A 
HETATM   14  C   UNL     1      -4.463  -0.551 -33.364  1.00  0.00     0.170 A 
BRANCH  14  15
HETATM   15  O   UNL     1      -3.505   0.242 -32.827  1.00  0.00    -0.344 OA
HETATM   16  H   UNL     1      -2.761  -0.402 -32.848  1.00  0.00     0.219 HD
ENDBRANCH  14  15
ENDBRANCH   3   4
ENDBRANCH   1   3
BRANCH   1  17
HETATM   17  C   UNL     1      -6.322   3.161 -31.848  1.00  0.00     0.316 C 
BRANCH  17  18
HETATM   18  C   UNL     1      -4.847   3.085 -31.751  1.00  0.00     0.163 A 
HETATM   19  N   UNL     1      -3.890   3.833 -32.400  1.00  0.00    -0.253 N 
HETATM   20  N   UNL     1      -2.682   3.349 -32.040  1.00  0.00    -0.002 NA
HETATM   21  N   UNL     1      -2.903   2.401 -31.147  1.00  0.00     0.018 NA
HETATM   22  N   UNL     1      -4.238   2.235 -30.943  1.00  0.00    -0.145 NA
BRANCH  19  23
HETATM   23  C   UNL     1      -3.933   4.967 -33.335  1.00  0.00     0.042 C 
HETATM   24  C   UNL     1      -4.865   4.748 -34.543  1.00  0.00     0.039 C 
HETATM   25  C   UNL     1      -4.447   6.225 -32.595  1.00  0.00     0.039 C 
HETATM   26  C   UNL     1      -2.515   5.239 -33.870  1.00  0.00     0.039 C 
ENDBRANCH  19  23
ENDBRANCH  17  18
ENDBRANCH   1  17
BRANCH   1  27
HETATM   27  C   UNL     1      -8.366   2.005 -32.793  1.00  0.00     0.237 C 
BRANCH  27  28
HETATM   28  C   UNL     1      -9.247   0.941 -32.114  1.00  0.00     0.055 C 
BRANCH  28  29
HETATM   29  C   UNL     1     -10.082   0.087 -33.071  1.00  0.00     0.236 C 
BRANCH  29  30
HETATM   30  N   UNL     1     -11.437   0.722 -33.316  1.00  0.00    -0.067 N 
HETATM   31  H   UNL     1     -11.686   1.330 -32.523  1.00  0.00     0.280 HD
HETATM   32  C   UNL     1     -11.421   1.639 -34.556  1.00  0.00     0.261 C 
HETATM   33  C   UNL     1     -12.801   2.278 -34.746  1.00  0.00     0.195 C 
HETATM   34  O   UNL     1     -13.806   1.272 -34.885  1.00  0.00    -0.388 OA
HETATM   35  C   UNL     1     -13.904   0.446 -33.723  1.00  0.00     0.195 C 
HETATM   36  C   UNL     1     -12.584  -0.294 -33.473  1.00  0.00     0.261 C 
ENDBRANCH  29  30
ENDBRANCH  28  29
ENDBRANCH  27  28
ENDBRANCH   1  27
TORSDOF 10
ENDMDL
MODEL 2
REMARK VINA RESULT:      -8.9      2.289      6.205
REMARK  10 active torsions:
REMARK  status: ('A' for Active; 'I' for Inactive)
REMARK    1  A    between atoms: C_6  and  C_7 
REMARK    2  A    between atoms: C_7  and  N_8 
REMARK    3  A    between atoms: N_8  and  C_10 
REMARK    4  A    between atoms: N_8  and  C_20 
REMARK    5  A    between atoms: C_10  and  C_11 
REMARK    6  A    between atoms: N_12  and  C_13 
REMARK    7  A    between atoms: C_20  and  C_21 
REMARK    8  A    between atoms: C_21  and  C_22 
REMARK    9  A    between atoms: C_22  and  N_23 
REMARK   10  A    between atoms: C_30  and  O_31 
ROOT
HETATM    1  N   UNL     1      -6.048   2.040 -31.984  1.00  0.00    -0.060 N 
HETATM    2  H   UNL     1      -6.507   2.935 -32.203  1.00  0.00     0.280 HD
ENDROOT
BRANCH   1   3
HETATM    3  C   UNL     1      -5.617   1.507 -33.359  1.00  0.00     0.278 C 
BRANCH   3   4
HETATM    4  C   UNL     1      -5.403   0.035 -33.502  1.00  0.00     0.021 A 
HETATM    5  C   UNL     1      -6.338  -0.783 -34.140  1.00  0.00     0.027 A 
HETATM    6  C   UNL     1      -6.086  -2.155 -34.312  1.00  0.00    -0.006 A 
HETATM    7  C   UNL     1      -4.870  -2.686 -33.822  1.00  0.00     0.075 A 
HETATM    8  C   UNL     1      -7.011  -2.980 -34.971  1.00  0.00     0.014 A 
HETATM    9  C   UNL     1      -4.620  -4.052 -34.004  1.00  0.00    -0.032 A 
HETATM   10  N   UNL     1      -3.972  -1.892 -33.203  1.00  0.00    -0.223 NA
HETATM   11  C   UNL     1      -3.324  -4.678 -33.557  1.00  0.00     0.050 C 
HETATM   12  C   UNL     1      -5.550  -4.864 -34.676  1.00  0.00     0.009 A 
HETATM   13  C   UNL     1      -6.741  -4.331 -35.153  1.00  0.00     0.002 A 
HETATM   14  C   UNL     1      -4.251  -0.593 -33.078  1.00  0.00     0.170 A 
BRANCH  14  15
HETATM   15  O   UNL     1      -3.250   0.089 -32.471  1.00  0.00    -0.344 OA
HETATM   16  H   UNL     1      -3.118   0.784 -33.154  1.00  0.00     0.219 HD
ENDBRANCH  14  15
ENDBRANCH   3   4
ENDBRANCH   1   3
BRANCH   1  17
HETATM   17  C   UNL     1      -7.227   1.224 -31.387  1.00  0.00     0.316 C 
BRANCH  17  18
HETATM   18  C   UNL     1      -8.443   2.061 -31.300  1.00  0.00     0.163 A 
HETATM   19  N   UNL     1      -9.600   2.001 -32.045  1.00  0.00    -0.253 N 
HETATM   20  N   UNL     1     -10.396   3.016 -31.645  1.00  0.00    -0.002 NA
HETATM   21  N   UNL     1      -9.776   3.612 -30.642  1.00  0.00     0.018 NA
HETATM   22  N   UNL     1      -8.572   3.025 -30.404  1.00  0.00    -0.145 NA
BRANCH  19  23
HETATM   23  C   UNL     1     -10.091   1.111 -33.109  1.00  0.00     0.042 C 
HETATM   24  C   UNL     1     -10.106  -0.380 -32.721  1.00  0.00     0.039 C 
HETATM   25  C   UNL     1     -11.545   1.495 -33.471  1.00  0.00     0.039 C 
HETATM   26  C   UNL     1      -9.199   1.271 -34.355  1.00  0.00     0.039 C 
ENDBRANCH  19  23
ENDBRANCH  17  18
ENDBRANCH   1  17
BRANCH   1  27
HETATM   27  C   UNL     1      -4.952   2.255 -30.971  1.00  0.00     0.237 C 
BRANCH  27  28
HETATM   28  C   UNL     1      -4.214   3.602 -31.082  1.00  0.00     0.055 C 
BRANCH  28  29
HETATM   29  C   UNL     1      -2.768   3.507 -31.573  1.00  0.00     0.236 C 
BRANCH  29  30
HETATM   30  N   UNL     1      -2.640   4.057 -32.981  1.00  0.00    -0.067 N 
HETATM   31  H   UNL     1      -2.440   3.289 -33.638  1.00  0.00     0.280 HD
HETATM   32  C   UNL     1      -3.959   4.691 -33.468  1.00  0.00     0.261 C 
HETATM   33  C   UNL     1      -3.788   5.205 -34.901  1.00  0.00     0.195 C 
HETATM   34  O   UNL     1      -2.725   6.156 -34.971  1.00  0.00    -0.388 OA
HETATM   35  C   UNL     1      -1.469   5.585 -34.599  1.00  0.00     0.195 C 
HETATM   36  C   UNL     1      -1.509   5.089 -33.148  1.00  0.00     0.261 C 
ENDBRANCH  29  30
ENDBRANCH  28  29
ENDBRANCH  27  28
ENDBRANCH   1  27
TORSDOF 10
ENDMDL
MODEL 3
REMARK VINA RESULT:      -8.7      2.167      6.802
REMARK  10 active torsions:
REMARK  status: ('A' for Active; 'I' for Inactive)
REMARK    1  A    between atoms: C_6  and  C_7 
REMARK    2  A    between atoms: C_7  and  N_8 
REMARK    3  A    between atoms: N_8  and  C_10 
REMARK    4  A    between atoms: N_8  and  C_20 
REMARK    5  A    between atoms: C_10  and  C_11 
REMARK    6  A    between atoms: N_12  and  C_13 
REMARK    7  A    between atoms: C_20  and  C_21 
REMARK    8  A    between atoms: C_21  and  C_22 
REMARK    9  A    between atoms: C_22  and  N_23 
REMARK   10  A    between atoms: C_30  and  O_31 
ROOT
HETATM    1  N   UNL     1      -6.918   2.368 -33.365  1.00  0.00    -0.060 N 
HETATM    2  H   UNL     1      -7.360   1.744 -34.055  1.00  0.00     0.280 HD
ENDROOT
BRANCH   1   3
HETATM    3  C   UNL     1      -5.617   1.637 -32.996  1.00  0.00     0.278 C 
BRANCH   3   4
HETATM    4  C   UNL     1      -5.464   0.218 -33.437  1.00  0.00     0.021 A 
HETATM    5  C   UNL     1      -4.532  -0.638 -32.845  1.00  0.00     0.027 A 
HETATM    6  C   UNL     1      -4.448  -1.984 -33.239  1.00  0.00    -0.006 A 
HETATM    7  C   UNL     1      -5.323  -2.450 -34.247  1.00  0.00     0.075 A 
HETATM    8  C   UNL     1      -3.528  -2.855 -32.634  1.00  0.00     0.014 A 
HETATM    9  C   UNL     1      -5.241  -3.795 -34.629  1.00  0.00    -0.032 A 
HETATM   10  N   UNL     1      -6.219  -1.618 -34.819  1.00  0.00    -0.223 NA
HETATM   11  C   UNL     1      -6.176  -4.375 -35.658  1.00  0.00     0.050 C 
HETATM   12  C   UNL     1      -4.323  -4.658 -34.008  1.00  0.00     0.009 A 
HETATM   13  C   UNL     1      -3.468  -4.189 -33.018  1.00  0.00     0.002 A 
HETATM   14  C   UNL     1      -6.270  -0.353 -34.399  1.00  0.00     0.170 A 
BRANCH  14  15
HETATM   15  O   UNL     1      -7.236   0.356 -35.031  1.00  0.00    -0.344 OA
HETATM   16  H   UNL     1      -6.757   1.212 -35.106  1.00  0.00     0.219 HD
ENDBRANCH  14  15
ENDBRANCH   3   4
ENDBRANCH   1   3
BRANCH   1  17
HETATM   17  C   UNL     1      -7.952   2.334 -32.207  1.00  0.00     0.316 C 
BRANCH  17  18
HETATM   18  C   UNL     1      -9.089   1.453 -32.554  1.00  0.00     0.163 A 
HETATM   19  N   UNL     1     -10.329   1.784 -33.054  1.00  0.00    -0.253 N 
HETATM   20  N   UNL     1     -11.050   0.646 -33.142  1.00  0.00    -0.002 NA
HETATM   21  N   UNL     1     -10.247  -0.340 -32.787  1.00  0.00     0.018 NA
HETATM   22  N   UNL     1      -9.023   0.138 -32.435  1.00  0.00    -0.145 NA
BRANCH  19  23
HETATM   23  C   UNL     1     -10.963   3.043 -33.474  1.00  0.00     0.042 C 
HETATM   24  C   UNL     1     -10.243   3.750 -34.637  1.00  0.00     0.039 C 
HETATM   25  C   UNL     1     -12.408   2.759 -33.947  1.00  0.00     0.039 C 
HETATM   26  C   UNL     1     -11.005   4.014 -32.278  1.00  0.00     0.039 C 
ENDBRANCH  19  23
ENDBRANCH  17  18
ENDBRANCH   1  17
BRANCH   1  27
HETATM   27  C   UNL     1      -6.772   3.754 -33.939  1.00  0.00     0.237 C 
BRANCH  27  28
HETATM   28  C   UNL     1      -5.321   4.214 -34.176  1.00  0.00     0.055 C 
BRANCH  28  29
HETATM   29  C   UNL     1      -4.857   5.370 -33.289  1.00  0.00     0.236 C 
BRANCH  29  30
HETATM   30  N   UNL     1      -3.353   5.546 -33.374  1.00  0.00    -0.067 N 
HETATM   31  H   UNL     1      -2.886   4.839 -32.788  1.00  0.00     0.280 HD
HETATM   32  C   UNL     1      -2.833   5.310 -34.806  1.00  0.00     0.261 C 
HETATM   33  C   UNL     1      -1.309   5.470 -34.836  1.00  0.00     0.195 C 
HETATM   34  O   UNL     1      -0.930   6.769 -34.377  1.00  0.00    -0.388 OA
HETATM   35  C   UNL     1      -1.330   6.998 -33.025  1.00  0.00     0.195 C 
HETATM   36  C   UNL     1      -2.856   6.921 -32.891  1.00  0.00     0.261 C 
ENDBRANCH  29  30
ENDBRANCH  28  29
ENDBRANCH  27  28
ENDBRANCH   1  27
TORSDOF 10
ENDMDL
MODEL 4
REMARK VINA RESULT:      -8.7      2.356      6.237
REMARK  10 active torsions:
REMARK  status: ('A' for Active; 'I' for Inactive)
REMARK    1  A    between atoms: C_6  and  C_7 
REMARK    2  A    between atoms: C_7  and  N_8 
REMARK    3  A    between atoms: N_8  and  C_10 
REMARK    4  A    between atoms: N_8  and  C_20 
REMARK    5  A    between atoms: C_10  and  C_11 
REMARK    6  A    between atoms: N_12  and  C_13 
REMARK    7  A    between atoms: C_20  and  C_21 
REMARK    8  A    between atoms: C_21  and  C_22 
REMARK    9  A    between atoms: C_22  and  N_23 
REMARK   10  A    between atoms: C_30  and  O_31 
ROOT
HETATM    1  N   UNL     1      -6.512   1.815 -32.096  1.00  0.00    -0.060 N 
HETATM    2  H   UNL     1      -7.022   2.704 -32.196  1.00  0.00     0.280 HD
ENDROOT
BRANCH   1   3
HETATM    3  C   UNL     1      -6.124   1.456 -33.539  1.00  0.00     0.278 C 
BRANCH   3   4
HETATM    4  C   UNL     1      -5.882   0.017 -33.860  1.00  0.00     0.021 A 
HETATM    5  C   UNL     1      -4.846  -0.704 -33.262  1.00  0.00     0.027 A 
HETATM    6  C   UNL     1      -4.676  -2.071 -33.539  1.00  0.00    -0.006 A 
HETATM    7  C   UNL     1      -5.572  -2.697 -34.437  1.00  0.00     0.075 A 
HETATM    8  C   UNL     1      -3.650  -2.808 -32.926  1.00  0.00     0.014 A 
HETATM    9  C   UNL     1      -5.403  -4.062 -34.702  1.00  0.00    -0.032 A 
HETATM   10  N   UNL     1      -6.569  -1.995 -35.015  1.00  0.00    -0.223 NA
HETATM   11  C   UNL     1      -6.351  -4.808 -35.605  1.00  0.00     0.050 C 
HETATM   12  C   UNL     1      -4.379  -4.789 -34.072  1.00  0.00     0.009 A 
HETATM   13  C   UNL     1      -3.504  -4.164 -33.192  1.00  0.00     0.002 A 
HETATM   14  C   UNL     1      -6.698  -0.703 -34.707  1.00  0.00     0.170 A 
BRANCH  14  15
HETATM   15  O   UNL     1      -7.758  -0.133 -35.330  1.00  0.00    -0.344 OA
HETATM   16  H   UNL     1      -8.474  -0.629 -34.873  1.00  0.00     0.219 HD
ENDBRANCH  14  15
ENDBRANCH   3   4
ENDBRANCH   1   3
BRANCH   1  17
HETATM   17  C   UNL     1      -7.621   0.881 -31.543  1.00  0.00     0.316 C 
BRANCH  17  18
HETATM   18  C   UNL     1      -8.906   1.139 -32.230  1.00  0.00     0.163 A 
HETATM   19  N   UNL     1      -9.644   2.300 -32.295  1.00  0.00    -0.253 N 
HETATM   20  N   UNL     1     -10.776   2.026 -32.977  1.00  0.00    -0.002 NA
HETATM   21  N   UNL     1     -10.684   0.770 -33.375  1.00  0.00     0.018 NA
HETATM   22  N   UNL     1      -9.526   0.209 -32.936  1.00  0.00    -0.145 NA
BRANCH  19  23
HETATM   23  C   UNL     1      -9.444   3.671 -31.801  1.00  0.00     0.042 C 
HETATM   24  C   UNL     1      -8.326   4.443 -32.526  1.00  0.00     0.039 C 
HETATM   25  C   UNL     1     -10.747   4.483 -31.995  1.00  0.00     0.039 C 
HETATM   26  C   UNL     1      -9.096   3.625 -30.301  1.00  0.00     0.039 C 
ENDBRANCH  19  23
ENDBRANCH  17  18
ENDBRANCH   1  17
BRANCH   1  27
HETATM   27  C   UNL     1      -5.379   1.975 -31.115  1.00  0.00     0.237 C 
BRANCH  27  28
HETATM   28  C   UNL     1      -4.536   3.252 -31.292  1.00  0.00     0.055 C 
BRANCH  28  29
HETATM   29  C   UNL     1      -3.119   3.022 -31.819  1.00  0.00     0.236 C 
BRANCH  29  30
HETATM   30  N   UNL     1      -2.871   3.839 -33.073  1.00  0.00    -0.067 N 
HETATM   31  H   UNL     1      -2.565   3.220 -33.837  1.00  0.00     0.280 HD
HETATM   32  C   UNL     1      -4.161   4.517 -33.575  1.00  0.00     0.261 C 
HETATM   33  C   UNL     1      -3.868   5.306 -34.856  1.00  0.00     0.195 C 
HETATM   34  O   UNL     1      -2.851   6.283 -34.623  1.00  0.00    -0.388 OA
HETATM   35  C   UNL     1      -1.615   5.687 -34.227  1.00  0.00     0.195 C 
HETATM   36  C   UNL     1      -1.782   4.916 -32.911  1.00  0.00     0.261 C 
ENDBRANCH  29  30
ENDBRANCH  28  29
ENDBRANCH  27  28
ENDBRANCH   1  27
TORSDOF 10
ENDMDL
MODEL 5
REMARK VINA RESULT:      -8.4      1.847      2.640
REMARK  10 active torsions:
REMARK  status: ('A' for Active; 'I' for Inactive)
REMARK    1  A    between atoms: C_6  and  C_7 
REMARK    2  A    between atoms: C_7  and  N_8 
REMARK    3  A    between atoms: N_8  and  C_10 
REMARK    4  A    between atoms: N_8  and  C_20 
REMARK    5  A    between atoms: C_10  and  C_11 
REMARK    6  A    between atoms: N_12  and  C_13 
REMARK    7  A    between atoms: C_20  and  C_21 
REMARK    8  A    between atoms: C_21  and  C_22 
REMARK    9  A    between atoms: C_22  and  N_23 
REMARK   10  A    between atoms: C_30  and  O_31 
ROOT
HETATM    1  N   UNL     1      -6.332   2.432 -32.399  1.00  0.00    -0.060 N 
HETATM    2  H   UNL     1      -5.411   2.138 -32.045  1.00  0.00     0.280 HD
ENDROOT
BRANCH   1   3
HETATM    3  C   UNL     1      -6.346   1.918 -33.846  1.00  0.00     0.278 C 
BRANCH   3   4
HETATM    4  C   UNL     1      -6.100   0.461 -34.073  1.00  0.00     0.021 A 
HETATM    5  C   UNL     1      -5.037  -0.207 -33.462  1.00  0.00     0.027 A 
HETATM    6  C   UNL     1      -4.862  -1.589 -33.647  1.00  0.00    -0.006 A 
HETATM    7  C   UNL     1      -5.782  -2.284 -34.466  1.00  0.00     0.075 A 
HETATM    8  C   UNL     1      -3.808  -2.272 -33.019  1.00  0.00     0.014 A 
HETATM    9  C   UNL     1      -5.608  -3.663 -34.639  1.00  0.00    -0.032 A 
HETATM   10  N   UNL     1      -6.805  -1.632 -35.057  1.00  0.00    -0.223 NA
HETATM   11  C   UNL     1      -6.579  -4.478 -35.454  1.00  0.00     0.050 C 
HETATM   12  C   UNL     1      -4.556  -4.336 -33.996  1.00  0.00     0.009 A 
HETATM   13  C   UNL     1      -3.658  -3.642 -33.193  1.00  0.00     0.002 A 
HETATM   14  C   UNL     1      -6.937  -0.323 -34.838  1.00  0.00     0.170 A 
BRANCH  14  15
HETATM   15  O   UNL     1      -8.023   0.193 -35.462  1.00  0.00    -0.344 OA
HETATM   16  H   UNL     1      -7.556   0.766 -36.110  1.00  0.00     0.219 HD
ENDBRANCH  14  15
ENDBRANCH   3   4
ENDBRANCH   1   3
BRANCH   1  17
HETATM   17  C   UNL     1      -6.212   3.979 -32.332  1.00  0.00     0.316 C 
BRANCH  17  18
HETATM   18  C   UNL     1      -5.221   4.463 -33.318  1.00  0.00     0.163 A 
HETATM   19  N   UNL     1      -3.874   4.703 -33.156  1.00  0.00    -0.253 N 
HETATM   20  N   UNL     1      -3.406   5.203 -34.319  1.00  0.00    -0.002 NA
HETATM   21  N   UNL     1      -4.415   5.188 -35.171  1.00  0.00     0.018 NA
HETATM   22  N   UNL     1      -5.543   4.718 -34.574  1.00  0.00    -0.145 NA
BRANCH  19  23
HETATM   23  C   UNL     1      -2.927   4.529 -32.043  1.00  0.00     0.042 C 
HETATM   24  C   UNL     1      -3.214   5.434 -30.830  1.00  0.00     0.039 C 
HETATM   25  C   UNL     1      -2.989   3.068 -31.538  1.00  0.00     0.039 C 
HETATM   26  C   UNL     1      -1.501   4.834 -32.538  1.00  0.00     0.039 C 
ENDBRANCH  19  23
ENDBRANCH  17  18
ENDBRANCH   1  17
BRANCH   1  27
HETATM   27  C   UNL     1      -7.422   1.920 -31.492  1.00  0.00     0.237 C 
BRANCH  27  28
HETATM   28  C   UNL     1      -8.852   2.328 -31.893  1.00  0.00     0.055 C 
BRANCH  28  29
HETATM   29  C   UNL     1      -9.697   1.208 -32.501  1.00  0.00     0.236 C 
BRANCH  29  30
HETATM   30  N   UNL     1     -11.135   1.654 -32.681  1.00  0.00    -0.067 N 
HETATM   31  H   UNL     1     -11.706   1.320 -31.891  1.00  0.00     0.280 HD
HETATM   32  C   UNL     1     -11.260   3.191 -32.666  1.00  0.00     0.261 C 
HETATM   33  C   UNL     1     -12.731   3.592 -32.823  1.00  0.00     0.195 C 
HETATM   34  O   UNL     1     -13.271   3.062 -34.035  1.00  0.00    -0.388 OA
HETATM   35  C   UNL     1     -13.241   1.633 -34.055  1.00  0.00     0.195 C 
HETATM   36  C   UNL     1     -11.799   1.121 -33.964  1.00  0.00     0.261 C 
ENDBRANCH  29  30
ENDBRANCH  28  29
ENDBRANCH  27  28
ENDBRANCH   1  27
TORSDOF 10
ENDMDL
MODEL 6
REMARK VINA RESULT:      -8.3      1.528      2.189
REMARK  10 active torsions:
REMARK  status: ('A' for Active; 'I' for Inactive)
REMARK    1  A    between atoms: C_6  and  C_7 
REMARK    2  A    between atoms: C_7  and  N_8 
REMARK    3  A    between atoms: N_8  and  C_10 
REMARK    4  A    between atoms: N_8  and  C_20 
REMARK    5  A    between atoms: C_10  and  C_11 
REMARK    6  A    between atoms: N_12  and  C_13 
REMARK    7  A    between atoms: C_20  and  C_21 
REMARK    8  A    between atoms: C_21  and  C_22 
REMARK    9  A    between atoms: C_22  and  N_23 
REMARK   10  A    between atoms: C_30  and  O_31 
ROOT
HETATM    1  N   UNL     1      -5.666   1.855 -31.489  1.00  0.00    -0.060 N 
HETATM    2  H   UNL     1      -4.845   1.421 -31.045  1.00  0.00     0.280 HD
ENDROOT
BRANCH   1   3
HETATM    3  C   UNL     1      -5.564   1.407 -32.955  1.00  0.00     0.278 C 
BRANCH   3   4
HETATM    4  C   UNL     1      -5.335  -0.044 -33.229  1.00  0.00     0.021 A 
HETATM    5  C   UNL     1      -6.269  -0.816 -33.924  1.00  0.00     0.027 A 
HETATM    6  C   UNL     1      -6.002  -2.165 -34.217  1.00  0.00    -0.006 A 
HETATM    7  C   UNL     1      -4.774  -2.720 -33.790  1.00  0.00     0.075 A 
HETATM    8  C   UNL     1      -6.927  -2.941 -34.934  1.00  0.00     0.014 A 
HETATM    9  C   UNL     1      -4.511  -4.062 -34.093  1.00  0.00    -0.032 A 
HETATM   10  N   UNL     1      -3.878  -1.971 -33.115  1.00  0.00    -0.223 NA
HETATM   11  C   UNL     1      -3.202  -4.707 -33.718  1.00  0.00     0.050 C 
HETATM   12  C   UNL     1      -5.440  -4.825 -34.821  1.00  0.00     0.009 A 
HETATM   13  C   UNL     1      -6.643  -4.268 -35.236  1.00  0.00     0.002 A 
HETATM   14  C   UNL     1      -4.170  -0.692 -32.875  1.00  0.00     0.170 A 
BRANCH  14  15
HETATM   15  O   UNL     1      -3.169  -0.052 -32.224  1.00  0.00    -0.344 OA
HETATM   16  H   UNL     1      -2.417  -0.376 -32.768  1.00  0.00     0.219 HD
ENDBRANCH  14  15
ENDBRANCH   3   4
ENDBRANCH   1   3
BRANCH   1  17
HETATM   17  C   UNL     1      -5.350   3.365 -31.319  1.00  0.00     0.316 C 
BRANCH  17  18
HETATM   18  C   UNL     1      -5.637   4.098 -32.572  1.00  0.00     0.163 A 
HETATM   19  N   UNL     1      -4.772   4.765 -33.411  1.00  0.00    -0.253 N 
HETATM   20  N   UNL     1      -5.510   5.336 -34.387  1.00  0.00    -0.002 NA
HETATM   21  N   UNL     1      -6.760   4.959 -34.188  1.00  0.00     0.018 NA
HETATM   22  N   UNL     1      -6.856   4.178 -33.078  1.00  0.00    -0.145 NA
BRANCH  19  23
HETATM   23  C   UNL     1      -3.314   4.957 -33.441  1.00  0.00     0.042 C 
HETATM   24  C   UNL     1      -2.510   3.706 -33.037  1.00  0.00     0.039 C 
HETATM   25  C   UNL     1      -2.873   5.330 -34.875  1.00  0.00     0.039 C 
HETATM   26  C   UNL     1      -2.933   6.099 -32.480  1.00  0.00     0.039 C 
ENDBRANCH  19  23
ENDBRANCH  17  18
ENDBRANCH   1  17
BRANCH   1  27
HETATM   27  C   UNL     1      -6.921   1.463 -30.752  1.00  0.00     0.237 C 
BRANCH  27  28
HETATM   28  C   UNL     1      -8.189   1.373 -31.621  1.00  0.00     0.055 C 
BRANCH  28  29
HETATM   29  C   UNL     1      -9.257   2.425 -31.316  1.00  0.00     0.236 C 
BRANCH  29  30
HETATM   30  N   UNL     1     -10.123   2.684 -32.534  1.00  0.00    -0.067 N 
HETATM   31  H   UNL     1      -9.598   3.244 -33.222  1.00  0.00     0.280 HD
HETATM   32  C   UNL     1     -10.494   1.374 -33.257  1.00  0.00     0.261 C 
HETATM   33  C   UNL     1     -11.343   1.688 -34.494  1.00  0.00     0.195 C 
HETATM   34  O   UNL     1     -12.523   2.404 -34.126  1.00  0.00    -0.388 OA
HETATM   35  C   UNL     1     -12.220   3.661 -33.518  1.00  0.00     0.195 C 
HETATM   36  C   UNL     1     -11.418   3.459 -32.227  1.00  0.00     0.261 C 
ENDBRANCH  29  30
ENDBRANCH  28  29
ENDBRANCH  27  28
ENDBRANCH   1  27
TORSDOF 10
ENDMDL
MODEL 7
REMARK VINA RESULT:      -8.2      3.040      6.889
REMARK  10 active torsions:
REMARK  status: ('A' for Active; 'I' for Inactive)
REMARK    1  A    between atoms: C_6  and  C_7 
REMARK    2  A    between atoms: C_7  and  N_8 
REMARK    3  A    between atoms: N_8  and  C_10 
REMARK    4  A    between atoms: N_8  and  C_20 
REMARK    5  A    between atoms: C_10  and  C_11 
REMARK    6  A    between atoms: N_12  and  C_13 
REMARK    7  A    between atoms: C_20  and  C_21 
REMARK    8  A    between atoms: C_21  and  C_22 
REMARK    9  A    between atoms: C_22  and  N_23 
REMARK   10  A    between atoms: C_30  and  O_31 
ROOT
HETATM    1  N   UNL     1      -4.641   2.588 -31.491  1.00  0.00    -0.060 N 
HETATM    2  H   UNL     1      -5.292   2.278 -32.227  1.00  0.00     0.280 HD
ENDROOT
BRANCH   1   3
HETATM    3  C   UNL     1      -3.471   1.597 -31.604  1.00  0.00     0.278 C 
BRANCH   3   4
HETATM    4  C   UNL     1      -3.755   0.241 -32.162  1.00  0.00     0.021 A 
HETATM    5  C   UNL     1      -4.832   0.012 -33.021  1.00  0.00     0.027 A 
HETATM    6  C   UNL     1      -5.043  -1.261 -33.578  1.00  0.00    -0.006 A 
HETATM    7  C   UNL     1      -4.145  -2.302 -33.246  1.00  0.00     0.075 A 
HETATM    8  C   UNL     1      -6.111  -1.494 -34.459  1.00  0.00     0.014 A 
HETATM    9  C   UNL     1      -4.354  -3.566 -33.810  1.00  0.00    -0.032 A 
HETATM   10  N   UNL     1      -3.109  -2.076 -32.411  1.00  0.00    -0.223 NA
HETATM   11  C   UNL     1      -3.409  -4.709 -33.545  1.00  0.00     0.050 C 
HETATM   12  C   UNL     1      -5.421  -3.783 -34.700  1.00  0.00     0.009 A 
HETATM   13  C   UNL     1      -6.296  -2.752 -35.019  1.00  0.00     0.002 A 
HETATM   14  C   UNL     1      -2.942  -0.846 -31.921  1.00  0.00     0.170 A 
BRANCH  14  15
HETATM   15  O   UNL     1      -1.846  -0.755 -31.131  1.00  0.00    -0.344 OA
HETATM   16  H   UNL     1      -1.469   0.072 -31.506  1.00  0.00     0.219 HD
ENDBRANCH  14  15
ENDBRANCH   3   4
ENDBRANCH   1   3
BRANCH   1  17
HETATM   17  C   UNL     1      -5.483   2.350 -30.209  1.00  0.00     0.316 C 
BRANCH  17  18
HETATM   18  C   UNL     1      -6.697   3.195 -30.223  1.00  0.00     0.163 A 
HETATM   19  N   UNL     1      -7.823   3.092 -31.010  1.00  0.00    -0.253 N 
HETATM   20  N   UNL     1      -8.628   4.133 -30.706  1.00  0.00    -0.002 NA
HETATM   21  N   UNL     1      -8.045   4.788 -29.718  1.00  0.00     0.018 NA
HETATM   22  N   UNL     1      -6.856   4.213 -29.395  1.00  0.00    -0.145 NA
BRANCH  19  23
HETATM   23  C   UNL     1      -8.276   2.139 -32.035  1.00  0.00     0.042 C 
HETATM   24  C   UNL     1      -9.773   2.254 -32.380  1.00  0.00     0.039 C 
HETATM   25  C   UNL     1      -7.493   2.385 -33.346  1.00  0.00     0.039 C 
HETATM   26  C   UNL     1      -8.007   0.703 -31.546  1.00  0.00     0.039 C 
ENDBRANCH  19  23
ENDBRANCH  17  18
ENDBRANCH   1  17
BRANCH   1  27
HETATM   27  C   UNL     1      -4.307   4.046 -31.675  1.00  0.00     0.237 C 
BRANCH  27  28
HETATM   28  C   UNL     1      -3.502   4.378 -32.945  1.00  0.00     0.055 C 
BRANCH  28  29
HETATM   29  C   UNL     1      -2.553   5.571 -32.814  1.00  0.00     0.236 C 
BRANCH  29  30
HETATM   30  N   UNL     1      -1.899   5.592 -31.446  1.00  0.00    -0.067 N 
HETATM   31  H   UNL     1      -2.319   4.866 -30.848  1.00  0.00     0.280 HD
HETATM   32  C   UNL     1      -0.398   5.248 -31.528  1.00  0.00     0.261 C 
HETATM   33  C   UNL     1       0.212   5.253 -30.122  1.00  0.00     0.195 C 
HETATM   34  O   UNL     1       0.027   6.526 -29.498  1.00  0.00    -0.388 OA
HETATM   35  C   UNL     1      -1.356   6.847 -29.336  1.00  0.00     0.195 C 
HETATM   36  C   UNL     1      -2.055   6.929 -30.698  1.00  0.00     0.261 C 
ENDBRANCH  29  30
ENDBRANCH  28  29
ENDBRANCH  27  28
ENDBRANCH   1  27
TORSDOF 10
ENDMDL
MODEL 8
REMARK VINA RESULT:      -8.1      2.545      3.820
REMARK  10 active torsions:
REMARK  status: ('A' for Active; 'I' for Inactive)
REMARK    1  A    between atoms: C_6  and  C_7 
REMARK    2  A    between atoms: C_7  and  N_8 
REMARK    3  A    between atoms: N_8  and  C_10 
REMARK    4  A    between atoms: N_8  and  C_20 
REMARK    5  A    between atoms: C_10  and  C_11 
REMARK    6  A    between atoms: N_12  and  C_13 
REMARK    7  A    between atoms: C_20  and  C_21 
REMARK    8  A    between atoms: C_21  and  C_22 
REMARK    9  A    between atoms: C_22  and  N_23 
REMARK   10  A    between atoms: C_30  and  O_31 
ROOT
HETATM    1  N   UNL     1      -4.478   4.322 -31.125  1.00  0.00    -0.060 N 
HETATM    2  H   UNL     1      -3.717   3.685 -30.851  1.00  0.00     0.280 HD
ENDROOT
BRANCH   1   3
HETATM    3  C   UNL     1      -4.901   3.809 -32.510  1.00  0.00     0.278 C 
BRANCH   3   4
HETATM    4  C   UNL     1      -4.922   2.331 -32.731  1.00  0.00     0.021 A 
HETATM    5  C   UNL     1      -5.871   1.727 -33.559  1.00  0.00     0.027 A 
HETATM    6  C   UNL     1      -5.833   0.342 -33.795  1.00  0.00    -0.006 A 
HETATM    7  C   UNL     1      -4.818  -0.423 -33.174  1.00  0.00     0.075 A 
HETATM    8  C   UNL     1      -6.770  -0.269 -34.643  1.00  0.00     0.014 A 
HETATM    9  C   UNL     1      -4.780  -1.801 -33.421  1.00  0.00    -0.032 A 
HETATM   10  N   UNL     1      -3.907   0.166 -32.372  1.00  0.00    -0.223 NA
HETATM   11  C   UNL     1      -3.697  -2.671 -32.837  1.00  0.00     0.050 C 
HETATM   12  C   UNL     1      -5.718  -2.399 -34.280  1.00  0.00     0.009 A 
HETATM   13  C   UNL     1      -6.710  -1.637 -34.885  1.00  0.00     0.002 A 
HETATM   14  C   UNL     1      -3.976   1.486 -32.192  1.00  0.00     0.170 A 
BRANCH  14  15
HETATM   15  O   UNL     1      -2.981   1.946 -31.396  1.00  0.00    -0.344 OA
HETATM   16  H   UNL     1      -3.522   2.519 -30.809  1.00  0.00     0.219 HD
ENDBRANCH  14  15
ENDBRANCH   3   4
ENDBRANCH   1   3
BRANCH   1  17
HETATM   17  C   UNL     1      -3.731   5.680 -31.212  1.00  0.00     0.316 C 
BRANCH  17  18
HETATM   18  C   UNL     1      -2.277   5.484 -31.023  1.00  0.00     0.163 A 
HETATM   19  N   UNL     1      -1.373   6.259 -30.330  1.00  0.00    -0.253 N 
HETATM   20  N   UNL     1      -0.151   5.713 -30.504  1.00  0.00    -0.002 NA
HETATM   21  N   UNL     1      -0.325   4.608 -31.205  1.00  0.00     0.018 NA
HETATM   22  N   UNL     1      -1.636   4.440 -31.522  1.00  0.00    -0.145 NA
BRANCH  19  23
HETATM   23  C   UNL     1      -1.482   7.472 -29.505  1.00  0.00     0.042 C 
HETATM   24  C   UNL     1      -2.467   7.342 -28.327  1.00  0.00     0.039 C 
HETATM   25  C   UNL     1      -0.099   7.808 -28.899  1.00  0.00     0.039 C 
HETATM   26  C   UNL     1      -1.947   8.646 -30.387  1.00  0.00     0.039 C 
ENDBRANCH  19  23
ENDBRANCH  17  18
ENDBRANCH   1  17
BRANCH   1  27
HETATM   27  C   UNL     1      -5.545   4.342 -30.060  1.00  0.00     0.237 C 
BRANCH  27  28
HETATM   28  C   UNL     1      -6.990   4.226 -30.580  1.00  0.00     0.055 C 
BRANCH  28  29
HETATM   29  C   UNL     1      -7.754   2.993 -30.094  1.00  0.00     0.236 C 
BRANCH  29  30
HETATM   30  N   UNL     1      -8.804   2.575 -31.106  1.00  0.00    -0.067 N 
HETATM   31  H   UNL     1      -9.743   2.681 -30.698  1.00  0.00     0.280 HD
HETATM   32  C   UNL     1      -8.785   3.482 -32.353  1.00  0.00     0.261 C 
HETATM   33  C   UNL     1      -9.879   3.040 -33.331  1.00  0.00     0.195 C 
HETATM   34  O   UNL     1      -9.694   1.674 -33.708  1.00  0.00    -0.388 OA
HETATM   35  C   UNL     1      -9.779   0.792 -32.587  1.00  0.00     0.195 C 
HETATM   36  C   UNL     1      -8.682   1.110 -31.564  1.00  0.00     0.261 C 
ENDBRANCH  29  30
ENDBRANCH  28  29
ENDBRANCH  27  28
ENDBRANCH   1  27
TORSDOF 10
ENDMDL
MODEL 9
REMARK VINA RESULT:      -8.0      2.704      6.909
REMARK  10 active torsions:
REMARK  status: ('A' for Active; 'I' for Inactive)
REMARK    1  A    between atoms: C_6  and  C_7 
REMARK    2  A    between atoms: C_7  and  N_8 
REMARK    3  A    between atoms: N_8  and  C_10 
REMARK    4  A    between atoms: N_8  and  C_20 
REMARK    5  A    between atoms: C_10  and  C_11 
REMARK    6  A    between atoms: N_12  and  C_13 
REMARK    7  A    between atoms: C_20  and  C_21 
REMARK    8  A    between atoms: C_21  and  C_22 
REMARK    9  A    between atoms: C_22  and  N_23 
REMARK   10  A    between atoms: C_30  and  O_31 
ROOT
HETATM    1  N   UNL     1      -5.587   2.256 -32.522  1.00  0.00    -0.060 N 
HETATM    2  H   UNL     1      -5.996   1.736 -33.311  1.00  0.00     0.280 HD
ENDROOT
BRANCH   1   3
HETATM    3  C   UNL     1      -4.801   1.185 -31.750  1.00  0.00     0.278 C 
BRANCH   3   4
HETATM    4  C   UNL     1      -4.763  -0.198 -32.316  1.00  0.00     0.021 A 
HETATM    5  C   UNL     1      -5.778  -0.679 -33.146  1.00  0.00     0.027 A 
HETATM    6  C   UNL     1      -5.689  -1.963 -33.711  1.00  0.00    -0.006 A 
HETATM    7  C   UNL     1      -4.555  -2.754 -33.417  1.00  0.00     0.075 A 
HETATM    8  C   UNL     1      -6.696  -2.445 -34.563  1.00  0.00     0.014 A 
HETATM    9  C   UNL     1      -4.468  -4.029 -33.990  1.00  0.00    -0.032 A 
HETATM   10  N   UNL     1      -3.579  -2.286 -32.612  1.00  0.00    -0.223 NA
HETATM   11  C   UNL     1      -3.264  -4.908 -33.766  1.00  0.00     0.050 C 
HETATM   12  C   UNL     1      -5.476  -4.496 -34.850  1.00  0.00     0.009 A 
HETATM   13  C   UNL     1      -6.586  -3.709 -35.132  1.00  0.00     0.002 A 
HETATM   14  C   UNL     1      -3.702  -1.055 -32.112  1.00  0.00     0.170 A 
BRANCH  14  15
HETATM   15  O   UNL     1      -2.637  -0.702 -31.353  1.00  0.00    -0.344 OA
HETATM   16  H   UNL     1      -3.104  -0.599 -30.494  1.00  0.00     0.219 HD
ENDBRANCH  14  15
ENDBRANCH   3   4
ENDBRANCH   1   3
BRANCH   1  17
HETATM   17  C   UNL     1      -6.859   2.708 -31.755  1.00  0.00     0.316 C 
BRANCH  17  18
HETATM   18  C   UNL     1      -7.828   3.331 -32.683  1.00  0.00     0.163 A 
HETATM   19  N   UNL     1      -8.810   2.739 -33.446  1.00  0.00    -0.253 N 
HETATM   20  N   UNL     1      -9.392   3.708 -34.185  1.00  0.00    -0.002 NA
HETATM   21  N   UNL     1      -8.836   4.849 -33.819  1.00  0.00     0.018 NA
HETATM   22  N   UNL     1      -7.877   4.638 -32.878  1.00  0.00    -0.145 NA
BRANCH  19  23
HETATM   23  C   UNL     1      -9.303   1.361 -33.595  1.00  0.00     0.042 C 
HETATM   24  C   UNL     1      -9.174   0.507 -32.319  1.00  0.00     0.039 C 
HETATM   25  C   UNL     1     -10.805   1.389 -33.966  1.00  0.00     0.039 C 
HETATM   26  C   UNL     1      -8.517   0.660 -34.720  1.00  0.00     0.039 C 
ENDBRANCH  19  23
ENDBRANCH  17  18
ENDBRANCH   1  17
BRANCH   1  27
HETATM   27  C   UNL     1      -4.797   3.434 -33.032  1.00  0.00     0.237 C 
BRANCH  27  28
HETATM   28  C   UNL     1      -3.575   3.821 -32.178  1.00  0.00     0.055 C 
BRANCH  28  29
HETATM   29  C   UNL     1      -3.754   5.082 -31.331  1.00  0.00     0.236 C 
BRANCH  29  30
HETATM   30  N   UNL     1      -2.458   5.866 -31.250  1.00  0.00    -0.067 N 
HETATM   31  H   UNL     1      -2.378   6.492 -32.064  1.00  0.00     0.280 HD
HETATM   32  C   UNL     1      -2.424   6.783 -30.011  1.00  0.00     0.261 C 
HETATM   33  C   UNL     1      -1.111   7.574 -29.988  1.00  0.00     0.195 C 
HETATM   34  O   UNL     1       0.009   6.687 -29.980  1.00  0.00    -0.388 OA
HETATM   35  C   UNL     1       0.055   5.870 -31.151  1.00  0.00     0.195 C 
HETATM   36  C   UNL     1      -1.195   4.985 -31.242  1.00  0.00     0.261 C 
ENDBRANCH  29  30
ENDBRANCH  28  29
ENDBRANCH  27  28
ENDBRANCH   1  27
TORSDOF 10
ENDMDL
MODEL 10
REMARK VINA RESULT:      -8.0      2.230      3.705
REMARK  10 active torsions:
REMARK  status: ('A' for Active; 'I' for Inactive)
REMARK    1  A    between atoms: C_6  and  C_7 
REMARK    2  A    between atoms: C_7  and  N_8 
REMARK    3  A    between atoms: N_8  and  C_10 
REMARK    4  A    between atoms: N_8  and  C_20 
REMARK    5  A    between atoms: C_10  and  C_11 
REMARK    6  A    between atoms: N_12  and  C_13 
REMARK    7  A    between atoms: C_20  and  C_21 
REMARK    8  A    between atoms: C_21  and  C_22 
REMARK    9  A    between atoms: C_22  and  N_23 
REMARK   10  A    between atoms: C_30  and  O_31 
ROOT
HETATM    1  N   UNL     1      -3.860   3.647 -31.966  1.00  0.00    -0.060 N 
HETATM    2  H   UNL     1      -3.611   4.384 -31.291  1.00  0.00     0.280 HD
ENDROOT
BRANCH   1   3
HETATM    3  C   UNL     1      -3.810   2.358 -31.132  1.00  0.00     0.278 C 
BRANCH   3   4
HETATM    4  C   UNL     1      -4.093   1.065 -31.825  1.00  0.00     0.021 A 
HETATM    5  C   UNL     1      -5.155   0.931 -32.722  1.00  0.00     0.027 A 
HETATM    6  C   UNL     1      -5.364  -0.281 -33.403  1.00  0.00    -0.006 A 
HETATM    7  C   UNL     1      -4.479  -1.357 -33.159  1.00  0.00     0.075 A 
HETATM    8  C   UNL     1      -6.417  -0.417 -34.322  1.00  0.00     0.014 A 
HETATM    9  C   UNL     1      -4.687  -2.558 -33.848  1.00  0.00    -0.032 A 
HETATM   10  N   UNL     1      -3.458  -1.222 -32.288  1.00  0.00    -0.223 NA
HETATM   11  C   UNL     1      -3.755  -3.729 -33.678  1.00  0.00     0.050 C 
HETATM   12  C   UNL     1      -5.738  -2.677 -34.773  1.00  0.00     0.009 A 
HETATM   13  C   UNL     1      -6.601  -1.613 -35.006  1.00  0.00     0.002 A 
HETATM   14  C   UNL     1      -3.292  -0.047 -31.678  1.00  0.00     0.170 A 
BRANCH  14  15
HETATM   15  O   UNL     1      -2.210  -0.043 -30.862  1.00  0.00    -0.344 OA
HETATM   16  H   UNL     1      -2.595  -0.552 -30.114  1.00  0.00     0.219 HD
ENDBRANCH  14  15
ENDBRANCH   3   4
ENDBRANCH   1   3
BRANCH   1  17
HETATM   17  C   UNL     1      -2.681   3.735 -32.972  1.00  0.00     0.316 C 
BRANCH  17  18
HETATM   18  C   UNL     1      -2.401   5.146 -33.320  1.00  0.00     0.163 A 
HETATM   19  N   UNL     1      -1.934   6.166 -32.520  1.00  0.00    -0.253 N 
HETATM   20  N   UNL     1      -1.906   7.289 -33.268  1.00  0.00    -0.002 NA
HETATM   21  N   UNL     1      -2.265   6.940 -34.491  1.00  0.00     0.018 NA
HETATM   22  N   UNL     1      -2.560   5.614 -34.546  1.00  0.00    -0.145 NA
BRANCH  19  23
HETATM   23  C   UNL     1      -1.496   6.252 -31.119  1.00  0.00     0.042 C 
HETATM   24  C   UNL     1      -0.585   7.458 -30.820  1.00  0.00     0.039 C 
HETATM   25  C   UNL     1      -2.733   6.386 -30.200  1.00  0.00     0.039 C 
HETATM   26  C   UNL     1      -0.726   4.970 -30.748  1.00  0.00     0.039 C 
ENDBRANCH  19  23
ENDBRANCH  17  18
ENDBRANCH   1  17
BRANCH   1  27
HETATM   27  C   UNL     1      -5.177   3.973 -32.623  1.00  0.00     0.237 C 
BRANCH  27  28
HETATM   28  C   UNL     1      -6.326   4.311 -31.654  1.00  0.00     0.055 C 
BRANCH  28  29
HETATM   29  C   UNL     1      -7.722   4.299 -32.279  1.00  0.00     0.236 C 
BRANCH  29  30
HETATM   30  N   UNL     1      -8.132   2.888 -32.656  1.00  0.00    -0.067 N 
HETATM   31  H   UNL     1      -7.317   2.374 -33.020  1.00  0.00     0.280 HD
HETATM   32  C   UNL     1      -8.617   2.089 -31.430  1.00  0.00     0.261 C 
HETATM   33  C   UNL     1      -8.992   0.665 -31.855  1.00  0.00     0.195 C 
HETATM   34  O   UNL     1     -10.004   0.691 -32.863  1.00  0.00    -0.388 OA
HETATM   35  C   UNL     1      -9.565   1.360 -34.047  1.00  0.00     0.195 C 
HETATM   36  C   UNL     1      -9.219   2.823 -33.745  1.00  0.00     0.261 C 
ENDBRANCH  29  30
ENDBRANCH  28  29
ENDBRANCH  27  28
ENDBRANCH   1  27
TORSDOF 10
ENDMDL
