MODEL 1
REMARK VINA RESULT:      -8.6      0.000      0.000
REMARK  5 active torsions:
REMARK  status: ('A' for Active; 'I' for Inactive)
REMARK    1  A    between atoms: C_6  and  O_7 
REMARK    2  A    between atoms: O_7  and  C_8 
REMARK    3  A    between atoms: C_8  and  C_9 
REMARK       I    between atoms: C_9  and  N_10 
REMARK    4  A    between atoms: N_10  and  N_11 
REMARK    5  A    between atoms: C_12  and  C_13 
ROOT
HETATM    1  C   UNL     1      -8.105   0.859 -32.522  1.00  0.00     0.261 C 
HETATM    2  N   UNL     1      -9.018   0.751 -33.561  1.00  0.00    -0.246 N 
HETATM    3  O   UNL     1      -8.379   0.813 -31.323  1.00  0.00    -0.269 OA
HETATM    4  H   UNL     1      -8.695   0.842 -34.520  1.00  0.00     0.192 HD
ENDROOT
BRANCH   2   5
HETATM    5  N   UNL     1     -10.342   0.580 -33.282  1.00  0.00    -0.184 NA
HETATM    6  C   UNL     1     -11.177   1.211 -34.040  1.00  0.00     0.152 C 
BRANCH   6   7
HETATM    7  C   UNL     1     -12.597   1.063 -33.800  1.00  0.00     0.011 A 
HETATM    8  C   UNL     1     -13.477   1.977 -33.133  1.00  0.00     0.004 A 
HETATM    9  C   UNL     1     -14.756   1.414 -33.153  1.00  0.00     0.043 A 
HETATM   10  C   UNL     1     -13.314   3.240 -32.525  1.00  0.00     0.014 A 
HETATM   11  C   UNL     1     -15.874   2.046 -32.596  1.00  0.00     0.030 A 
HETATM   12  N   UNL     1     -14.658   0.204 -33.798  1.00  0.00    -0.364 N 
HETATM   13  C   UNL     1     -15.683   3.296 -32.002  1.00  0.00     0.002 A 
HETATM   14  C   UNL     1     -14.423   3.887 -31.966  1.00  0.00     0.001 A 
HETATM   15  H   UNL     1     -15.432  -0.425 -33.963  1.00  0.00     0.165 HD
HETATM   16  C   UNL     1     -13.369  -0.015 -34.196  1.00  0.00     0.102 A 
ENDBRANCH   6   7
ENDBRANCH   2   5
BRANCH   1  17
HETATM   17  C   UNL     1      -6.659   0.935 -33.002  1.00  0.00     0.280 C 
BRANCH  17  18
HETATM   18  O   UNL     1      -6.503   0.331 -34.286  1.00  0.00    -0.342 OA
BRANCH  18  19
HETATM   19  C   UNL     1      -5.939  -0.917 -34.239  1.00  0.00     0.069 A 
HETATM   20  C   UNL     1      -6.512  -2.057 -34.807  1.00  0.00     0.044 A 
HETATM   21  C   UNL     1      -5.864  -3.303 -34.732  1.00  0.00    -0.053 A 
HETATM   22  C   UNL     1      -4.628  -3.400 -34.062  1.00  0.00    -0.056 A 
HETATM   23  C   UNL     1      -6.523  -4.508 -35.347  1.00  0.00     0.049 C 
HETATM   24  C   UNL     1      -3.896  -4.710 -33.944  1.00  0.00     0.049 C 
HETATM   25  C   UNL     1      -4.048  -2.240 -33.526  1.00  0.00     0.010 A 
HETATM   26  C   UNL     1      -4.696  -1.007 -33.621  1.00  0.00     0.037 A 
ENDBRANCH  18  19
ENDBRANCH  17  18
ENDBRANCH   1  17
TORSDOF 5
ENDMDL
MODEL 2
REMARK VINA RESULT:      -8.5      5.253      8.994
REMARK  5 active torsions:
REMARK  status: ('A' for Active; 'I' for Inactive)
REMARK    1  A    between atoms: C_6  and  O_7 
REMARK    2  A    between atoms: O_7  and  C_8 
REMARK    3  A    between atoms: C_8  and  C_9 
REMARK       I    between atoms: C_9  and  N_10 
REMARK    4  A    between atoms: N_10  and  N_11 
REMARK    5  A    between atoms: C_12  and  C_13 
ROOT
HETATM    1  C   UNL     1      -6.217   2.220 -32.910  1.00  0.00     0.261 C 
HETATM    2  N   UNL     1      -4.970   2.321 -32.310  1.00  0.00    -0.246 N 
HETATM    3  O   UNL     1      -6.782   3.116 -33.537  1.00  0.00    -0.269 OA
HETATM    4  H   UNL     1      -4.607   1.535 -31.780  1.00  0.00     0.192 HD
ENDROOT
BRANCH   2   5
HETATM    5  N   UNL     1      -4.275   3.492 -32.391  1.00  0.00    -0.184 NA
HETATM    6  C   UNL     1      -3.098   3.426 -32.922  1.00  0.00     0.152 C 
BRANCH   6   7
HETATM    7  C   UNL     1      -2.314   4.638 -33.045  1.00  0.00     0.011 A 
HETATM    8  C   UNL     1      -1.420   5.210 -32.081  1.00  0.00     0.004 A 
HETATM    9  C   UNL     1      -0.881   6.368 -32.647  1.00  0.00     0.043 A 
HETATM   10  C   UNL     1      -1.003   4.846 -30.783  1.00  0.00     0.014 A 
HETATM   11  C   UNL     1       0.046   7.179 -31.983  1.00  0.00     0.030 A 
HETATM   12  N   UNL     1      -1.429   6.501 -33.901  1.00  0.00    -0.364 N 
HETATM   13  C   UNL     1       0.442   6.794 -30.699  1.00  0.00     0.002 A 
HETATM   14  C   UNL     1      -0.073   5.645 -30.106  1.00  0.00     0.001 A 
HETATM   15  H   UNL     1      -1.219   7.251 -34.545  1.00  0.00     0.165 HD
HETATM   16  C   UNL     1      -2.285   5.466 -34.153  1.00  0.00     0.102 A 
ENDBRANCH   6   7
ENDBRANCH   2   5
BRANCH   1  17
HETATM   17  C   UNL     1      -6.812   0.819 -32.822  1.00  0.00     0.280 C 
BRANCH  17  18
HETATM   18  O   UNL     1      -6.840   0.184 -34.101  1.00  0.00    -0.342 OA
BRANCH  18  19
HETATM   19  C   UNL     1      -6.180  -1.017 -34.131  1.00  0.00     0.069 A 
HETATM   20  C   UNL     1      -6.678  -2.169 -34.742  1.00  0.00     0.044 A 
HETATM   21  C   UNL     1      -5.934  -3.363 -34.746  1.00  0.00    -0.053 A 
HETATM   22  C   UNL     1      -4.677  -3.396 -34.110  1.00  0.00    -0.056 A 
HETATM   23  C   UNL     1      -6.514  -4.584 -35.406  1.00  0.00     0.049 C 
HETATM   24  C   UNL     1      -3.844  -4.648 -34.076  1.00  0.00     0.049 C 
HETATM   25  C   UNL     1      -4.174  -2.221 -33.529  1.00  0.00     0.010 A 
HETATM   26  C   UNL     1      -4.918  -1.040 -33.546  1.00  0.00     0.037 A 
ENDBRANCH  18  19
ENDBRANCH  17  18
ENDBRANCH   1  17
TORSDOF 5
ENDMDL
MODEL 3
REMARK VINA RESULT:      -8.4      2.120      8.774
REMARK  5 active torsions:
REMARK  status: ('A' for Active; 'I' for Inactive)
REMARK    1  A    between atoms: C_6  and  O_7 
REMARK    2  A    between atoms: O_7  and  C_8 
REMARK    3  A    between atoms: C_8  and  C_9 
REMARK       I    between atoms: C_9  and  N_10 
REMARK    4  A    between atoms: N_10  and  N_11 
REMARK    5  A    between atoms: C_12  and  C_13 
ROOT
HETATM    1  C   UNL     1      -8.751   2.248 -32.242  1.00  0.00     0.261 C 
HETATM    2  N   UNL     1      -7.595   2.302 -33.008  1.00  0.00    -0.246 N 
HETATM    3  O   UNL     1      -9.028   1.365 -31.431  1.00  0.00    -0.269 OA
HETATM    4  H   UNL     1      -7.477   3.054 -33.681  1.00  0.00     0.192 HD
ENDROOT
BRANCH   2   5
HETATM    5  N   UNL     1      -6.660   1.317 -32.890  1.00  0.00    -0.184 NA
HETATM    6  C   UNL     1      -6.627   0.437 -33.837  1.00  0.00     0.152 C 
BRANCH   6   7
HETATM    7  C   UNL     1      -5.648  -0.629 -33.773  1.00  0.00     0.011 A 
HETATM    8  C   UNL     1      -5.814  -2.000 -34.157  1.00  0.00     0.004 A 
HETATM    9  C   UNL     1      -4.598  -2.647 -33.929  1.00  0.00     0.043 A 
HETATM   10  C   UNL     1      -6.881  -2.754 -34.691  1.00  0.00     0.014 A 
HETATM   11  C   UNL     1      -4.395  -4.004 -34.205  1.00  0.00     0.030 A 
HETATM   12  N   UNL     1      -3.727  -1.712 -33.421  1.00  0.00    -0.364 N 
HETATM   13  C   UNL     1      -5.467  -4.726 -34.734  1.00  0.00     0.002 A 
HETATM   14  C   UNL     1      -6.693  -4.113 -34.976  1.00  0.00     0.001 A 
HETATM   15  H   UNL     1      -2.768  -1.897 -33.164  1.00  0.00     0.165 HD
HETATM   16  C   UNL     1      -4.345  -0.496 -33.329  1.00  0.00     0.102 A 
ENDBRANCH   6   7
ENDBRANCH   2   5
BRANCH   1  17
HETATM   17  C   UNL     1      -9.639   3.477 -32.411  1.00  0.00     0.280 C 
BRANCH  17  18
HETATM   18  O   UNL     1     -10.231   3.516 -33.710  1.00  0.00    -0.342 OA
BRANCH  18  19
HETATM   19  C   UNL     1     -11.434   2.863 -33.784  1.00  0.00     0.069 A 
HETATM   20  C   UNL     1     -12.491   3.068 -32.895  1.00  0.00     0.044 A 
HETATM   21  C   UNL     1     -13.704   2.372 -33.044  1.00  0.00    -0.053 A 
HETATM   22  C   UNL     1     -13.844   1.445 -34.096  1.00  0.00    -0.056 A 
HETATM   23  C   UNL     1     -14.813   2.614 -32.057  1.00  0.00     0.049 C 
HETATM   24  C   UNL     1     -15.115   0.666 -34.297  1.00  0.00     0.049 C 
HETATM   25  C   UNL     1     -12.785   1.274 -35.002  1.00  0.00     0.010 A 
HETATM   26  C   UNL     1     -11.592   1.984 -34.850  1.00  0.00     0.037 A 
ENDBRANCH  18  19
ENDBRANCH  17  18
ENDBRANCH   1  17
TORSDOF 5
ENDMDL
MODEL 4
REMARK VINA RESULT:      -8.4      7.264     10.844
REMARK  5 active torsions:
REMARK  status: ('A' for Active; 'I' for Inactive)
REMARK    1  A    between atoms: C_6  and  O_7 
REMARK    2  A    between atoms: O_7  and  C_8 
REMARK    3  A    between atoms: C_8  and  C_9 
REMARK       I    between atoms: C_9  and  N_10 
REMARK    4  A    between atoms: N_10  and  N_11 
REMARK    5  A    between atoms: C_12  and  C_13 
ROOT
HETATM    1  C   UNL     1      -2.464   4.594 -31.537  1.00  0.00     0.261 C 
HETATM    2  N   UNL     1      -3.283   3.588 -31.044  1.00  0.00    -0.246 N 
HETATM    3  O   UNL     1      -1.542   4.435 -32.338  1.00  0.00    -0.269 OA
HETATM    4  H   UNL     1      -3.992   3.816 -30.354  1.00  0.00     0.192 HD
ENDROOT
BRANCH   2   5
HETATM    5  N   UNL     1      -3.088   2.300 -31.449  1.00  0.00    -0.184 NA
HETATM    6  C   UNL     1      -4.152   1.595 -31.657  1.00  0.00     0.152 C 
BRANCH   6   7
HETATM    7  C   UNL     1      -4.011   0.223 -32.097  1.00  0.00     0.011 A 
HETATM    8  C   UNL     1      -4.803  -0.477 -33.065  1.00  0.00     0.004 A 
HETATM    9  C   UNL     1      -4.287  -1.771 -33.171  1.00  0.00     0.043 A 
HETATM   10  C   UNL     1      -5.906  -0.131 -33.876  1.00  0.00     0.014 A 
HETATM   11  C   UNL     1      -4.816  -2.732 -34.040  1.00  0.00     0.030 A 
HETATM   12  N   UNL     1      -3.228  -1.859 -32.299  1.00  0.00    -0.364 N 
HETATM   13  C   UNL     1      -5.906  -2.362 -34.831  1.00  0.00     0.002 A 
HETATM   14  C   UNL     1      -6.445  -1.081 -34.753  1.00  0.00     0.001 A 
HETATM   15  H   UNL     1      -2.659  -2.683 -32.165  1.00  0.00     0.165 HD
HETATM   16  C   UNL     1      -3.049  -0.667 -31.654  1.00  0.00     0.102 A 
ENDBRANCH   6   7
ENDBRANCH   2   5
BRANCH   1  17
HETATM   17  C   UNL     1      -2.880   5.986 -31.074  1.00  0.00     0.280 C 
BRANCH  17  18
HETATM   18  O   UNL     1      -1.922   6.971 -31.461  1.00  0.00    -0.342 OA
BRANCH  18  19
HETATM   19  C   UNL     1      -1.183   7.457 -30.414  1.00  0.00     0.069 A 
HETATM   20  C   UNL     1      -1.636   8.428 -29.519  1.00  0.00     0.044 A 
HETATM   21  C   UNL     1      -0.824   8.865 -28.457  1.00  0.00    -0.053 A 
HETATM   22  C   UNL     1       0.469   8.326 -28.308  1.00  0.00    -0.056 A 
HETATM   23  C   UNL     1      -1.347   9.922 -27.523  1.00  0.00     0.049 C 
HETATM   24  C   UNL     1       1.383   8.765 -27.197  1.00  0.00     0.049 C 
HETATM   25  C   UNL     1       0.900   7.326 -29.196  1.00  0.00     0.010 A 
HETATM   26  C   UNL     1       0.076   6.891 -30.236  1.00  0.00     0.037 A 
ENDBRANCH  18  19
ENDBRANCH  17  18
ENDBRANCH   1  17
TORSDOF 5
ENDMDL
MODEL 5
REMARK VINA RESULT:      -8.2      1.885      9.398
REMARK  5 active torsions:
REMARK  status: ('A' for Active; 'I' for Inactive)
REMARK    1  A    between atoms: C_6  and  O_7 
REMARK    2  A    between atoms: O_7  and  C_8 
REMARK    3  A    between atoms: C_8  and  C_9 
REMARK       I    between atoms: C_9  and  N_10 
REMARK    4  A    between atoms: N_10  and  N_11 
REMARK    5  A    between atoms: C_12  and  C_13 
ROOT
HETATM    1  C   UNL     1      -9.376   1.811 -33.084  1.00  0.00     0.261 C 
HETATM    2  N   UNL     1      -8.414   1.440 -34.013  1.00  0.00    -0.246 N 
HETATM    3  O   UNL     1      -9.381   1.489 -31.896  1.00  0.00    -0.269 OA
HETATM    4  H   UNL     1      -8.522   1.725 -34.982  1.00  0.00     0.192 HD
ENDROOT
BRANCH   2   5
HETATM    5  N   UNL     1      -7.370   0.652 -33.627  1.00  0.00    -0.184 NA
HETATM    6  C   UNL     1      -6.946  -0.207 -34.495  1.00  0.00     0.152 C 
BRANCH   6   7
HETATM    7  C   UNL     1      -5.833  -1.066 -34.148  1.00  0.00     0.011 A 
HETATM    8  C   UNL     1      -5.706  -2.476 -34.372  1.00  0.00     0.004 A 
HETATM    9  C   UNL     1      -4.457  -2.866 -33.882  1.00  0.00     0.043 A 
HETATM   10  C   UNL     1      -6.529  -3.461 -34.958  1.00  0.00     0.014 A 
HETATM   11  C   UNL     1      -3.992  -4.184 -33.947  1.00  0.00     0.030 A 
HETATM   12  N   UNL     1      -3.849  -1.741 -33.374  1.00  0.00    -0.364 N 
HETATM   13  C   UNL     1      -4.827  -5.138 -34.534  1.00  0.00     0.002 A 
HETATM   14  C   UNL     1      -6.077  -4.785 -35.034  1.00  0.00     0.001 A 
HETATM   15  H   UNL     1      -2.930  -1.723 -32.955  1.00  0.00     0.165 HD
HETATM   16  C   UNL     1      -4.663  -0.655 -33.534  1.00  0.00     0.102 A 
ENDBRANCH   6   7
ENDBRANCH   2   5
BRANCH   1  17
HETATM   17  C   UNL     1     -10.412   2.778 -33.647  1.00  0.00     0.280 C 
BRANCH  17  18
HETATM   18  O   UNL     1     -11.114   3.454 -32.604  1.00  0.00    -0.342 OA
BRANCH  18  19
HETATM   19  C   UNL     1     -12.451   3.158 -32.563  1.00  0.00     0.069 A 
HETATM   20  C   UNL     1     -13.059   2.169 -33.341  1.00  0.00     0.044 A 
HETATM   21  C   UNL     1     -14.437   1.911 -33.232  1.00  0.00    -0.053 A 
HETATM   22  C   UNL     1     -15.214   2.672 -32.337  1.00  0.00    -0.056 A 
HETATM   23  C   UNL     1     -15.052   0.846 -34.098  1.00  0.00     0.049 C 
HETATM   24  C   UNL     1     -16.694   2.445 -32.188  1.00  0.00     0.049 C 
HETATM   25  C   UNL     1     -14.585   3.640 -31.537  1.00  0.00     0.010 A 
HETATM   26  C   UNL     1     -13.213   3.874 -31.646  1.00  0.00     0.037 A 
ENDBRANCH  18  19
ENDBRANCH  17  18
ENDBRANCH   1  17
TORSDOF 5
ENDMDL
MODEL 6
REMARK VINA RESULT:      -8.2      6.645     10.156
REMARK  5 active torsions:
REMARK  status: ('A' for Active; 'I' for Inactive)
REMARK    1  A    between atoms: C_6  and  O_7 
REMARK    2  A    between atoms: O_7  and  C_8 
REMARK    3  A    between atoms: C_8  and  C_9 
REMARK       I    between atoms: C_9  and  N_10 
REMARK    4  A    between atoms: N_10  and  N_11 
REMARK    5  A    between atoms: C_12  and  C_13 
ROOT
HETATM    1  C   UNL     1      -2.863   3.893 -32.323  1.00  0.00     0.261 C 
HETATM    2  N   UNL     1      -3.390   2.748 -31.743  1.00  0.00    -0.246 N 
HETATM    3  O   UNL     1      -3.207   4.367 -33.406  1.00  0.00    -0.269 OA
HETATM    4  H   UNL     1      -3.009   2.416 -30.862  1.00  0.00     0.192 HD
ENDROOT
BRANCH   2   5
HETATM    5  N   UNL     1      -4.372   2.055 -32.387  1.00  0.00    -0.184 NA
HETATM    6  C   UNL     1      -4.504   0.810 -32.065  1.00  0.00     0.152 C 
BRANCH   6   7
HETATM    7  C   UNL     1      -5.536   0.023 -32.707  1.00  0.00     0.011 A 
HETATM    8  C   UNL     1      -5.382  -1.198 -33.442  1.00  0.00     0.004 A 
HETATM    9  C   UNL     1      -6.653  -1.596 -33.862  1.00  0.00     0.043 A 
HETATM   10  C   UNL     1      -4.281  -2.015 -33.781  1.00  0.00     0.014 A 
HETATM   11  C   UNL     1      -6.880  -2.762 -34.603  1.00  0.00     0.030 A 
HETATM   12  N   UNL     1      -7.545  -0.653 -33.409  1.00  0.00    -0.364 N 
HETATM   13  C   UNL     1      -5.773  -3.552 -34.922  1.00  0.00     0.002 A 
HETATM   14  C   UNL     1      -4.492  -3.188 -34.519  1.00  0.00     0.001 A 
HETATM   15  H   UNL     1      -8.544  -0.684 -33.562  1.00  0.00     0.165 HD
HETATM   16  C   UNL     1      -6.887   0.319 -32.709  1.00  0.00     0.102 A 
ENDBRANCH   6   7
ENDBRANCH   2   5
BRANCH   1  17
HETATM   17  C   UNL     1      -1.856   4.609 -31.429  1.00  0.00     0.280 C 
BRANCH  17  18
HETATM   18  O   UNL     1      -2.405   5.810 -30.887  1.00  0.00    -0.342 OA
BRANCH  18  19
HETATM   19  C   UNL     1      -1.515   6.525 -30.128  1.00  0.00     0.069 A 
HETATM   20  C   UNL     1      -1.829   7.714 -29.466  1.00  0.00     0.044 A 
HETATM   21  C   UNL     1      -0.865   8.383 -28.691  1.00  0.00    -0.053 A 
HETATM   22  C   UNL     1       0.436   7.852 -28.595  1.00  0.00    -0.056 A 
HETATM   23  C   UNL     1      -1.242   9.669 -28.005  1.00  0.00     0.049 C 
HETATM   24  C   UNL     1       1.508   8.532 -27.788  1.00  0.00     0.049 C 
HETATM   25  C   UNL     1       0.728   6.638 -29.238  1.00  0.00     0.010 A 
HETATM   26  C   UNL     1      -0.244   5.977 -29.992  1.00  0.00     0.037 A 
ENDBRANCH  18  19
ENDBRANCH  17  18
ENDBRANCH   1  17
TORSDOF 5
ENDMDL
MODEL 7
REMARK VINA RESULT:      -8.1      1.348      2.016
REMARK  5 active torsions:
REMARK  status: ('A' for Active; 'I' for Inactive)
REMARK    1  A    between atoms: C_6  and  O_7 
REMARK    2  A    between atoms: O_7  and  C_8 
REMARK    3  A    between atoms: C_8  and  C_9 
REMARK       I    between atoms: C_9  and  N_10 
REMARK    4  A    between atoms: N_10  and  N_11 
REMARK    5  A    between atoms: C_12  and  C_13 
ROOT
HETATM    1  C   UNL     1      -7.399   1.192 -32.351  1.00  0.00     0.261 C 
HETATM    2  N   UNL     1      -8.001   2.394 -32.692  1.00  0.00    -0.246 N 
HETATM    3  O   UNL     1      -7.923   0.293 -31.694  1.00  0.00    -0.269 OA
HETATM    4  H   UNL     1      -7.469   3.091 -33.205  1.00  0.00     0.192 HD
ENDROOT
BRANCH   2   5
HETATM    5  N   UNL     1      -9.278   2.649 -32.287  1.00  0.00    -0.184 NA
HETATM    6  C   UNL     1     -10.189   2.624 -33.204  1.00  0.00     0.152 C 
BRANCH   6   7
HETATM    7  C   UNL     1     -11.567   2.877 -32.834  1.00  0.00     0.011 A 
HETATM    8  C   UNL     1     -12.735   2.154 -33.242  1.00  0.00     0.004 A 
HETATM    9  C   UNL     1     -13.834   2.753 -32.623  1.00  0.00     0.043 A 
HETATM   10  C   UNL     1     -12.964   1.034 -34.071  1.00  0.00     0.014 A 
HETATM   11  C   UNL     1     -15.146   2.293 -32.791  1.00  0.00     0.030 A 
HETATM   12  N   UNL     1     -13.358   3.803 -31.874  1.00  0.00    -0.364 N 
HETATM   13  C   UNL     1     -15.343   1.183 -33.615  1.00  0.00     0.002 A 
HETATM   14  C   UNL     1     -14.270   0.560 -34.247  1.00  0.00     0.001 A 
HETATM   15  H   UNL     1     -13.931   4.417 -31.312  1.00  0.00     0.165 HD
HETATM   16  C   UNL     1     -11.998   3.883 -31.988  1.00  0.00     0.102 A 
ENDBRANCH   6   7
ENDBRANCH   2   5
BRANCH   1  17
HETATM   17  C   UNL     1      -6.016   1.017 -32.971  1.00  0.00     0.280 C 
BRANCH  17  18
HETATM   18  O   UNL     1      -6.089   0.330 -34.220  1.00  0.00    -0.342 OA
BRANCH  18  19
HETATM   19  C   UNL     1      -5.622  -0.957 -34.164  1.00  0.00     0.069 A 
HETATM   20  C   UNL     1      -6.228  -2.039 -34.808  1.00  0.00     0.044 A 
HETATM   21  C   UNL     1      -5.680  -3.331 -34.718  1.00  0.00    -0.053 A 
HETATM   22  C   UNL     1      -4.513  -3.535 -33.955  1.00  0.00    -0.056 A 
HETATM   23  C   UNL     1      -6.371  -4.469 -35.418  1.00  0.00     0.049 C 
HETATM   24  C   UNL     1      -3.890  -4.898 -33.817  1.00  0.00     0.049 C 
HETATM   25  C   UNL     1      -3.896  -2.434 -33.341  1.00  0.00     0.010 A 
HETATM   26  C   UNL     1      -4.444  -1.154 -33.452  1.00  0.00     0.037 A 
ENDBRANCH  18  19
ENDBRANCH  17  18
ENDBRANCH   1  17
TORSDOF 5
ENDMDL
MODEL 8
REMARK VINA RESULT:      -8.0      6.058      9.543
REMARK  5 active torsions:
REMARK  status: ('A' for Active; 'I' for Inactive)
REMARK    1  A    between atoms: C_6  and  O_7 
REMARK    2  A    between atoms: O_7  and  C_8 
REMARK    3  A    between atoms: C_8  and  C_9 
REMARK       I    between atoms: C_9  and  N_10 
REMARK    4  A    between atoms: N_10  and  N_11 
REMARK    5  A    between atoms: C_12  and  C_13 
ROOT
HETATM    1  C   UNL     1      -4.729   1.582 -31.062  1.00  0.00     0.261 C 
HETATM    2  N   UNL     1      -3.667   2.170 -31.733  1.00  0.00    -0.246 N 
HETATM    3  O   UNL     1      -5.364   2.096 -30.141  1.00  0.00    -0.269 OA
HETATM    4  H   UNL     1      -3.182   1.646 -32.455  1.00  0.00     0.192 HD
ENDROOT
BRANCH   2   5
HETATM    5  N   UNL     1      -3.253   3.420 -31.378  1.00  0.00    -0.184 NA
HETATM    6  C   UNL     1      -2.477   4.029 -32.213  1.00  0.00     0.152 C 
BRANCH   6   7
HETATM    7  C   UNL     1      -2.011   5.363 -31.897  1.00  0.00     0.011 A 
HETATM    8  C   UNL     1      -1.050   5.748 -30.906  1.00  0.00     0.004 A 
HETATM    9  C   UNL     1      -0.912   7.137 -30.975  1.00  0.00     0.043 A 
HETATM   10  C   UNL     1      -0.268   5.047 -29.963  1.00  0.00     0.014 A 
HETATM   11  C   UNL     1      -0.040   7.857 -30.151  1.00  0.00     0.030 A 
HETATM   12  N   UNL     1      -1.761   7.581 -31.962  1.00  0.00    -0.364 N 
HETATM   13  C   UNL     1       0.722   7.136 -29.228  1.00  0.00     0.002 A 
HETATM   14  C   UNL     1       0.612   5.752 -29.133  1.00  0.00     0.001 A 
HETATM   15  H   UNL     1      -1.869   8.548 -32.235  1.00  0.00     0.165 HD
HETATM   16  C   UNL     1      -2.420   6.525 -32.526  1.00  0.00     0.102 A 
ENDBRANCH   6   7
ENDBRANCH   2   5
BRANCH   1  17
HETATM   17  C   UNL     1      -5.137   0.235 -31.650  1.00  0.00     0.280 C 
BRANCH  17  18
HETATM   18  O   UNL     1      -4.883   0.181 -33.054  1.00  0.00    -0.342 OA
BRANCH  18  19
HETATM   19  C   UNL     1      -5.166  -1.036 -33.616  1.00  0.00     0.069 A 
HETATM   20  C   UNL     1      -4.305  -2.135 -33.576  1.00  0.00     0.044 A 
HETATM   21  C   UNL     1      -4.673  -3.360 -34.162  1.00  0.00    -0.053 A 
HETATM   22  C   UNL     1      -5.919  -3.470 -34.809  1.00  0.00    -0.056 A 
HETATM   23  C   UNL     1      -3.710  -4.515 -34.108  1.00  0.00     0.049 C 
HETATM   24  C   UNL     1      -6.359  -4.753 -35.461  1.00  0.00     0.049 C 
HETATM   25  C   UNL     1      -6.789  -2.368 -34.812  1.00  0.00     0.010 A 
HETATM   26  C   UNL     1      -6.416  -1.163 -34.213  1.00  0.00     0.037 A 
ENDBRANCH  18  19
ENDBRANCH  17  18
ENDBRANCH   1  17
TORSDOF 5
ENDMDL
MODEL 9
REMARK VINA RESULT:      -7.8      4.840      8.159
REMARK  5 active torsions:
REMARK  status: ('A' for Active; 'I' for Inactive)
REMARK    1  A    between atoms: C_6  and  O_7 
REMARK    2  A    between atoms: O_7  and  C_8 
REMARK    3  A    between atoms: C_8  and  C_9 
REMARK       I    between atoms: C_9  and  N_10 
REMARK    4  A    between atoms: N_10  and  N_11 
REMARK    5  A    between atoms: C_12  and  C_13 
ROOT
HETATM    1  C   UNL     1      -6.737   2.191 -33.065  1.00  0.00     0.261 C 
HETATM    2  N   UNL     1      -6.561   2.770 -31.817  1.00  0.00    -0.246 N 
HETATM    3  O   UNL     1      -6.415   2.700 -34.139  1.00  0.00    -0.269 OA
HETATM    4  H   UNL     1      -6.898   2.285 -30.991  1.00  0.00     0.192 HD
ENDROOT
BRANCH   2   5
HETATM    5  N   UNL     1      -5.991   4.005 -31.720  1.00  0.00    -0.184 NA
HETATM    6  C   UNL     1      -4.816   4.057 -31.184  1.00  0.00     0.152 C 
BRANCH   6   7
HETATM    7  C   UNL     1      -4.154   5.339 -31.062  1.00  0.00     0.011 A 
HETATM    8  C   UNL     1      -3.175   5.912 -31.939  1.00  0.00     0.004 A 
HETATM    9  C   UNL     1      -2.838   7.166 -31.425  1.00  0.00     0.043 A 
HETATM   10  C   UNL     1      -2.551   5.490 -33.132  1.00  0.00     0.014 A 
HETATM   11  C   UNL     1      -1.910   8.015 -32.039  1.00  0.00     0.030 A 
HETATM   12  N   UNL     1      -3.575   7.348 -30.278  1.00  0.00    -0.364 N 
HETATM   13  C   UNL     1      -1.308   7.573 -33.220  1.00  0.00     0.002 A 
HETATM   14  C   UNL     1      -1.622   6.329 -33.761  1.00  0.00     0.001 A 
HETATM   15  H   UNL     1      -3.537   8.172 -29.695  1.00  0.00     0.165 HD
HETATM   16  C   UNL     1      -4.373   6.262 -30.054  1.00  0.00     0.102 A 
ENDBRANCH   6   7
ENDBRANCH   2   5
BRANCH   1  17
HETATM   17  C   UNL     1      -7.284   0.769 -32.994  1.00  0.00     0.280 C 
BRANCH  17  18
HETATM   18  O   UNL     1      -7.203   0.117 -34.262  1.00  0.00    -0.342 OA
BRANCH  18  19
HETATM   19  C   UNL     1      -6.434  -1.017 -34.245  1.00  0.00     0.069 A 
HETATM   20  C   UNL     1      -6.827  -2.239 -34.796  1.00  0.00     0.044 A 
HETATM   21  C   UNL     1      -5.975  -3.356 -34.755  1.00  0.00    -0.053 A 
HETATM   22  C   UNL     1      -4.715  -3.243 -34.135  1.00  0.00    -0.056 A 
HETATM   23  C   UNL     1      -6.444  -4.656 -35.351  1.00  0.00     0.049 C 
HETATM   24  C   UNL     1      -3.768  -4.409 -34.054  1.00  0.00     0.049 C 
HETATM   25  C   UNL     1      -4.319  -2.000 -33.615  1.00  0.00     0.010 A 
HETATM   26  C   UNL     1      -5.170  -0.895 -33.677  1.00  0.00     0.037 A 
ENDBRANCH  18  19
ENDBRANCH  17  18
ENDBRANCH   1  17
TORSDOF 5
ENDMDL
MODEL 10
REMARK VINA RESULT:      -7.5      4.771      8.875
REMARK  5 active torsions:
REMARK  status: ('A' for Active; 'I' for Inactive)
REMARK    1  A    between atoms: C_6  and  O_7 
REMARK    2  A    between atoms: O_7  and  C_8 
REMARK    3  A    between atoms: C_8  and  C_9 
REMARK       I    between atoms: C_9  and  N_10 
REMARK    4  A    between atoms: N_10  and  N_11 
REMARK    5  A    between atoms: C_12  and  C_13 
ROOT
HETATM    1  C   UNL     1      -3.690  -0.060 -32.440  1.00  0.00     0.261 C 
HETATM    2  N   UNL     1      -4.059   0.860 -31.471  1.00  0.00    -0.246 N 
HETATM    3  O   UNL     1      -2.842   0.124 -33.313  1.00  0.00    -0.269 OA
HETATM    4  H   UNL     1      -4.801   0.626 -30.817  1.00  0.00     0.192 HD
ENDROOT
BRANCH   2   5
HETATM    5  N   UNL     1      -3.464   2.087 -31.442  1.00  0.00    -0.184 NA
HETATM    6  C   UNL     1      -4.215   3.099 -31.732  1.00  0.00     0.152 C 
BRANCH   6   7
HETATM    7  C   UNL     1      -3.642   4.429 -31.710  1.00  0.00     0.011 A 
HETATM    8  C   UNL     1      -2.754   5.021 -32.666  1.00  0.00     0.004 A 
HETATM    9  C   UNL     1      -2.481   6.321 -32.234  1.00  0.00     0.043 A 
HETATM   10  C   UNL     1      -2.163   4.581 -33.871  1.00  0.00     0.014 A 
HETATM   11  C   UNL     1      -1.650   7.199 -32.939  1.00  0.00     0.030 A 
HETATM   12  N   UNL     1      -3.169   6.512 -31.059  1.00  0.00    -0.364 N 
HETATM   13  C   UNL     1      -1.081   6.738 -34.129  1.00  0.00     0.002 A 
HETATM   14  C   UNL     1      -1.332   5.449 -34.590  1.00  0.00     0.001 A 
HETATM   15  H   UNL     1      -3.161   7.366 -30.519  1.00  0.00     0.165 HD
HETATM   16  C   UNL     1      -3.874   5.385 -30.738  1.00  0.00     0.102 A 
ENDBRANCH   6   7
ENDBRANCH   2   5
BRANCH   1  17
HETATM   17  C   UNL     1      -4.367  -1.416 -32.268  1.00  0.00     0.280 C 
BRANCH  17  18
HETATM   18  O   UNL     1      -5.108  -1.780 -33.433  1.00  0.00    -0.342 OA
BRANCH  18  19
HETATM   19  C   UNL     1      -6.256  -1.052 -33.601  1.00  0.00     0.069 A 
HETATM   20  C   UNL     1      -7.066  -0.613 -32.551  1.00  0.00     0.044 A 
HETATM   21  C   UNL     1      -8.224   0.146 -32.802  1.00  0.00    -0.053 A 
HETATM   22  C   UNL     1      -8.575   0.452 -34.131  1.00  0.00    -0.056 A 
HETATM   23  C   UNL     1      -9.074   0.588 -31.642  1.00  0.00     0.049 C 
HETATM   24  C   UNL     1      -9.807   1.251 -34.457  1.00  0.00     0.049 C 
HETATM   25  C   UNL     1      -7.734   0.033 -35.175  1.00  0.00     0.010 A 
HETATM   26  C   UNL     1      -6.580  -0.707 -34.909  1.00  0.00     0.037 A 
ENDBRANCH  18  19
ENDBRANCH  17  18
ENDBRANCH   1  17
TORSDOF 5
ENDMDL
