MODEL 1
REMARK VINA RESULT:      -8.6      0.000      0.000
REMARK  8 active torsions:
REMARK  status: ('A' for Active; 'I' for Inactive)
REMARK    1  A    between atoms: N_2  and  C_4 
REMARK    2  A    between atoms: C_4  and  C_5 
REMARK    3  A    between atoms: C_5  and  N_6 
REMARK       I    between atoms: N_6  and  C_7 
REMARK    4  A    between atoms: N_6  and  C_23 
REMARK       I    between atoms: C_7  and  N_8 
REMARK    5  A    between atoms: N_8  and  C_9 
REMARK    6  A    between atoms: C_11  and  O_12 
REMARK    7  A    between atoms: O_12  and  C_13 
REMARK    8  A    between atoms: C_23  and  C_24 
ROOT
HETATM    1  N   UNL     1      -6.182   1.884 -32.321  1.00  0.00    -0.328 N 
HETATM    2  C   UNL     1      -5.084   2.725 -32.107  1.00  0.00     0.323 C 
HETATM    3  N   UNL     1      -4.603   3.319 -33.248  1.00  0.00    -0.309 N 
HETATM    4  O   UNL     1      -4.669   2.908 -30.966  1.00  0.00    -0.247 OA
HETATM    5  H   UNL     1      -5.148   3.181 -34.085  1.00  0.00     0.170 HD
ENDROOT
BRANCH   1   6
HETATM    6  C   UNL     1      -6.958   1.471 -31.156  1.00  0.00     0.155 C 
BRANCH   6   7
HETATM    7  C   UNL     1      -8.349   0.929 -31.519  1.00  0.00     0.254 C 
BRANCH   7   8
HETATM    8  N   UNL     1      -9.439   1.943 -31.193  1.00  0.00    -0.077 N 
HETATM    9  C   UNL     1     -10.124   2.478 -32.424  1.00  0.00     0.269 C 
HETATM   10  H   UNL     1     -10.158   1.468 -30.629  1.00  0.00     0.279 HD
HETATM   11  C   UNL     1      -8.914   3.065 -30.336  1.00  0.00     0.269 C 
ENDBRANCH   7   8
ENDBRANCH   6   7
ENDBRANCH   1   6
BRANCH   1  12
HETATM   12  C   UNL     1      -6.554   1.312 -33.621  1.00  0.00     0.166 C 
BRANCH  12  13
HETATM   13  C   UNL     1      -6.087  -0.108 -33.840  1.00  0.00    -0.040 A 
HETATM   14  C   UNL     1      -6.897  -1.091 -34.430  1.00  0.00     0.009 A 
HETATM   15  C   UNL     1      -6.399  -2.373 -34.668  1.00  0.00     0.001 A 
HETATM   16  C   UNL     1      -5.095  -2.695 -34.305  1.00  0.00     0.000 A 
HETATM   17  C   UNL     1      -4.289  -1.739 -33.694  1.00  0.00     0.001 A 
HETATM   18  C   UNL     1      -4.782  -0.455 -33.459  1.00  0.00     0.009 A 
ENDBRANCH  12  13
ENDBRANCH   1  12
BRANCH   3  19
HETATM   19  C   UNL     1      -3.619   4.319 -33.382  1.00  0.00     0.042 A 
HETATM   20  C   UNL     1      -2.470   4.156 -32.605  1.00  0.00     0.087 A 
HETATM   21  C   UNL     1      -1.450   5.087 -32.709  1.00  0.00     0.171 A 
HETATM   22  N   UNL     1      -1.509   6.160 -33.521  1.00  0.00    -0.237 NA
HETATM   23  C   UNL     1      -2.633   6.297 -34.260  1.00  0.00     0.122 A 
HETATM   24  C   UNL     1      -3.705   5.413 -34.229  1.00  0.00     0.049 A 
BRANCH  21  25
HETATM   25  O   UNL     1      -0.342   4.821 -31.909  1.00  0.00    -0.292 OA
BRANCH  25  26
HETATM   26  C   UNL     1      -0.162   5.552 -30.766  1.00  0.00     0.077 A 
HETATM   27  C   UNL     1      -0.447   6.915 -30.700  1.00  0.00     0.037 A 
HETATM   28  C   UNL     1      -0.124   7.634 -29.548  1.00  0.00     0.003 A 
HETATM   29  C   UNL     1       0.501   6.995 -28.476  1.00  0.00     0.000 A 
HETATM   30  C   UNL     1       0.805   5.635 -28.552  1.00  0.00     0.003 A 
HETATM   31  C   UNL     1       0.481   4.915 -29.702  1.00  0.00     0.037 A 
ENDBRANCH  25  26
ENDBRANCH  21  25
ENDBRANCH   3  19
TORSDOF 8
ENDMDL
MODEL 2
REMARK VINA RESULT:      -8.6      1.780      2.229
REMARK  8 active torsions:
REMARK  status: ('A' for Active; 'I' for Inactive)
REMARK    1  A    between atoms: N_2  and  C_4 
REMARK    2  A    between atoms: C_4  and  C_5 
REMARK    3  A    between atoms: C_5  and  N_6 
REMARK       I    between atoms: N_6  and  C_7 
REMARK    4  A    between atoms: N_6  and  C_23 
REMARK       I    between atoms: C_7  and  N_8 
REMARK    5  A    between atoms: N_8  and  C_9 
REMARK    6  A    between atoms: C_11  and  O_12 
REMARK    7  A    between atoms: O_12  and  C_13 
REMARK    8  A    between atoms: C_23  and  C_24 
ROOT
HETATM    1  N   UNL     1      -7.963   1.154 -33.364  1.00  0.00    -0.328 N 
HETATM    2  C   UNL     1      -7.336   2.393 -33.540  1.00  0.00     0.323 C 
HETATM    3  N   UNL     1      -6.012   2.407 -33.172  1.00  0.00    -0.309 N 
HETATM    4  O   UNL     1      -7.959   3.329 -34.030  1.00  0.00    -0.247 OA
HETATM    5  H   UNL     1      -5.609   1.515 -32.928  1.00  0.00     0.170 HD
ENDROOT
BRANCH   1   6
HETATM    6  C   UNL     1      -9.252   0.949 -34.018  1.00  0.00     0.155 C 
BRANCH   6   7
HETATM    7  C   UNL     1     -10.315   0.355 -33.079  1.00  0.00     0.254 C 
BRANCH   7   8
HETATM    8  N   UNL     1     -11.606   1.164 -33.128  1.00  0.00    -0.077 N 
HETATM    9  C   UNL     1     -12.763   0.382 -33.693  1.00  0.00     0.269 C 
HETATM   10  H   UNL     1     -11.857   1.421 -32.163  1.00  0.00     0.279 HD
HETATM   11  C   UNL     1     -11.419   2.462 -33.868  1.00  0.00     0.269 C 
ENDBRANCH   7   8
ENDBRANCH   6   7
ENDBRANCH   1   6
BRANCH   1  12
HETATM   12  C   UNL     1      -7.466   0.082 -32.494  1.00  0.00     0.166 C 
BRANCH  12  13
HETATM   13  C   UNL     1      -6.601  -0.943 -33.189  1.00  0.00    -0.040 A 
HETATM   14  C   UNL     1      -7.107  -1.845 -34.139  1.00  0.00     0.009 A 
HETATM   15  C   UNL     1      -6.257  -2.733 -34.800  1.00  0.00     0.001 A 
HETATM   16  C   UNL     1      -4.896  -2.744 -34.509  1.00  0.00     0.000 A 
HETATM   17  C   UNL     1      -4.383  -1.875 -33.551  1.00  0.00     0.001 A 
HETATM   18  C   UNL     1      -5.230  -0.982 -32.891  1.00  0.00     0.009 A 
ENDBRANCH  12  13
ENDBRANCH   1  12
BRANCH   3  19
HETATM   19  C   UNL     1      -5.052   3.422 -33.348  1.00  0.00     0.042 A 
HETATM   20  C   UNL     1      -3.915   3.336 -32.542  1.00  0.00     0.087 A 
HETATM   21  C   UNL     1      -2.917   4.286 -32.682  1.00  0.00     0.171 A 
HETATM   22  N   UNL     1      -2.986   5.307 -33.558  1.00  0.00    -0.237 NA
HETATM   23  C   UNL     1      -4.099   5.371 -34.324  1.00  0.00     0.122 A 
HETATM   24  C   UNL     1      -5.148   4.462 -34.260  1.00  0.00     0.049 A 
BRANCH  21  25
HETATM   25  O   UNL     1      -1.818   4.097 -31.848  1.00  0.00    -0.292 OA
BRANCH  25  26
HETATM   26  C   UNL     1      -1.303   5.174 -31.178  1.00  0.00     0.077 A 
HETATM   27  C   UNL     1      -2.104   6.043 -30.438  1.00  0.00     0.037 A 
HETATM   28  C   UNL     1      -1.544   7.194 -29.882  1.00  0.00     0.003 A 
HETATM   29  C   UNL     1      -0.194   7.485 -30.085  1.00  0.00     0.000 A 
HETATM   30  C   UNL     1       0.600   6.625 -30.845  1.00  0.00     0.003 A 
HETATM   31  C   UNL     1       0.042   5.473 -31.399  1.00  0.00     0.037 A 
ENDBRANCH  25  26
ENDBRANCH  21  25
ENDBRANCH   3  19
TORSDOF 8
ENDMDL
MODEL 3
REMARK VINA RESULT:      -8.5      2.680      8.764
REMARK  8 active torsions:
REMARK  status: ('A' for Active; 'I' for Inactive)
REMARK    1  A    between atoms: N_2  and  C_4 
REMARK    2  A    between atoms: C_4  and  C_5 
REMARK    3  A    between atoms: C_5  and  N_6 
REMARK       I    between atoms: N_6  and  C_7 
REMARK    4  A    between atoms: N_6  and  C_23 
REMARK       I    between atoms: C_7  and  N_8 
REMARK    5  A    between atoms: N_8  and  C_9 
REMARK    6  A    between atoms: C_11  and  O_12 
REMARK    7  A    between atoms: O_12  and  C_13 
REMARK    8  A    between atoms: C_23  and  C_24 
ROOT
HETATM    1  N   UNL     1      -3.611   5.223 -31.598  1.00  0.00    -0.328 N 
HETATM    2  C   UNL     1      -3.686   3.827 -31.542  1.00  0.00     0.323 C 
HETATM    3  N   UNL     1      -4.958   3.342 -31.359  1.00  0.00    -0.309 N 
HETATM    4  O   UNL     1      -2.671   3.154 -31.698  1.00  0.00    -0.247 OA
HETATM    5  H   UNL     1      -5.703   4.020 -31.398  1.00  0.00     0.170 HD
ENDROOT
BRANCH   1   6
HETATM    6  C   UNL     1      -2.378   5.816 -32.107  1.00  0.00     0.155 C 
BRANCH   6   7
HETATM    7  C   UNL     1      -2.621   6.846 -33.223  1.00  0.00     0.254 C 
BRANCH   7   8
HETATM    8  N   UNL     1      -2.480   6.209 -34.601  1.00  0.00    -0.077 N 
HETATM    9  C   UNL     1      -3.685   5.394 -34.992  1.00  0.00     0.269 C 
HETATM   10  H   UNL     1      -2.388   6.966 -35.293  1.00  0.00     0.279 HD
HETATM   11  C   UNL     1      -1.218   5.394 -34.708  1.00  0.00     0.269 C 
ENDBRANCH   7   8
ENDBRANCH   6   7
ENDBRANCH   1   6
BRANCH   1  12
HETATM   12  C   UNL     1      -4.644   6.136 -31.093  1.00  0.00     0.166 C 
BRANCH  12  13
HETATM   13  C   UNL     1      -4.621   6.348 -29.597  1.00  0.00    -0.040 A 
HETATM   14  C   UNL     1      -5.493   5.682 -28.722  1.00  0.00     0.009 A 
HETATM   15  C   UNL     1      -5.391   5.864 -27.342  1.00  0.00     0.001 A 
HETATM   16  C   UNL     1      -4.432   6.727 -26.820  1.00  0.00     0.000 A 
HETATM   17  C   UNL     1      -3.578   7.415 -27.676  1.00  0.00     0.001 A 
HETATM   18  C   UNL     1      -3.673   7.231 -29.057  1.00  0.00     0.009 A 
ENDBRANCH  12  13
ENDBRANCH   1  12
BRANCH   3  19
HETATM   19  C   UNL     1      -5.415   2.010 -31.401  1.00  0.00     0.042 A 
HETATM   20  C   UNL     1      -5.340   1.376 -32.643  1.00  0.00     0.087 A 
HETATM   21  C   UNL     1      -5.747   0.056 -32.751  1.00  0.00     0.171 A 
HETATM   22  N   UNL     1      -6.225  -0.657 -31.713  1.00  0.00    -0.237 NA
HETATM   23  C   UNL     1      -6.292  -0.019 -30.522  1.00  0.00     0.122 A 
HETATM   24  C   UNL     1      -5.902   1.299 -30.315  1.00  0.00     0.049 A 
BRANCH  21  25
HETATM   25  O   UNL     1      -5.611  -0.488 -34.025  1.00  0.00    -0.292 OA
BRANCH  25  26
HETATM   26  C   UNL     1      -5.574  -1.850 -34.161  1.00  0.00     0.077 A 
HETATM   27  C   UNL     1      -4.398  -2.582 -34.011  1.00  0.00     0.037 A 
HETATM   28  C   UNL     1      -4.395  -3.951 -34.286  1.00  0.00     0.003 A 
HETATM   29  C   UNL     1      -5.561  -4.578 -34.730  1.00  0.00     0.000 A 
HETATM   30  C   UNL     1      -6.732  -3.839 -34.901  1.00  0.00     0.003 A 
HETATM   31  C   UNL     1      -6.736  -2.472 -34.624  1.00  0.00     0.037 A 
ENDBRANCH  25  26
ENDBRANCH  21  25
ENDBRANCH   3  19
TORSDOF 8
ENDMDL
MODEL 4
REMARK VINA RESULT:      -8.4      2.598      8.678
REMARK  8 active torsions:
REMARK  status: ('A' for Active; 'I' for Inactive)
REMARK    1  A    between atoms: N_2  and  C_4 
REMARK    2  A    between atoms: C_4  and  C_5 
REMARK    3  A    between atoms: C_5  and  N_6 
REMARK       I    between atoms: N_6  and  C_7 
REMARK    4  A    between atoms: N_6  and  C_23 
REMARK       I    between atoms: C_7  and  N_8 
REMARK    5  A    between atoms: N_8  and  C_9 
REMARK    6  A    between atoms: C_11  and  O_12 
REMARK    7  A    between atoms: O_12  and  C_13 
REMARK    8  A    between atoms: C_23  and  C_24 
ROOT
HETATM    1  N   UNL     1      -5.085   1.424 -32.080  1.00  0.00    -0.328 N 
HETATM    2  C   UNL     1      -6.145   2.319 -32.264  1.00  0.00     0.323 C 
HETATM    3  N   UNL     1      -7.310   1.944 -31.640  1.00  0.00    -0.309 N 
HETATM    4  O   UNL     1      -5.967   3.354 -32.900  1.00  0.00    -0.247 OA
HETATM    5  H   UNL     1      -7.250   1.140 -31.033  1.00  0.00     0.170 HD
ENDROOT
BRANCH   1   6
HETATM    6  C   UNL     1      -3.743   1.885 -32.420  1.00  0.00     0.155 C 
BRANCH   6   7
HETATM    7  C   UNL     1      -3.187   2.913 -31.421  1.00  0.00     0.254 C 
BRANCH   7   8
HETATM    8  N   UNL     1      -3.088   4.297 -32.052  1.00  0.00    -0.077 N 
HETATM    9  C   UNL     1      -2.389   4.280 -33.387  1.00  0.00     0.269 C 
HETATM   10  H   UNL     1      -4.045   4.641 -32.215  1.00  0.00     0.279 HD
HETATM   11  C   UNL     1      -2.445   5.287 -31.117  1.00  0.00     0.269 C 
ENDBRANCH   7   8
ENDBRANCH   6   7
ENDBRANCH   1   6
BRANCH   1  12
HETATM   12  C   UNL     1      -5.236   0.026 -31.660  1.00  0.00     0.166 C 
BRANCH  12  13
HETATM   13  C   UNL     1      -5.367  -0.962 -32.795  1.00  0.00    -0.040 A 
HETATM   14  C   UNL     1      -4.291  -1.742 -33.250  1.00  0.00     0.009 A 
HETATM   15  C   UNL     1      -4.476  -2.686 -34.262  1.00  0.00     0.001 A 
HETATM   16  C   UNL     1      -5.730  -2.851 -34.843  1.00  0.00     0.000 A 
HETATM   17  C   UNL     1      -6.800  -2.067 -34.421  1.00  0.00     0.001 A 
HETATM   18  C   UNL     1      -6.619  -1.125 -33.406  1.00  0.00     0.009 A 
ENDBRANCH  12  13
ENDBRANCH   1  12
BRANCH   3  19
HETATM   19  C   UNL     1      -8.511   2.664 -31.493  1.00  0.00     0.042 A 
HETATM   20  C   UNL     1      -9.418   2.566 -32.550  1.00  0.00     0.087 A 
HETATM   21  C   UNL     1     -10.632   3.226 -32.460  1.00  0.00     0.171 A 
HETATM   22  N   UNL     1     -10.989   3.974 -31.398  1.00  0.00    -0.237 NA
HETATM   23  C   UNL     1     -10.093   4.057 -30.388  1.00  0.00     0.122 A 
HETATM   24  C   UNL     1      -8.854   3.426 -30.386  1.00  0.00     0.049 A 
BRANCH  21  25
HETATM   25  O   UNL     1     -11.470   3.046 -33.557  1.00  0.00    -0.292 OA
BRANCH  25  26
HETATM   26  C   UNL     1     -12.456   2.098 -33.486  1.00  0.00     0.077 A 
HETATM   27  C   UNL     1     -12.212   0.750 -33.744  1.00  0.00     0.037 A 
HETATM   28  C   UNL     1     -13.278  -0.150 -33.781  1.00  0.00     0.003 A 
HETATM   29  C   UNL     1     -14.584   0.302 -33.583  1.00  0.00     0.000 A 
HETATM   30  C   UNL     1     -14.827   1.655 -33.347  1.00  0.00     0.003 A 
HETATM   31  C   UNL     1     -13.763   2.555 -33.307  1.00  0.00     0.037 A 
ENDBRANCH  25  26
ENDBRANCH  21  25
ENDBRANCH   3  19
TORSDOF 8
ENDMDL
MODEL 5
REMARK VINA RESULT:      -8.4      1.912      2.669
REMARK  8 active torsions:
REMARK  status: ('A' for Active; 'I' for Inactive)
REMARK    1  A    between atoms: N_2  and  C_4 
REMARK    2  A    between atoms: C_4  and  C_5 
REMARK    3  A    between atoms: C_5  and  N_6 
REMARK       I    between atoms: N_6  and  C_7 
REMARK    4  A    between atoms: N_6  and  C_23 
REMARK       I    between atoms: C_7  and  N_8 
REMARK    5  A    between atoms: N_8  and  C_9 
REMARK    6  A    between atoms: C_11  and  O_12 
REMARK    7  A    between atoms: O_12  and  C_13 
REMARK    8  A    between atoms: C_23  and  C_24 
ROOT
HETATM    1  N   UNL     1      -8.190   0.888 -33.320  1.00  0.00    -0.328 N 
HETATM    2  C   UNL     1      -7.611   1.678 -32.320  1.00  0.00     0.323 C 
HETATM    3  N   UNL     1      -6.508   2.383 -32.732  1.00  0.00    -0.309 N 
HETATM    4  O   UNL     1      -8.125   1.725 -31.206  1.00  0.00    -0.247 OA
HETATM    5  H   UNL     1      -6.301   2.350 -33.718  1.00  0.00     0.170 HD
ENDROOT
BRANCH   1   6
HETATM    6  C   UNL     1      -9.531   0.365 -33.080  1.00  0.00     0.155 C 
BRANCH   6   7
HETATM    7  C   UNL     1     -10.599   1.008 -33.981  1.00  0.00     0.254 C 
BRANCH   7   8
HETATM    8  N   UNL     1     -11.893   1.252 -33.214  1.00  0.00    -0.077 N 
HETATM    9  C   UNL     1     -13.064   0.502 -33.794  1.00  0.00     0.269 C 
HETATM   10  H   UNL     1     -11.762   0.911 -32.251  1.00  0.00     0.279 HD
HETATM   11  C   UNL     1     -12.198   2.722 -33.096  1.00  0.00     0.269 C 
ENDBRANCH   7   8
ENDBRANCH   6   7
ENDBRANCH   1   6
BRANCH   1  12
HETATM   12  C   UNL     1      -7.510   0.470 -34.552  1.00  0.00     0.166 C 
BRANCH  12  13
HETATM   13  C   UNL     1      -6.617  -0.739 -34.398  1.00  0.00    -0.040 A 
HETATM   14  C   UNL     1      -7.022  -2.033 -34.762  1.00  0.00     0.009 A 
HETATM   15  C   UNL     1      -6.139  -3.109 -34.659  1.00  0.00     0.001 A 
HETATM   16  C   UNL     1      -4.849  -2.911 -34.175  1.00  0.00     0.000 A 
HETATM   17  C   UNL     1      -4.441  -1.639 -33.785  1.00  0.00     0.001 A 
HETATM   18  C   UNL     1      -5.320  -0.560 -33.892  1.00  0.00     0.009 A 
ENDBRANCH  12  13
ENDBRANCH   1  12
BRANCH   3  19
HETATM   19  C   UNL     1      -5.777   3.372 -32.044  1.00  0.00     0.042 A 
HETATM   20  C   UNL     1      -4.390   3.215 -32.037  1.00  0.00     0.087 A 
HETATM   21  C   UNL     1      -3.607   4.165 -31.403  1.00  0.00     0.171 A 
HETATM   22  N   UNL     1      -4.116   5.243 -30.776  1.00  0.00    -0.237 NA
HETATM   23  C   UNL     1      -5.463   5.371 -30.793  1.00  0.00     0.122 A 
HETATM   24  C   UNL     1      -6.328   4.474 -31.408  1.00  0.00     0.049 A 
BRANCH  21  25
HETATM   25  O   UNL     1      -2.237   3.926 -31.474  1.00  0.00    -0.292 OA
BRANCH  25  26
HETATM   26  C   UNL     1      -1.376   4.988 -31.393  1.00  0.00     0.077 A 
HETATM   27  C   UNL     1      -1.300   5.962 -32.387  1.00  0.00     0.037 A 
HETATM   28  C   UNL     1      -0.317   6.950 -32.313  1.00  0.00     0.003 A 
HETATM   29  C   UNL     1       0.599   6.949 -31.259  1.00  0.00     0.000 A 
HETATM   30  C   UNL     1       0.534   5.960 -30.277  1.00  0.00     0.003 A 
HETATM   31  C   UNL     1      -0.449   4.974 -30.349  1.00  0.00     0.037 A 
ENDBRANCH  25  26
ENDBRANCH  21  25
ENDBRANCH   3  19
TORSDOF 8
ENDMDL
MODEL 6
REMARK VINA RESULT:      -8.3      1.466      3.373
REMARK  8 active torsions:
REMARK  status: ('A' for Active; 'I' for Inactive)
REMARK    1  A    between atoms: N_2  and  C_4 
REMARK    2  A    between atoms: C_4  and  C_5 
REMARK    3  A    between atoms: C_5  and  N_6 
REMARK       I    between atoms: N_6  and  C_7 
REMARK    4  A    between atoms: N_6  and  C_23 
REMARK       I    between atoms: C_7  and  N_8 
REMARK    5  A    between atoms: N_8  and  C_9 
REMARK    6  A    between atoms: C_11  and  O_12 
REMARK    7  A    between atoms: O_12  and  C_13 
REMARK    8  A    between atoms: C_23  and  C_24 
ROOT
HETATM    1  N   UNL     1      -5.357   1.306 -31.542  1.00  0.00    -0.328 N 
HETATM    2  C   UNL     1      -4.322   1.916 -32.260  1.00  0.00     0.323 C 
HETATM    3  N   UNL     1      -4.421   3.284 -32.329  1.00  0.00    -0.309 N 
HETATM    4  O   UNL     1      -3.412   1.233 -32.720  1.00  0.00    -0.247 OA
HETATM    5  H   UNL     1      -5.148   3.707 -31.773  1.00  0.00     0.170 HD
ENDROOT
BRANCH   1   6
HETATM    6  C   UNL     1      -5.173  -0.084 -31.138  1.00  0.00     0.155 C 
BRANCH   6   7
HETATM    7  C   UNL     1      -5.519  -1.086 -32.251  1.00  0.00     0.254 C 
BRANCH   7   8
HETATM    8  N   UNL     1      -4.263  -1.574 -32.964  1.00  0.00    -0.077 N 
HETATM    9  C   UNL     1      -4.569  -2.473 -34.134  1.00  0.00     0.269 C 
HETATM   10  H   UNL     1      -3.768  -0.752 -33.335  1.00  0.00     0.279 HD
HETATM   11  C   UNL     1      -3.307  -2.238 -32.008  1.00  0.00     0.269 C 
ENDBRANCH   7   8
ENDBRANCH   6   7
ENDBRANCH   1   6
BRANCH   1  12
HETATM   12  C   UNL     1      -6.652   1.932 -31.248  1.00  0.00     0.166 C 
BRANCH  12  13
HETATM   13  C   UNL     1      -7.775   1.517 -32.170  1.00  0.00    -0.040 A 
HETATM   14  C   UNL     1      -8.781   0.617 -31.782  1.00  0.00     0.009 A 
HETATM   15  C   UNL     1      -9.833   0.312 -32.648  1.00  0.00     0.001 A 
HETATM   16  C   UNL     1      -9.884   0.885 -33.915  1.00  0.00     0.000 A 
HETATM   17  C   UNL     1      -8.880   1.758 -34.323  1.00  0.00     0.001 A 
HETATM   18  C   UNL     1      -7.830   2.069 -33.458  1.00  0.00     0.009 A 
ENDBRANCH  12  13
ENDBRANCH   1  12
BRANCH   3  19
HETATM   19  C   UNL     1      -3.495   4.217 -32.837  1.00  0.00     0.042 A 
HETATM   20  C   UNL     1      -2.248   4.247 -32.208  1.00  0.00     0.087 A 
HETATM   21  C   UNL     1      -1.280   5.121 -32.674  1.00  0.00     0.171 A 
HETATM   22  N   UNL     1      -1.479   5.961 -33.708  1.00  0.00    -0.237 NA
HETATM   23  C   UNL     1      -2.695   5.916 -34.298  1.00  0.00     0.122 A 
HETATM   24  C   UNL     1      -3.726   5.070 -33.905  1.00  0.00     0.049 A 
BRANCH  21  25
HETATM   25  O   UNL     1      -0.068   5.056 -31.993  1.00  0.00    -0.292 OA
BRANCH  25  26
HETATM   26  C   UNL     1       0.050   5.700 -30.790  1.00  0.00     0.077 A 
HETATM   27  C   UNL     1      -0.116   7.078 -30.664  1.00  0.00     0.037 A 
HETATM   28  C   UNL     1       0.140   7.696 -29.439  1.00  0.00     0.003 A 
HETATM   29  C   UNL     1       0.581   6.939 -28.352  1.00  0.00     0.000 A 
HETATM   30  C   UNL     1       0.767   5.563 -28.486  1.00  0.00     0.003 A 
HETATM   31  C   UNL     1       0.509   4.944 -29.709  1.00  0.00     0.037 A 
ENDBRANCH  25  26
ENDBRANCH  21  25
ENDBRANCH   3  19
TORSDOF 8
ENDMDL
MODEL 7
REMARK VINA RESULT:      -8.2      2.494      8.303
REMARK  8 active torsions:
REMARK  status: ('A' for Active; 'I' for Inactive)
REMARK    1  A    between atoms: N_2  and  C_4 
REMARK    2  A    between atoms: C_4  and  C_5 
REMARK    3  A    between atoms: C_5  and  N_6 
REMARK       I    between atoms: N_6  and  C_7 
REMARK    4  A    between atoms: N_6  and  C_23 
REMARK       I    between atoms: C_7  and  N_8 
REMARK    5  A    between atoms: N_8  and  C_9 
REMARK    6  A    between atoms: C_11  and  O_12 
REMARK    7  A    between atoms: O_12  and  C_13 
REMARK    8  A    between atoms: C_23  and  C_24 
ROOT
HETATM    1  N   UNL     1      -4.898   5.606 -32.727  1.00  0.00    -0.328 N 
HETATM    2  C   UNL     1      -5.700   4.488 -32.467  1.00  0.00     0.323 C 
HETATM    3  N   UNL     1      -5.066   3.286 -32.669  1.00  0.00    -0.309 N 
HETATM    4  O   UNL     1      -6.845   4.640 -32.052  1.00  0.00    -0.247 OA
HETATM    5  H   UNL     1      -4.079   3.332 -32.868  1.00  0.00     0.170 HD
ENDROOT
BRANCH   1   6
HETATM    6  C   UNL     1      -5.362   6.900 -32.239  1.00  0.00     0.155 C 
BRANCH   6   7
HETATM    7  C   UNL     1      -5.007   7.151 -30.765  1.00  0.00     0.254 C 
BRANCH   7   8
HETATM    8  N   UNL     1      -6.078   6.591 -29.836  1.00  0.00    -0.077 N 
HETATM    9  C   UNL     1      -6.872   7.669 -29.145  1.00  0.00     0.269 C 
HETATM   10  H   UNL     1      -6.741   6.046 -30.406  1.00  0.00     0.279 HD
HETATM   11  C   UNL     1      -5.497   5.624 -28.839  1.00  0.00     0.269 C 
ENDBRANCH   7   8
ENDBRANCH   6   7
ENDBRANCH   1   6
BRANCH   1  12
HETATM   12  C   UNL     1      -3.674   5.585 -33.537  1.00  0.00     0.166 C 
BRANCH  12  13
HETATM   13  C   UNL     1      -2.399   5.803 -32.756  1.00  0.00    -0.040 A 
HETATM   14  C   UNL     1      -1.559   6.908 -32.968  1.00  0.00     0.009 A 
HETATM   15  C   UNL     1      -0.424   7.099 -32.178  1.00  0.00     0.001 A 
HETATM   16  C   UNL     1      -0.104   6.182 -31.181  1.00  0.00     0.000 A 
HETATM   17  C   UNL     1      -0.912   5.068 -30.977  1.00  0.00     0.001 A 
HETATM   18  C   UNL     1      -2.051   4.876 -31.761  1.00  0.00     0.009 A 
ENDBRANCH  12  13
ENDBRANCH   1  12
BRANCH   3  19
HETATM   19  C   UNL     1      -5.514   1.984 -32.370  1.00  0.00     0.042 A 
HETATM   20  C   UNL     1      -5.685   1.130 -33.460  1.00  0.00     0.087 A 
HETATM   21  C   UNL     1      -6.097  -0.174 -33.237  1.00  0.00     0.171 A 
HETATM   22  N   UNL     1      -6.352  -0.668 -32.010  1.00  0.00    -0.237 NA
HETATM   23  C   UNL     1      -6.182   0.180 -30.970  1.00  0.00     0.122 A 
HETATM   24  C   UNL     1      -5.768   1.501 -31.095  1.00  0.00     0.049 A 
BRANCH  21  25
HETATM   25  O   UNL     1      -6.215  -0.948 -34.388  1.00  0.00    -0.292 OA
BRANCH  25  26
HETATM   26  C   UNL     1      -5.826  -2.260 -34.345  1.00  0.00     0.077 A 
HETATM   27  C   UNL     1      -4.517  -2.639 -34.053  1.00  0.00     0.037 A 
HETATM   28  C   UNL     1      -4.149  -3.982 -34.148  1.00  0.00     0.003 A 
HETATM   29  C   UNL     1      -5.083  -4.937 -34.554  1.00  0.00     0.000 A 
HETATM   30  C   UNL     1      -6.387  -4.552 -34.866  1.00  0.00     0.003 A 
HETATM   31  C   UNL     1      -6.756  -3.210 -34.770  1.00  0.00     0.037 A 
ENDBRANCH  25  26
ENDBRANCH  21  25
ENDBRANCH   3  19
TORSDOF 8
ENDMDL
MODEL 8
REMARK VINA RESULT:      -8.1      4.190      8.300
REMARK  8 active torsions:
REMARK  status: ('A' for Active; 'I' for Inactive)
REMARK    1  A    between atoms: N_2  and  C_4 
REMARK    2  A    between atoms: C_4  and  C_5 
REMARK    3  A    between atoms: C_5  and  N_6 
REMARK       I    between atoms: N_6  and  C_7 
REMARK    4  A    between atoms: N_6  and  C_23 
REMARK       I    between atoms: C_7  and  N_8 
REMARK    5  A    between atoms: N_8  and  C_9 
REMARK    6  A    between atoms: C_11  and  O_12 
REMARK    7  A    between atoms: O_12  and  C_13 
REMARK    8  A    between atoms: C_23  and  C_24 
ROOT
HETATM    1  N   UNL     1      -7.024  -0.055 -32.781  1.00  0.00    -0.328 N 
HETATM    2  C   UNL     1      -8.268   0.569 -32.638  1.00  0.00     0.323 C 
HETATM    3  N   UNL     1      -9.033   0.559 -33.779  1.00  0.00    -0.309 N 
HETATM    4  O   UNL     1      -8.603   1.022 -31.548  1.00  0.00    -0.247 OA
HETATM    5  H   UNL     1      -8.676   0.016 -34.550  1.00  0.00     0.170 HD
ENDROOT
BRANCH   1   6
HETATM    6  C   UNL     1      -6.286  -0.381 -31.565  1.00  0.00     0.155 C 
BRANCH   6   7
HETATM    7  C   UNL     1      -5.068   0.528 -31.336  1.00  0.00     0.254 C 
BRANCH   7   8
HETATM    8  N   UNL     1      -5.460   2.000 -31.391  1.00  0.00    -0.077 N 
HETATM    9  C   UNL     1      -4.661   2.778 -32.404  1.00  0.00     0.269 C 
HETATM   10  H   UNL     1      -6.448   2.056 -31.678  1.00  0.00     0.279 HD
HETATM   11  C   UNL     1      -5.386   2.644 -30.033  1.00  0.00     0.269 C 
ENDBRANCH   7   8
ENDBRANCH   6   7
ENDBRANCH   1   6
BRANCH   1  12
HETATM   12  C   UNL     1      -6.364  -0.319 -34.065  1.00  0.00     0.166 C 
BRANCH  12  13
HETATM   13  C   UNL     1      -5.995  -1.765 -34.298  1.00  0.00    -0.040 A 
HETATM   14  C   UNL     1      -4.681  -2.243 -34.170  1.00  0.00     0.009 A 
HETATM   15  C   UNL     1      -4.399  -3.600 -34.334  1.00  0.00     0.001 A 
HETATM   16  C   UNL     1      -5.420  -4.493 -34.646  1.00  0.00     0.000 A 
HETATM   17  C   UNL     1      -6.723  -4.031 -34.803  1.00  0.00     0.001 A 
HETATM   18  C   UNL     1      -7.009  -2.675 -34.634  1.00  0.00     0.009 A 
ENDBRANCH  12  13
ENDBRANCH   1  12
BRANCH   3  19
HETATM   19  C   UNL     1     -10.373   0.959 -33.955  1.00  0.00     0.042 A 
HETATM   20  C   UNL     1     -10.579   2.068 -34.778  1.00  0.00     0.087 A 
HETATM   21  C   UNL     1     -11.873   2.498 -35.017  1.00  0.00     0.171 A 
HETATM   22  N   UNL     1     -12.959   1.905 -34.485  1.00  0.00    -0.237 NA
HETATM   23  C   UNL     1     -12.734   0.835 -33.688  1.00  0.00     0.122 A 
HETATM   24  C   UNL     1     -11.473   0.327 -33.396  1.00  0.00     0.049 A 
BRANCH  21  25
HETATM   25  O   UNL     1     -11.969   3.596 -35.867  1.00  0.00    -0.292 OA
BRANCH  25  26
HETATM   26  C   UNL     1     -11.901   4.855 -35.332  1.00  0.00     0.077 A 
HETATM   27  C   UNL     1     -13.038   5.556 -34.933  1.00  0.00     0.037 A 
HETATM   28  C   UNL     1     -12.920   6.882 -34.513  1.00  0.00     0.003 A 
HETATM   29  C   UNL     1     -11.672   7.508 -34.513  1.00  0.00     0.000 A 
HETATM   30  C   UNL     1     -10.539   6.811 -34.934  1.00  0.00     0.003 A 
HETATM   31  C   UNL     1     -10.656   5.486 -35.352  1.00  0.00     0.037 A 
ENDBRANCH  25  26
ENDBRANCH  21  25
ENDBRANCH   3  19
TORSDOF 8
ENDMDL
MODEL 9
REMARK VINA RESULT:      -7.9      5.061      8.465
REMARK  8 active torsions:
REMARK  status: ('A' for Active; 'I' for Inactive)
REMARK    1  A    between atoms: N_2  and  C_4 
REMARK    2  A    between atoms: C_4  and  C_5 
REMARK    3  A    between atoms: C_5  and  N_6 
REMARK       I    between atoms: N_6  and  C_7 
REMARK    4  A    between atoms: N_6  and  C_23 
REMARK       I    between atoms: C_7  and  N_8 
REMARK    5  A    between atoms: N_8  and  C_9 
REMARK    6  A    between atoms: C_11  and  O_12 
REMARK    7  A    between atoms: O_12  and  C_13 
REMARK    8  A    between atoms: C_23  and  C_24 
ROOT
HETATM    1  N   UNL     1     -10.599   4.128 -33.460  1.00  0.00    -0.328 N 
HETATM    2  C   UNL     1      -9.716   3.376 -32.676  1.00  0.00     0.323 C 
HETATM    3  N   UNL     1      -9.326   2.192 -33.252  1.00  0.00    -0.309 N 
HETATM    4  O   UNL     1      -9.329   3.818 -31.598  1.00  0.00    -0.247 OA
HETATM    5  H   UNL     1      -9.617   2.044 -34.206  1.00  0.00     0.170 HD
ENDROOT
BRANCH   1   6
HETATM    6  C   UNL     1     -10.812   5.524 -33.092  1.00  0.00     0.155 C 
BRANCH   6   7
HETATM    7  C   UNL     1      -9.683   6.452 -33.570  1.00  0.00     0.254 C 
BRANCH   7   8
HETATM    8  N   UNL     1      -8.774   6.856 -32.415  1.00  0.00    -0.077 N 
HETATM    9  C   UNL     1      -8.811   8.336 -32.135  1.00  0.00     0.269 C 
HETATM   10  H   UNL     1      -9.108   6.379 -31.565  1.00  0.00     0.279 HD
HETATM   11  C   UNL     1      -7.362   6.381 -32.629  1.00  0.00     0.269 C 
ENDBRANCH   7   8
ENDBRANCH   6   7
ENDBRANCH   1   6
BRANCH   1  12
HETATM   12  C   UNL     1     -11.397   3.590 -34.568  1.00  0.00     0.166 C 
BRANCH  12  13
HETATM   13  C   UNL     1     -12.510   2.658 -34.147  1.00  0.00    -0.040 A 
HETATM   14  C   UNL     1     -13.470   3.008 -33.185  1.00  0.00     0.009 A 
HETATM   15  C   UNL     1     -14.516   2.136 -32.875  1.00  0.00     0.001 A 
HETATM   16  C   UNL     1     -14.605   0.899 -33.506  1.00  0.00     0.000 A 
HETATM   17  C   UNL     1     -13.645   0.527 -34.443  1.00  0.00     0.001 A 
HETATM   18  C   UNL     1     -12.601   1.398 -34.759  1.00  0.00     0.009 A 
ENDBRANCH  12  13
ENDBRANCH   1  12
BRANCH   3  19
HETATM   19  C   UNL     1      -8.350   1.272 -32.819  1.00  0.00     0.042 A 
HETATM   20  C   UNL     1      -7.677   0.575 -33.824  1.00  0.00     0.087 A 
HETATM   21  C   UNL     1      -6.685  -0.325 -33.471  1.00  0.00     0.171 A 
HETATM   22  N   UNL     1      -6.334  -0.574 -32.194  1.00  0.00    -0.237 NA
HETATM   23  C   UNL     1      -7.003   0.111 -31.239  1.00  0.00     0.122 A 
HETATM   24  C   UNL     1      -8.008   1.037 -31.496  1.00  0.00     0.049 A 
BRANCH  21  25
HETATM   25  O   UNL     1      -6.062  -0.949 -34.547  1.00  0.00    -0.292 OA
BRANCH  25  26
HETATM   26  C   UNL     1      -5.737  -2.275 -34.444  1.00  0.00     0.077 A 
HETATM   27  C   UNL     1      -4.442  -2.704 -34.156  1.00  0.00     0.037 A 
HETATM   28  C   UNL     1      -4.142  -4.067 -34.189  1.00  0.00     0.003 A 
HETATM   29  C   UNL     1      -5.129  -4.994 -34.528  1.00  0.00     0.000 A 
HETATM   30  C   UNL     1      -6.419  -4.560 -34.837  1.00  0.00     0.003 A 
HETATM   31  C   UNL     1      -6.720  -3.199 -34.803  1.00  0.00     0.037 A 
ENDBRANCH  25  26
ENDBRANCH  21  25
ENDBRANCH   3  19
TORSDOF 8
ENDMDL
MODEL 10
REMARK VINA RESULT:      -7.8      2.326      2.827
REMARK  8 active torsions:
REMARK  status: ('A' for Active; 'I' for Inactive)
REMARK    1  A    between atoms: N_2  and  C_4 
REMARK    2  A    between atoms: C_4  and  C_5 
REMARK    3  A    between atoms: C_5  and  N_6 
REMARK       I    between atoms: N_6  and  C_7 
REMARK    4  A    between atoms: N_6  and  C_23 
REMARK       I    between atoms: C_7  and  N_8 
REMARK    5  A    between atoms: N_8  and  C_9 
REMARK    6  A    between atoms: C_11  and  O_12 
REMARK    7  A    between atoms: O_12  and  C_13 
REMARK    8  A    between atoms: C_23  and  C_24 
ROOT
HETATM    1  N   UNL     1      -6.468   1.035 -32.316  1.00  0.00    -0.328 N 
HETATM    2  C   UNL     1      -5.503   1.877 -31.751  1.00  0.00     0.323 C 
HETATM    3  N   UNL     1      -4.848   2.668 -32.664  1.00  0.00    -0.309 N 
HETATM    4  O   UNL     1      -5.342   1.892 -30.534  1.00  0.00    -0.247 OA
HETATM    5  H   UNL     1      -5.201   2.643 -33.608  1.00  0.00     0.170 HD
ENDROOT
BRANCH   1   6
HETATM    6  C   UNL     1      -7.429   0.406 -31.415  1.00  0.00     0.155 C 
BRANCH   6   7
HETATM    7  C   UNL     1      -8.888   0.749 -31.755  1.00  0.00     0.254 C 
BRANCH   7   8
HETATM    8  N   UNL     1      -9.082   2.255 -31.893  1.00  0.00    -0.077 N 
HETATM    9  C   UNL     1      -9.217   2.949 -30.562  1.00  0.00     0.269 C 
HETATM   10  H   UNL     1      -8.247   2.643 -32.353  1.00  0.00     0.279 HD
HETATM   11  C   UNL     1     -10.243   2.584 -32.794  1.00  0.00     0.269 C 
ENDBRANCH   7   8
ENDBRANCH   6   7
ENDBRANCH   1   6
BRANCH   1  12
HETATM   12  C   UNL     1      -6.525   0.663 -33.735  1.00  0.00     0.166 C 
BRANCH  12  13
HETATM   13  C   UNL     1      -6.082  -0.750 -34.034  1.00  0.00    -0.040 A 
HETATM   14  C   UNL     1      -4.781  -1.209 -33.773  1.00  0.00     0.009 A 
HETATM   15  C   UNL     1      -4.437  -2.541 -34.009  1.00  0.00     0.001 A 
HETATM   16  C   UNL     1      -5.380  -3.426 -34.524  1.00  0.00     0.000 A 
HETATM   17  C   UNL     1      -6.666  -2.979 -34.813  1.00  0.00     0.001 A 
HETATM   18  C   UNL     1      -7.015  -1.649 -34.573  1.00  0.00     0.009 A 
ENDBRANCH  12  13
ENDBRANCH   1  12
BRANCH   3  19
HETATM   19  C   UNL     1      -3.937   3.718 -32.437  1.00  0.00     0.042 A 
HETATM   20  C   UNL     1      -4.422   4.802 -31.702  1.00  0.00     0.087 A 
HETATM   21  C   UNL     1      -3.572   5.858 -31.418  1.00  0.00     0.171 A 
HETATM   22  N   UNL     1      -2.289   5.902 -31.823  1.00  0.00    -0.237 NA
HETATM   23  C   UNL     1      -1.843   4.843 -32.537  1.00  0.00     0.122 A 
HETATM   24  C   UNL     1      -2.619   3.737 -32.865  1.00  0.00     0.049 A 
BRANCH  21  25
HETATM   25  O   UNL     1      -4.148   6.875 -30.662  1.00  0.00    -0.292 OA
BRANCH  25  26
HETATM   26  C   UNL     1      -4.052   6.819 -29.297  1.00  0.00     0.077 A 
HETATM   27  C   UNL     1      -5.081   6.321 -28.499  1.00  0.00     0.037 A 
HETATM   28  C   UNL     1      -4.980   6.406 -27.109  1.00  0.00     0.003 A 
HETATM   29  C   UNL     1      -3.864   7.006 -26.523  1.00  0.00     0.000 A 
HETATM   30  C   UNL     1      -2.846   7.523 -27.325  1.00  0.00     0.003 A 
HETATM   31  C   UNL     1      -2.945   7.438 -28.714  1.00  0.00     0.037 A 
ENDBRANCH  25  26
ENDBRANCH  21  25
ENDBRANCH   3  19
TORSDOF 8
ENDMDL
