MODEL 1
REMARK VINA RESULT:      -9.0      0.000      0.000
REMARK  8 active torsions:
REMARK  status: ('A' for Active; 'I' for Inactive)
REMARK    1  A    between atoms: N_2  and  C_4 
REMARK    2  A    between atoms: N_2  and  C_27 
REMARK    3  A    between atoms: C_4  and  C_5 
REMARK    4  A    between atoms: C_8  and  C_9 
REMARK    5  A    between atoms: C_9  and  N_10 
REMARK       I    between atoms: N_10  and  C_11 
REMARK    6  A    between atoms: C_11  and  C_12 
REMARK    7  A    between atoms: C_27  and  C_28 
REMARK    8  A    between atoms: C_28  and  C_29 
ROOT
HETATM    1  C   UNL     1      -7.032   3.253 -31.819  1.00  0.00     0.041 C 
HETATM    2  C   UNL     1      -8.087   2.537 -30.921  1.00  0.00    -0.004 C 
HETATM    3  C   UNL     1      -8.726   1.351 -31.690  1.00  0.00     0.040 C 
HETATM    4  C   UNL     1      -9.586   1.873 -32.856  1.00  0.00     0.206 C 
HETATM    5  N   UNL     1      -9.181   3.331 -33.056  1.00  0.00    -0.065 N 
HETATM    6  H   UNL     1      -9.580   3.650 -33.963  1.00  0.00     0.280 HD
HETATM    7  C   UNL     1      -7.684   3.529 -33.182  1.00  0.00     0.242 C 
HETATM    8  C   UNL     1      -9.205   3.568 -30.621  1.00  0.00     0.032 C 
HETATM    9  C   UNL     1      -9.743   4.169 -31.928  1.00  0.00     0.236 C 
ENDROOT
BRANCH   4  10
HETATM   10  C   UNL     1      -9.487   1.024 -34.147  1.00  0.00     0.156 C 
BRANCH  10  11
HETATM   11  N   UNL     1      -8.538  -0.081 -34.065  1.00  0.00    -0.355 N 
HETATM   12  C   UNL     1      -7.371  -0.113 -34.798  1.00  0.00     0.251 C 
HETATM   13  O   UNL     1      -7.153   0.695 -35.698  1.00  0.00    -0.268 OA
HETATM   14  H   UNL     1      -8.579  -0.670 -33.235  1.00  0.00     0.162 HD
BRANCH  12  15
HETATM   15  C   UNL     1      -6.402  -1.189 -34.481  1.00  0.00     0.034 A 
HETATM   16  C   UNL     1      -6.682  -2.524 -34.796  1.00  0.00     0.056 A 
HETATM   17  C   UNL     1      -5.708  -3.458 -34.513  1.00  0.00     0.106 A 
HETATM   18  C   UNL     1      -4.508  -3.111 -33.941  1.00  0.00     0.105 A 
HETATM   19  O   UNL     1      -5.796  -4.790 -34.767  1.00  0.00    -0.323 OA
HETATM   20  O   UNL     1      -3.693  -4.182 -33.758  1.00  0.00    -0.323 OA
HETATM   21  C   UNL     1      -4.205  -1.805 -33.621  1.00  0.00     0.041 A 
HETATM   22  C   UNL     1      -4.505  -5.246 -34.297  1.00  0.00     0.352 A 
HETATM   23  C   UNL     1      -5.166  -0.828 -33.904  1.00  0.00     0.020 A 
ENDBRANCH  12  15
ENDBRANCH  10  11
ENDBRANCH   4  10
BRANCH   1  24
HETATM   24  C   UNL     1      -5.703   2.475 -31.912  1.00  0.00     0.241 C 
BRANCH  24  25
HETATM   25  N   UNL     1      -4.594   3.010 -31.034  1.00  0.00    -0.074 N 
HETATM   26  C   UNL     1      -4.874   4.446 -30.634  1.00  0.00     0.269 C 
HETATM   27  H   UNL     1      -4.556   2.487 -30.132  1.00  0.00     0.279 HD
BRANCH  25  28
HETATM   28  C   UNL     1      -3.182   2.852 -31.600  1.00  0.00     0.240 C 
BRANCH  28  29
HETATM   29  C   UNL     1      -2.804   3.980 -32.569  1.00  0.00     0.087 C 
BRANCH  29  30
HETATM   30  C   UNL     1      -1.660   4.852 -32.095  1.00  0.00     0.035 A 
HETATM   31  N   UNL     1      -0.937   4.428 -31.015  1.00  0.00    -0.266 NA
HETATM   32  C   UNL     1       0.028   5.276 -30.563  1.00  0.00     0.117 A 
HETATM   33  C   UNL     1       0.310   6.507 -31.128  1.00  0.00     0.019 A 
HETATM   34  C   UNL     1      -0.443   6.914 -32.222  1.00  0.00     0.003 A 
HETATM   35  C   UNL     1      -1.446   6.083 -32.710  1.00  0.00     0.027 A 
ENDBRANCH  29  30
ENDBRANCH  28  29
ENDBRANCH  25  28
ENDBRANCH  24  25
ENDBRANCH   1  24
TORSDOF 8
ENDMDL
MODEL 2
REMARK VINA RESULT:      -8.7      2.350      4.241
REMARK  8 active torsions:
REMARK  status: ('A' for Active; 'I' for Inactive)
REMARK    1  A    between atoms: N_2  and  C_4 
REMARK    2  A    between atoms: N_2  and  C_27 
REMARK    3  A    between atoms: C_4  and  C_5 
REMARK    4  A    between atoms: C_8  and  C_9 
REMARK    5  A    between atoms: C_9  and  N_10 
REMARK       I    between atoms: N_10  and  C_11 
REMARK    6  A    between atoms: C_11  and  C_12 
REMARK    7  A    between atoms: C_27  and  C_28 
REMARK    8  A    between atoms: C_28  and  C_29 
ROOT
HETATM    1  C   UNL     1      -3.123   5.870 -31.243  1.00  0.00     0.041 C 
HETATM    2  C   UNL     1      -3.657   6.329 -32.634  1.00  0.00    -0.004 C 
HETATM    3  C   UNL     1      -4.954   5.556 -32.989  1.00  0.00     0.040 C 
HETATM    4  C   UNL     1      -4.638   4.068 -33.232  1.00  0.00     0.206 C 
HETATM    5  N   UNL     1      -3.243   3.836 -32.657  1.00  0.00    -0.065 N 
HETATM    6  H   UNL     1      -3.087   2.808 -32.610  1.00  0.00     0.280 HD
HETATM    7  C   UNL     1      -3.086   4.335 -31.235  1.00  0.00     0.242 C 
HETATM    8  C   UNL     1      -2.578   5.956 -33.682  1.00  0.00     0.032 C 
HETATM    9  C   UNL     1      -2.213   4.469 -33.568  1.00  0.00     0.236 C 
ENDROOT
BRANCH   4  10
HETATM   10  C   UNL     1      -5.704   3.094 -32.672  1.00  0.00     0.156 C 
BRANCH  10  11
HETATM   11  N   UNL     1      -5.715   1.784 -33.316  1.00  0.00    -0.355 N 
HETATM   12  C   UNL     1      -4.958   0.727 -32.858  1.00  0.00     0.251 C 
HETATM   13  O   UNL     1      -4.094   0.877 -31.997  1.00  0.00    -0.268 OA
HETATM   14  H   UNL     1      -6.516   1.559 -33.903  1.00  0.00     0.162 HD
BRANCH  12  15
HETATM   15  C   UNL     1      -5.204  -0.598 -33.475  1.00  0.00     0.034 A 
HETATM   16  C   UNL     1      -4.289  -1.647 -33.314  1.00  0.00     0.056 A 
HETATM   17  C   UNL     1      -4.616  -2.862 -33.879  1.00  0.00     0.106 A 
HETATM   18  C   UNL     1      -5.783  -3.052 -34.578  1.00  0.00     0.105 A 
HETATM   19  O   UNL     1      -3.863  -3.991 -33.807  1.00  0.00    -0.323 OA
HETATM   20  O   UNL     1      -5.908  -4.323 -35.039  1.00  0.00    -0.323 OA
HETATM   21  C   UNL     1      -6.701  -2.039 -34.751  1.00  0.00     0.041 A 
HETATM   22  C   UNL     1      -4.696  -4.924 -34.536  1.00  0.00     0.352 A 
HETATM   23  C   UNL     1      -6.409  -0.794 -34.183  1.00  0.00     0.020 A 
ENDBRANCH  12  15
ENDBRANCH  10  11
ENDBRANCH   4  10
BRANCH   1  24
HETATM   24  C   UNL     1      -3.919   6.479 -30.069  1.00  0.00     0.241 C 
BRANCH  24  25
HETATM   25  N   UNL     1      -3.072   6.957 -28.911  1.00  0.00    -0.074 N 
HETATM   26  C   UNL     1      -3.859   6.906 -27.616  1.00  0.00     0.269 C 
HETATM   27  H   UNL     1      -2.266   6.313 -28.756  1.00  0.00     0.279 HD
BRANCH  25  28
HETATM   28  C   UNL     1      -2.408   8.320 -29.109  1.00  0.00     0.240 C 
BRANCH  28  29
HETATM   29  C   UNL     1      -0.882   8.264 -28.947  1.00  0.00     0.087 C 
BRANCH  29  30
HETATM   30  C   UNL     1      -0.237   7.033 -29.548  1.00  0.00     0.035 A 
HETATM   31  N   UNL     1       0.071   5.998 -28.709  1.00  0.00    -0.266 NA
HETATM   32  C   UNL     1       0.727   4.943 -29.268  1.00  0.00     0.117 A 
HETATM   33  C   UNL     1       1.082   4.865 -30.602  1.00  0.00     0.019 A 
HETATM   34  C   UNL     1       0.761   5.932 -31.430  1.00  0.00     0.003 A 
HETATM   35  C   UNL     1       0.100   7.035 -30.899  1.00  0.00     0.027 A 
ENDBRANCH  29  30
ENDBRANCH  28  29
ENDBRANCH  25  28
ENDBRANCH  24  25
ENDBRANCH   1  24
TORSDOF 8
ENDMDL
MODEL 3
REMARK VINA RESULT:      -8.7      1.880      3.358
REMARK  8 active torsions:
REMARK  status: ('A' for Active; 'I' for Inactive)
REMARK    1  A    between atoms: N_2  and  C_4 
REMARK    2  A    between atoms: N_2  and  C_27 
REMARK    3  A    between atoms: C_4  and  C_5 
REMARK    4  A    between atoms: C_8  and  C_9 
REMARK    5  A    between atoms: C_9  and  N_10 
REMARK       I    between atoms: N_10  and  C_11 
REMARK    6  A    between atoms: C_11  and  C_12 
REMARK    7  A    between atoms: C_27  and  C_28 
REMARK    8  A    between atoms: C_28  and  C_29 
ROOT
HETATM    1  C   UNL     1      -4.326   5.485 -33.094  1.00  0.00     0.041 C 
HETATM    2  C   UNL     1      -3.961   4.525 -31.921  1.00  0.00    -0.004 C 
HETATM    3  C   UNL     1      -4.708   3.176 -32.083  1.00  0.00     0.040 C 
HETATM    4  C   UNL     1      -6.222   3.377 -31.884  1.00  0.00     0.206 C 
HETATM    5  N   UNL     1      -6.462   4.882 -31.987  1.00  0.00    -0.065 N 
HETATM    6  H   UNL     1      -7.488   5.035 -32.072  1.00  0.00     0.280 HD
HETATM    7  C   UNL     1      -5.855   5.507 -33.227  1.00  0.00     0.242 C 
HETATM    8  C   UNL     1      -4.460   5.192 -30.613  1.00  0.00     0.032 C 
HETATM    9  C   UNL     1      -5.947   5.558 -30.735  1.00  0.00     0.236 C 
ENDROOT
BRANCH   4  10
HETATM   10  C   UNL     1      -7.105   2.547 -32.849  1.00  0.00     0.156 C 
BRANCH  10  11
HETATM   11  N   UNL     1      -6.709   1.148 -32.967  1.00  0.00    -0.355 N 
HETATM   12  C   UNL     1      -6.721   0.473 -34.169  1.00  0.00     0.251 C 
HETATM   13  O   UNL     1      -7.239   0.953 -35.174  1.00  0.00    -0.268 OA
HETATM   14  H   UNL     1      -6.124   0.764 -32.227  1.00  0.00     0.162 HD
BRANCH  12  15
HETATM   15  C   UNL     1      -6.113  -0.879 -34.191  1.00  0.00     0.034 A 
HETATM   16  C   UNL     1      -4.955  -1.159 -33.456  1.00  0.00     0.056 A 
HETATM   17  C   UNL     1      -4.482  -2.454 -33.491  1.00  0.00     0.106 A 
HETATM   18  C   UNL     1      -5.105  -3.440 -34.216  1.00  0.00     0.105 A 
HETATM   19  O   UNL     1      -3.388  -2.911 -32.826  1.00  0.00    -0.323 OA
HETATM   20  O   UNL     1      -4.478  -4.640 -34.104  1.00  0.00    -0.323 OA
HETATM   21  C   UNL     1      -6.246  -3.194 -34.949  1.00  0.00     0.041 A 
HETATM   22  C   UNL     1      -3.396  -4.306 -33.208  1.00  0.00     0.352 A 
HETATM   23  C   UNL     1      -6.762  -1.893 -34.929  1.00  0.00     0.020 A 
ENDBRANCH  12  15
ENDBRANCH  10  11
ENDBRANCH   4  10
BRANCH   1  24
HETATM   24  C   UNL     1      -3.592   5.129 -34.404  1.00  0.00     0.241 C 
BRANCH  24  25
HETATM   25  N   UNL     1      -2.436   6.041 -34.749  1.00  0.00    -0.074 N 
HETATM   26  C   UNL     1      -1.209   5.231 -35.120  1.00  0.00     0.269 C 
HETATM   27  H   UNL     1      -2.652   6.599 -35.604  1.00  0.00     0.279 HD
BRANCH  25  28
HETATM   28  C   UNL     1      -2.110   7.104 -33.700  1.00  0.00     0.240 C 
BRANCH  28  29
HETATM   29  C   UNL     1      -0.753   6.868 -33.021  1.00  0.00     0.087 C 
BRANCH  29  30
HETATM   30  C   UNL     1      -0.733   7.184 -31.540  1.00  0.00     0.035 A 
HETATM   31  N   UNL     1      -1.799   7.862 -31.016  1.00  0.00    -0.266 NA
HETATM   32  C   UNL     1      -1.709   8.203 -29.701  1.00  0.00     0.117 A 
HETATM   33  C   UNL     1      -0.629   7.904 -28.890  1.00  0.00     0.019 A 
HETATM   34  C   UNL     1       0.441   7.218 -29.450  1.00  0.00     0.003 A 
HETATM   35  C   UNL     1       0.396   6.859 -30.793  1.00  0.00     0.027 A 
ENDBRANCH  29  30
ENDBRANCH  28  29
ENDBRANCH  25  28
ENDBRANCH  24  25
ENDBRANCH   1  24
TORSDOF 8
ENDMDL
MODEL 4
REMARK VINA RESULT:      -8.6      1.183      1.787
REMARK  8 active torsions:
REMARK  status: ('A' for Active; 'I' for Inactive)
REMARK    1  A    between atoms: N_2  and  C_4 
REMARK    2  A    between atoms: N_2  and  C_27 
REMARK    3  A    between atoms: C_4  and  C_5 
REMARK    4  A    between atoms: C_8  and  C_9 
REMARK    5  A    between atoms: C_9  and  N_10 
REMARK       I    between atoms: N_10  and  C_11 
REMARK    6  A    between atoms: C_11  and  C_12 
REMARK    7  A    between atoms: C_27  and  C_28 
REMARK    8  A    between atoms: C_28  and  C_29 
ROOT
HETATM    1  C   UNL     1      -7.222   4.614 -32.123  1.00  0.00     0.041 C 
HETATM    2  C   UNL     1      -6.702   3.454 -31.220  1.00  0.00    -0.004 C 
HETATM    3  C   UNL     1      -6.840   2.098 -31.961  1.00  0.00     0.040 C 
HETATM    4  C   UNL     1      -8.327   1.736 -32.137  1.00  0.00     0.206 C 
HETATM    5  N   UNL     1      -9.106   3.021 -31.867  1.00  0.00    -0.065 N 
HETATM    6  H   UNL     1     -10.086   2.871 -32.185  1.00  0.00     0.280 HD
HETATM    7  C   UNL     1      -8.603   4.210 -32.660  1.00  0.00     0.242 C 
HETATM    8  C   UNL     1      -7.614   3.407 -29.967  1.00  0.00     0.032 C 
HETATM    9  C   UNL     1      -9.089   3.316 -30.383  1.00  0.00     0.236 C 
ENDROOT
BRANCH   4  10
HETATM   10  C   UNL     1      -8.663   1.089 -33.504  1.00  0.00     0.156 C 
BRANCH  10  11
HETATM   11  N   UNL     1      -8.075  -0.232 -33.701  1.00  0.00    -0.355 N 
HETATM   12  C   UNL     1      -7.090  -0.473 -34.635  1.00  0.00     0.251 C 
HETATM   13  O   UNL     1      -6.783   0.365 -35.479  1.00  0.00    -0.268 OA
HETATM   14  H   UNL     1      -8.161  -0.900 -32.937  1.00  0.00     0.162 HD
BRANCH  12  15
HETATM   15  C   UNL     1      -6.439  -1.804 -34.603  1.00  0.00     0.034 A 
HETATM   16  C   UNL     1      -5.163  -1.968 -34.049  1.00  0.00     0.056 A 
HETATM   17  C   UNL     1      -4.649  -3.247 -34.014  1.00  0.00     0.106 A 
HETATM   18  C   UNL     1      -5.343  -4.327 -34.502  1.00  0.00     0.105 A 
HETATM   19  O   UNL     1      -3.442  -3.596 -33.497  1.00  0.00    -0.323 OA
HETATM   20  O   UNL     1      -4.657  -5.490 -34.360  1.00  0.00    -0.323 OA
HETATM   21  C   UNL     1      -6.600  -4.196 -35.053  1.00  0.00     0.041 A 
HETATM   22  C   UNL     1      -3.455  -5.028 -33.707  1.00  0.00     0.352 A 
HETATM   23  C   UNL     1      -7.159  -2.914 -35.096  1.00  0.00     0.020 A 
ENDBRANCH  12  15
ENDBRANCH  10  11
ENDBRANCH   4  10
BRANCH   1  24
HETATM   24  C   UNL     1      -6.216   5.007 -33.225  1.00  0.00     0.241 C 
BRANCH  24  25
HETATM   25  N   UNL     1      -4.816   5.294 -32.730  1.00  0.00    -0.074 N 
HETATM   26  C   UNL     1      -4.771   6.617 -31.990  1.00  0.00     0.269 C 
HETATM   27  H   UNL     1      -4.525   4.585 -32.023  1.00  0.00     0.279 HD
BRANCH  25  28
HETATM   28  C   UNL     1      -3.721   5.211 -33.794  1.00  0.00     0.240 C 
BRANCH  28  29
HETATM   29  C   UNL     1      -2.538   4.334 -33.358  1.00  0.00     0.087 C 
BRANCH  29  30
HETATM   30  C   UNL     1      -1.540   5.036 -32.462  1.00  0.00     0.035 A 
HETATM   31  N   UNL     1      -1.237   4.456 -31.261  1.00  0.00    -0.266 NA
HETATM   32  C   UNL     1      -0.401   5.157 -30.446  1.00  0.00     0.117 A 
HETATM   33  C   UNL     1       0.145   6.387 -30.762  1.00  0.00     0.019 A 
HETATM   34  C   UNL     1      -0.183   6.955 -31.986  1.00  0.00     0.003 A 
HETATM   35  C   UNL     1      -1.041   6.279 -32.846  1.00  0.00     0.027 A 
ENDBRANCH  29  30
ENDBRANCH  28  29
ENDBRANCH  25  28
ENDBRANCH  24  25
ENDBRANCH   1  24
TORSDOF 8
ENDMDL
MODEL 5
REMARK VINA RESULT:      -8.6      3.479      7.569
REMARK  8 active torsions:
REMARK  status: ('A' for Active; 'I' for Inactive)
REMARK    1  A    between atoms: N_2  and  C_4 
REMARK    2  A    between atoms: N_2  and  C_27 
REMARK    3  A    between atoms: C_4  and  C_5 
REMARK    4  A    between atoms: C_8  and  C_9 
REMARK    5  A    between atoms: C_9  and  N_10 
REMARK       I    between atoms: N_10  and  C_11 
REMARK    6  A    between atoms: C_11  and  C_12 
REMARK    7  A    between atoms: C_27  and  C_28 
REMARK    8  A    between atoms: C_28  and  C_29 
ROOT
HETATM    1  C   UNL     1      -6.705   0.387 -32.231  1.00  0.00     0.041 C 
HETATM    2  C   UNL     1      -7.485   0.363 -33.581  1.00  0.00    -0.004 C 
HETATM    3  C   UNL     1      -7.756   1.810 -34.067  1.00  0.00     0.040 C 
HETATM    4  C   UNL     1      -8.752   2.511 -33.124  1.00  0.00     0.206 C 
HETATM    5  N   UNL     1      -8.800   1.661 -31.857  1.00  0.00    -0.065 N 
HETATM    6  H   UNL     1      -9.291   2.212 -31.123  1.00  0.00     0.280 HD
HETATM    7  C   UNL     1      -7.431   1.353 -31.284  1.00  0.00     0.242 C 
HETATM    8  C   UNL     1      -8.854  -0.312 -33.305  1.00  0.00     0.032 C 
HETATM    9  C   UNL     1      -9.567   0.386 -32.137  1.00  0.00     0.236 C 
ENDROOT
BRANCH   4  10
HETATM   10  C   UNL     1      -8.427   4.001 -32.852  1.00  0.00     0.156 C 
BRANCH  10  11
HETATM   11  N   UNL     1      -7.050   4.378 -33.156  1.00  0.00    -0.355 N 
HETATM   12  C   UNL     1      -6.564   5.649 -32.937  1.00  0.00     0.251 C 
HETATM   13  O   UNL     1      -7.307   6.583 -32.647  1.00  0.00    -0.268 OA
HETATM   14  H   UNL     1      -6.366   3.627 -33.229  1.00  0.00     0.162 HD
BRANCH  12  15
HETATM   15  C   UNL     1      -5.105   5.853 -33.102  1.00  0.00     0.034 A 
HETATM   16  C   UNL     1      -4.412   5.261 -34.166  1.00  0.00     0.056 A 
HETATM   17  C   UNL     1      -3.066   5.540 -34.276  1.00  0.00     0.106 A 
HETATM   18  C   UNL     1      -2.414   6.358 -33.385  1.00  0.00     0.105 A 
HETATM   19  O   UNL     1      -2.243   5.074 -35.252  1.00  0.00    -0.323 OA
HETATM   20  O   UNL     1      -1.097   6.503 -33.685  1.00  0.00    -0.323 OA
HETATM   21  C   UNL     1      -3.070   6.953 -32.329  1.00  0.00     0.041 A 
HETATM   22  C   UNL     1      -0.992   5.700 -34.880  1.00  0.00     0.352 A 
HETATM   23  C   UNL     1      -4.440   6.702 -32.192  1.00  0.00     0.020 A 
ENDBRANCH  12  15
ENDBRANCH  10  11
ENDBRANCH   4  10
BRANCH   1  24
HETATM   24  C   UNL     1      -5.206   0.706 -32.415  1.00  0.00     0.241 C 
BRANCH  24  25
HETATM   25  N   UNL     1      -4.273  -0.125 -31.563  1.00  0.00    -0.074 N 
HETATM   26  C   UNL     1      -3.184   0.742 -30.962  1.00  0.00     0.269 C 
HETATM   27  H   UNL     1      -4.781  -0.519 -30.742  1.00  0.00     0.279 HD
BRANCH  25  28
HETATM   28  C   UNL     1      -3.690  -1.360 -32.251  1.00  0.00     0.240 C 
BRANCH  28  29
HETATM   29  C   UNL     1      -4.059  -1.437 -33.740  1.00  0.00     0.087 C 
BRANCH  29  30
HETATM   30  C   UNL     1      -4.806  -2.694 -34.132  1.00  0.00     0.035 A 
HETATM   31  N   UNL     1      -4.155  -3.890 -34.012  1.00  0.00    -0.266 NA
HETATM   32  C   UNL     1      -4.827  -4.990 -34.454  1.00  0.00     0.117 A 
HETATM   33  C   UNL     1      -6.098  -4.960 -34.998  1.00  0.00     0.019 A 
HETATM   34  C   UNL     1      -6.733  -3.731 -35.111  1.00  0.00     0.003 A 
HETATM   35  C   UNL     1      -6.081  -2.580 -34.682  1.00  0.00     0.027 A 
ENDBRANCH  29  30
ENDBRANCH  28  29
ENDBRANCH  25  28
ENDBRANCH  24  25
ENDBRANCH   1  24
TORSDOF 8
ENDMDL
MODEL 6
REMARK VINA RESULT:      -8.5      4.958     10.545
REMARK  8 active torsions:
REMARK  status: ('A' for Active; 'I' for Inactive)
REMARK    1  A    between atoms: N_2  and  C_4 
REMARK    2  A    between atoms: N_2  and  C_27 
REMARK    3  A    between atoms: C_4  and  C_5 
REMARK    4  A    between atoms: C_8  and  C_9 
REMARK    5  A    between atoms: C_9  and  N_10 
REMARK       I    between atoms: N_10  and  C_11 
REMARK    6  A    between atoms: C_11  and  C_12 
REMARK    7  A    between atoms: C_27  and  C_28 
REMARK    8  A    between atoms: C_28  and  C_29 
ROOT
HETATM    1  C   UNL     1      -5.017   3.511 -32.252  1.00  0.00     0.041 C 
HETATM    2  C   UNL     1      -4.320   4.253 -33.433  1.00  0.00    -0.004 C 
HETATM    3  C   UNL     1      -2.799   4.380 -33.160  1.00  0.00     0.040 C 
HETATM    4  C   UNL     1      -2.547   5.334 -31.977  1.00  0.00     0.206 C 
HETATM    5  N   UNL     1      -3.892   5.492 -31.272  1.00  0.00    -0.065 N 
HETATM    6  H   UNL     1      -3.718   5.951 -30.354  1.00  0.00     0.280 HD
HETATM    7  C   UNL     1      -4.561   4.172 -30.944  1.00  0.00     0.242 C 
HETATM    8  C   UNL     1      -4.916   5.684 -33.487  1.00  0.00     0.032 C 
HETATM    9  C   UNL     1      -4.800   6.362 -32.114  1.00  0.00     0.236 C 
ENDROOT
BRANCH   4  10
HETATM   10  C   UNL     1      -1.407   4.883 -31.030  1.00  0.00     0.156 C 
BRANCH  10  11
HETATM   11  N   UNL     1      -1.085   5.845 -29.981  1.00  0.00    -0.355 N 
HETATM   12  C   UNL     1      -0.112   6.809 -30.132  1.00  0.00     0.251 C 
HETATM   13  O   UNL     1       0.664   6.799 -31.084  1.00  0.00    -0.268 OA
HETATM   14  H   UNL     1      -1.791   6.008 -29.266  1.00  0.00     0.162 HD
BRANCH  12  15
HETATM   15  C   UNL     1      -0.016   7.845 -29.076  1.00  0.00     0.034 A 
HETATM   16  C   UNL     1      -1.126   8.627 -28.733  1.00  0.00     0.056 A 
HETATM   17  C   UNL     1      -0.967   9.533 -27.706  1.00  0.00     0.106 A 
HETATM   18  C   UNL     1       0.226   9.680 -27.039  1.00  0.00     0.105 A 
HETATM   19  O   UNL     1      -1.935  10.358 -27.226  1.00  0.00    -0.323 OA
HETATM   20  O   UNL     1       0.159  10.619 -26.060  1.00  0.00    -0.323 OA
HETATM   21  C   UNL     1       1.333   8.923 -27.354  1.00  0.00     0.041 A 
HETATM   22  C   UNL     1      -1.218  11.039 -26.169  1.00  0.00     0.352 A 
HETATM   23  C   UNL     1       1.206   7.985 -28.385  1.00  0.00     0.020 A 
ENDBRANCH  12  15
ENDBRANCH  10  11
ENDBRANCH   4  10
BRANCH   1  24
HETATM   24  C   UNL     1      -4.788   1.985 -32.291  1.00  0.00     0.241 C 
BRANCH  24  25
HETATM   25  N   UNL     1      -6.012   1.170 -32.644  1.00  0.00    -0.074 N 
HETATM   26  C   UNL     1      -6.538   0.438 -31.425  1.00  0.00     0.269 C 
HETATM   27  H   UNL     1      -6.795   1.794 -32.937  1.00  0.00     0.279 HD
BRANCH  25  28
HETATM   28  C   UNL     1      -5.843   0.226 -33.835  1.00  0.00     0.240 C 
BRANCH  28  29
HETATM   29  C   UNL     1      -4.735  -0.814 -33.612  1.00  0.00     0.087 C 
BRANCH  29  30
HETATM   30  C   UNL     1      -5.124  -2.228 -33.986  1.00  0.00     0.035 A 
HETATM   31  N   UNL     1      -4.174  -3.205 -33.872  1.00  0.00    -0.266 NA
HETATM   32  C   UNL     1      -4.532  -4.449 -34.298  1.00  0.00     0.117 A 
HETATM   33  C   UNL     1      -5.774  -4.766 -34.818  1.00  0.00     0.019 A 
HETATM   34  C   UNL     1      -6.717  -3.753 -34.926  1.00  0.00     0.003 A 
HETATM   35  C   UNL     1      -6.391  -2.466 -34.514  1.00  0.00     0.027 A 
ENDBRANCH  29  30
ENDBRANCH  28  29
ENDBRANCH  25  28
ENDBRANCH  24  25
ENDBRANCH   1  24
TORSDOF 8
ENDMDL
MODEL 7
REMARK VINA RESULT:      -8.4      3.306      7.465
REMARK  8 active torsions:
REMARK  status: ('A' for Active; 'I' for Inactive)
REMARK    1  A    between atoms: N_2  and  C_4 
REMARK    2  A    between atoms: N_2  and  C_27 
REMARK    3  A    between atoms: C_4  and  C_5 
REMARK    4  A    between atoms: C_8  and  C_9 
REMARK    5  A    between atoms: C_9  and  N_10 
REMARK       I    between atoms: N_10  and  C_11 
REMARK    6  A    between atoms: C_11  and  C_12 
REMARK    7  A    between atoms: C_27  and  C_28 
REMARK    8  A    between atoms: C_28  and  C_29 
ROOT
HETATM    1  C   UNL     1      -5.432   1.287 -31.373  1.00  0.00     0.041 C 
HETATM    2  C   UNL     1      -6.083   2.407 -30.504  1.00  0.00    -0.004 C 
HETATM    3  C   UNL     1      -7.053   3.255 -31.367  1.00  0.00     0.040 C 
HETATM    4  C   UNL     1      -6.265   4.066 -32.414  1.00  0.00     0.206 C 
HETATM    5  N   UNL     1      -4.873   3.442 -32.468  1.00  0.00    -0.065 N 
HETATM    6  H   UNL     1      -4.388   3.820 -33.307  1.00  0.00     0.280 HD
HETATM    7  C   UNL     1      -4.893   1.938 -32.655  1.00  0.00     0.242 C 
HETATM    8  C   UNL     1      -4.937   3.335 -30.023  1.00  0.00     0.032 C 
HETATM    9  C   UNL     1      -4.105   3.820 -31.220  1.00  0.00     0.236 C 
ENDROOT
BRANCH   4  10
HETATM   10  C   UNL     1      -6.954   4.153 -33.799  1.00  0.00     0.156 C 
BRANCH  10  11
HETATM   11  N   UNL     1      -8.300   3.589 -33.834  1.00  0.00    -0.355 N 
HETATM   12  C   UNL     1      -9.342   4.198 -34.500  1.00  0.00     0.251 C 
HETATM   13  O   UNL     1      -9.244   5.339 -34.944  1.00  0.00    -0.268 OA
HETATM   14  H   UNL     1      -8.394   2.594 -33.640  1.00  0.00     0.162 HD
BRANCH  12  15
HETATM   15  C   UNL     1     -10.604   3.432 -34.625  1.00  0.00     0.034 A 
HETATM   16  C   UNL     1     -10.755   2.188 -34.001  1.00  0.00     0.056 A 
HETATM   17  C   UNL     1     -11.977   1.562 -34.126  1.00  0.00     0.106 A 
HETATM   18  C   UNL     1     -13.014   2.119 -34.835  1.00  0.00     0.105 A 
HETATM   19  O   UNL     1     -12.310   0.366 -33.572  1.00  0.00    -0.323 OA
HETATM   20  O   UNL     1     -14.127   1.340 -34.823  1.00  0.00    -0.323 OA
HETATM   21  C   UNL     1     -12.894   3.341 -35.460  1.00  0.00     0.041 A 
HETATM   22  C   UNL     1     -13.684   0.234 -34.008  1.00  0.00     0.352 A 
HETATM   23  C   UNL     1     -11.671   4.011 -35.346  1.00  0.00     0.020 A 
ENDBRANCH  12  15
ENDBRANCH  10  11
ENDBRANCH   4  10
BRANCH   1  24
HETATM   24  C   UNL     1      -6.387   0.103 -31.630  1.00  0.00     0.241 C 
BRANCH  24  25
HETATM   25  N   UNL     1      -7.535   0.408 -32.565  1.00  0.00    -0.074 N 
HETATM   26  C   UNL     1      -8.846   0.456 -31.805  1.00  0.00     0.269 C 
HETATM   27  H   UNL     1      -7.432   1.363 -32.974  1.00  0.00     0.279 HD
BRANCH  25  28
HETATM   28  C   UNL     1      -7.633  -0.498 -33.793  1.00  0.00     0.240 C 
BRANCH  28  29
HETATM   29  C   UNL     1      -6.265  -0.776 -34.433  1.00  0.00     0.087 C 
BRANCH  29  30
HETATM   30  C   UNL     1      -5.847  -2.231 -34.401  1.00  0.00     0.035 A 
HETATM   31  N   UNL     1      -4.564  -2.521 -34.029  1.00  0.00    -0.266 NA
HETATM   32  C   UNL     1      -4.198  -3.831 -34.095  1.00  0.00     0.117 A 
HETATM   33  C   UNL     1      -5.035  -4.855 -34.500  1.00  0.00     0.019 A 
HETATM   34  C   UNL     1      -6.331  -4.531 -34.876  1.00  0.00     0.003 A 
HETATM   35  C   UNL     1      -6.745  -3.204 -34.835  1.00  0.00     0.027 A 
ENDBRANCH  29  30
ENDBRANCH  28  29
ENDBRANCH  25  28
ENDBRANCH  24  25
ENDBRANCH   1  24
TORSDOF 8
ENDMDL
MODEL 8
REMARK VINA RESULT:      -8.4      4.183      9.656
REMARK  8 active torsions:
REMARK  status: ('A' for Active; 'I' for Inactive)
REMARK    1  A    between atoms: N_2  and  C_4 
REMARK    2  A    between atoms: N_2  and  C_27 
REMARK    3  A    between atoms: C_4  and  C_5 
REMARK    4  A    between atoms: C_8  and  C_9 
REMARK    5  A    between atoms: C_9  and  N_10 
REMARK       I    between atoms: N_10  and  C_11 
REMARK    6  A    between atoms: C_11  and  C_12 
REMARK    7  A    between atoms: C_27  and  C_28 
REMARK    8  A    between atoms: C_28  and  C_29 
ROOT
HETATM    1  C   UNL     1      -6.124   1.197 -32.660  1.00  0.00     0.041 C 
HETATM    2  C   UNL     1      -6.366   1.729 -31.214  1.00  0.00    -0.004 C 
HETATM    3  C   UNL     1      -5.537   3.017 -30.973  1.00  0.00     0.040 C 
HETATM    4  C   UNL     1      -4.032   2.687 -30.955  1.00  0.00     0.206 C 
HETATM    5  N   UNL     1      -3.901   1.292 -31.563  1.00  0.00    -0.065 N 
HETATM    6  H   UNL     1      -2.894   1.127 -31.764  1.00  0.00     0.280 HD
HETATM    7  C   UNL     1      -4.608   1.147 -32.896  1.00  0.00     0.242 C 
HETATM    8  C   UNL     1      -5.852   0.641 -30.236  1.00  0.00     0.032 C 
HETATM    9  C   UNL     1      -4.401   0.264 -30.572  1.00  0.00     0.236 C 
ENDROOT
BRANCH   4  10
HETATM   10  C   UNL     1      -3.142   3.747 -31.650  1.00  0.00     0.156 C 
BRANCH  10  11
HETATM   11  N   UNL     1      -2.606   4.762 -30.749  1.00  0.00    -0.355 N 
HETATM   12  C   UNL     1      -1.338   5.284 -30.891  1.00  0.00     0.251 C 
HETATM   13  O   UNL     1      -0.521   4.794 -31.667  1.00  0.00    -0.268 OA
HETATM   14  H   UNL     1      -3.276   5.313 -30.217  1.00  0.00     0.162 HD
BRANCH  12  15
HETATM   15  C   UNL     1      -0.985   6.443 -30.037  1.00  0.00     0.034 A 
HETATM   16  C   UNL     1      -1.971   7.327 -29.582  1.00  0.00     0.056 A 
HETATM   17  C   UNL     1      -1.566   8.351 -28.752  1.00  0.00     0.106 A 
HETATM   18  C   UNL     1      -0.254   8.516 -28.381  1.00  0.00     0.105 A 
HETATM   19  O   UNL     1      -2.383   9.287 -28.200  1.00  0.00    -0.323 OA
HETATM   20  O   UNL     1      -0.079   9.580 -27.555  1.00  0.00    -0.323 OA
HETATM   21  C   UNL     1       0.737   7.661 -28.813  1.00  0.00     0.041 A 
HETATM   22  C   UNL     1      -1.435  10.060 -27.428  1.00  0.00     0.352 A 
HETATM   23  C   UNL     1       0.362   6.603 -29.649  1.00  0.00     0.020 A 
ENDBRANCH  12  15
ENDBRANCH  10  11
ENDBRANCH   4  10
BRANCH   1  24
HETATM   24  C   UNL     1      -6.893   2.004 -33.727  1.00  0.00     0.241 C 
BRANCH  24  25
HETATM   25  N   UNL     1      -7.703   1.167 -34.691  1.00  0.00    -0.074 N 
HETATM   26  C   UNL     1      -9.037   0.786 -34.080  1.00  0.00     0.269 C 
HETATM   27  H   UNL     1      -7.950   1.721 -35.540  1.00  0.00     0.279 HD
BRANCH  25  28
HETATM   28  C   UNL     1      -6.978  -0.054 -35.260  1.00  0.00     0.240 C 
BRANCH  28  29
HETATM   29  C   UNL     1      -7.521  -1.377 -34.701  1.00  0.00     0.087 C 
BRANCH  29  30
HETATM   30  C   UNL     1      -6.476  -2.460 -34.539  1.00  0.00     0.035 A 
HETATM   31  N   UNL     1      -5.213  -2.083 -34.177  1.00  0.00    -0.266 NA
HETATM   32  C   UNL     1      -4.279  -3.073 -34.124  1.00  0.00     0.117 A 
HETATM   33  C   UNL     1      -4.536  -4.403 -34.403  1.00  0.00     0.019 A 
HETATM   34  C   UNL     1      -5.827  -4.757 -34.772  1.00  0.00     0.003 A 
HETATM   35  C   UNL     1      -6.810  -3.776 -34.850  1.00  0.00     0.027 A 
ENDBRANCH  29  30
ENDBRANCH  28  29
ENDBRANCH  25  28
ENDBRANCH  24  25
ENDBRANCH   1  24
TORSDOF 8
ENDMDL
MODEL 9
REMARK VINA RESULT:      -8.3      2.413      7.234
REMARK  8 active torsions:
REMARK  status: ('A' for Active; 'I' for Inactive)
REMARK    1  A    between atoms: N_2  and  C_4 
REMARK    2  A    between atoms: N_2  and  C_27 
REMARK    3  A    between atoms: C_4  and  C_5 
REMARK    4  A    between atoms: C_8  and  C_9 
REMARK    5  A    between atoms: C_9  and  N_10 
REMARK       I    between atoms: N_10  and  C_11 
REMARK    6  A    between atoms: C_11  and  C_12 
REMARK    7  A    between atoms: C_27  and  C_28 
REMARK    8  A    between atoms: C_28  and  C_29 
ROOT
HETATM    1  C   UNL     1      -7.246   2.940 -30.944  1.00  0.00     0.041 C 
HETATM    2  C   UNL     1      -6.628   4.097 -31.787  1.00  0.00    -0.004 C 
HETATM    3  C   UNL     1      -5.310   3.626 -32.453  1.00  0.00     0.040 C 
HETATM    4  C   UNL     1      -4.228   3.384 -31.383  1.00  0.00     0.206 C 
HETATM    5  N   UNL     1      -4.966   3.323 -30.048  1.00  0.00    -0.065 N 
HETATM    6  H   UNL     1      -4.304   2.951 -29.336  1.00  0.00     0.280 HD
HETATM    7  C   UNL     1      -6.139   2.364 -30.050  1.00  0.00     0.242 C 
HETATM    8  C   UNL     1      -6.282   5.243 -30.802  1.00  0.00     0.032 C 
HETATM    9  C   UNL     1      -5.408   4.716 -29.654  1.00  0.00     0.236 C 
ENDROOT
BRANCH   4  10
HETATM   10  C   UNL     1      -3.337   2.146 -31.651  1.00  0.00     0.156 C 
BRANCH  10  11
HETATM   11  N   UNL     1      -3.950   1.143 -32.516  1.00  0.00    -0.355 N 
HETATM   12  C   UNL     1      -3.749  -0.209 -32.342  1.00  0.00     0.251 C 
HETATM   13  O   UNL     1      -2.898  -0.641 -31.568  1.00  0.00    -0.268 OA
HETATM   14  H   UNL     1      -4.775   1.424 -33.044  1.00  0.00     0.162 HD
BRANCH  12  15
HETATM   15  C   UNL     1      -4.578  -1.127 -33.159  1.00  0.00     0.034 A 
HETATM   16  C   UNL     1      -4.144  -2.427 -33.444  1.00  0.00     0.056 A 
HETATM   17  C   UNL     1      -4.996  -3.234 -34.168  1.00  0.00     0.106 A 
HETATM   18  C   UNL     1      -6.222  -2.795 -34.605  1.00  0.00     0.105 A 
HETATM   19  O   UNL     1      -4.752  -4.524 -34.518  1.00  0.00    -0.323 OA
HETATM   20  O   UNL     1      -6.901  -3.751 -35.290  1.00  0.00    -0.323 OA
HETATM   21  C   UNL     1      -6.676  -1.521 -34.339  1.00  0.00     0.041 A 
HETATM   22  C   UNL     1      -5.972  -4.855 -35.222  1.00  0.00     0.352 A 
HETATM   23  C   UNL     1      -5.842  -0.677 -33.597  1.00  0.00     0.020 A 
ENDBRANCH  12  15
ENDBRANCH  10  11
ENDBRANCH   4  10
BRANCH   1  24
HETATM   24  C   UNL     1      -7.955   1.882 -31.815  1.00  0.00     0.241 C 
BRANCH  24  25
HETATM   25  N   UNL     1      -9.256   2.341 -32.436  1.00  0.00    -0.074 N 
HETATM   26  C   UNL     1     -10.057   3.166 -31.448  1.00  0.00     0.269 C 
HETATM   27  H   UNL     1      -9.073   2.987 -33.234  1.00  0.00     0.279 HD
BRANCH  25  28
HETATM   28  C   UNL     1     -10.105   1.233 -33.060  1.00  0.00     0.240 C 
BRANCH  28  29
HETATM   29  C   UNL     1     -11.010   1.746 -34.189  1.00  0.00     0.087 C 
BRANCH  29  30
HETATM   30  C   UNL     1     -12.490   1.678 -33.882  1.00  0.00     0.035 A 
HETATM   31  N   UNL     1     -13.033   2.675 -33.119  1.00  0.00    -0.266 NA
HETATM   32  C   UNL     1     -14.348   2.536 -32.791  1.00  0.00     0.117 A 
HETATM   33  C   UNL     1     -15.141   1.473 -33.183  1.00  0.00     0.019 A 
HETATM   34  C   UNL     1     -14.562   0.473 -33.954  1.00  0.00     0.003 A 
HETATM   35  C   UNL     1     -13.220   0.568 -34.303  1.00  0.00     0.027 A 
ENDBRANCH  29  30
ENDBRANCH  28  29
ENDBRANCH  25  28
ENDBRANCH  24  25
ENDBRANCH   1  24
TORSDOF 8
ENDMDL
MODEL 10
REMARK VINA RESULT:      -8.3      4.082      9.290
REMARK  8 active torsions:
REMARK  status: ('A' for Active; 'I' for Inactive)
REMARK    1  A    between atoms: N_2  and  C_4 
REMARK    2  A    between atoms: N_2  and  C_27 
REMARK    3  A    between atoms: C_4  and  C_5 
REMARK    4  A    between atoms: C_8  and  C_9 
REMARK    5  A    between atoms: C_9  and  N_10 
REMARK       I    between atoms: N_10  and  C_11 
REMARK    6  A    between atoms: C_11  and  C_12 
REMARK    7  A    between atoms: C_27  and  C_28 
REMARK    8  A    between atoms: C_28  and  C_29 
ROOT
HETATM    1  C   UNL     1      -6.049   3.269 -32.576  1.00  0.00     0.041 C 
HETATM    2  C   UNL     1      -6.316   4.178 -33.815  1.00  0.00    -0.004 C 
HETATM    3  C   UNL     1      -4.999   4.407 -34.602  1.00  0.00     0.040 C 
HETATM    4  C   UNL     1      -4.023   5.260 -33.772  1.00  0.00     0.206 C 
HETATM    5  N   UNL     1      -4.556   5.236 -32.341  1.00  0.00    -0.065 N 
HETATM    6  H   UNL     1      -3.814   5.617 -31.719  1.00  0.00     0.280 HD
HETATM    7  C   UNL     1      -4.837   3.839 -31.826  1.00  0.00     0.242 C 
HETATM    8  C   UNL     1      -6.795   5.552 -33.278  1.00  0.00     0.032 C 
HETATM    9  C   UNL     1      -5.793   6.103 -32.252  1.00  0.00     0.236 C 
ENDROOT
BRANCH   4  10
HETATM   10  C   UNL     1      -2.542   4.819 -33.883  1.00  0.00     0.156 C 
BRANCH  10  11
HETATM   11  N   UNL     1      -1.768   5.006 -32.660  1.00  0.00    -0.355 N 
HETATM   12  C   UNL     1      -0.992   6.124 -32.437  1.00  0.00     0.251 C 
HETATM   13  O   UNL     1      -0.762   6.937 -33.328  1.00  0.00    -0.268 OA
HETATM   14  H   UNL     1      -2.051   4.469 -31.843  1.00  0.00     0.162 HD
BRANCH  12  15
HETATM   15  C   UNL     1      -0.414   6.286 -31.082  1.00  0.00     0.034 A 
HETATM   16  C   UNL     1      -0.568   7.484 -30.373  1.00  0.00     0.056 A 
HETATM   17  C   UNL     1      -0.043   7.536 -29.099  1.00  0.00     0.106 A 
HETATM   18  C   UNL     1       0.612   6.469 -28.535  1.00  0.00     0.105 A 
HETATM   19  O   UNL     1      -0.115   8.604 -28.261  1.00  0.00    -0.323 OA
HETATM   20  O   UNL     1       1.040   6.733 -27.273  1.00  0.00    -0.323 OA
HETATM   21  C   UNL     1       0.778   5.278 -29.209  1.00  0.00     0.041 A 
HETATM   22  C   UNL     1       0.564   8.084 -27.094  1.00  0.00     0.352 A 
HETATM   23  C   UNL     1       0.249   5.184 -30.500  1.00  0.00     0.020 A 
ENDBRANCH  12  15
ENDBRANCH  10  11
ENDBRANCH   4  10
BRANCH   1  24
HETATM   24  C   UNL     1      -5.905   1.780 -32.951  1.00  0.00     0.241 C 
BRANCH  24  25
HETATM   25  N   UNL     1      -7.207   1.011 -33.000  1.00  0.00    -0.074 N 
HETATM   26  C   UNL     1      -8.068   1.341 -31.797  1.00  0.00     0.269 C 
HETATM   27  H   UNL     1      -7.776   1.307 -33.823  1.00  0.00     0.279 HD
BRANCH  25  28
HETATM   28  C   UNL     1      -7.063  -0.500 -33.189  1.00  0.00     0.240 C 
BRANCH  28  29
HETATM   29  C   UNL     1      -6.331  -0.867 -34.488  1.00  0.00     0.087 C 
BRANCH  29  30
HETATM   30  C   UNL     1      -5.860  -2.304 -34.553  1.00  0.00     0.035 A 
HETATM   31  N   UNL     1      -6.774  -3.263 -34.891  1.00  0.00    -0.266 NA
HETATM   32  C   UNL     1      -6.337  -4.552 -34.857  1.00  0.00     0.117 A 
HETATM   33  C   UNL     1      -5.052  -4.930 -34.512  1.00  0.00     0.019 A 
HETATM   34  C   UNL     1      -4.146  -3.936 -34.169  1.00  0.00     0.003 A 
HETATM   35  C   UNL     1      -4.552  -2.606 -34.180  1.00  0.00     0.027 A 
ENDBRANCH  29  30
ENDBRANCH  28  29
ENDBRANCH  25  28
ENDBRANCH  24  25
ENDBRANCH   1  24
TORSDOF 8
ENDMDL
