MODEL 1
REMARK VINA RESULT:      -8.8      0.000      0.000
REMARK  5 active torsions:
REMARK  status: ('A' for Active; 'I' for Inactive)
REMARK    1  A    between atoms: C_2  and  C_3 
REMARK    2  A    between atoms: C_7  and  C_8 
REMARK    3  A    between atoms: C_11  and  C_12 
REMARK       I    between atoms: C_12  and  N_13 
REMARK    4  A    between atoms: N_13  and  C_14 
REMARK    5  A    between atoms: C_17  and  N_18 
REMARK       I    between atoms: N_18  and  C_19 
ROOT
HETATM    1  C   UNL     1      -3.603   4.072 -31.992  1.00  0.00     0.010 A 
HETATM    2  C   UNL     1      -2.282   4.067 -32.463  1.00  0.00     0.016 A 
HETATM    3  C   UNL     1      -1.337   4.968 -31.953  1.00  0.00     0.018 A 
HETATM    4  C   UNL     1      -1.713   5.887 -30.968  1.00  0.00     0.032 A 
HETATM    5  C   UNL     1      -3.026   5.872 -30.476  1.00  0.00     0.018 A 
HETATM    6  C   UNL     1      -3.966   4.970 -30.982  1.00  0.00     0.016 A 
ENDROOT
BRANCH   4   7
HETATM    7  C   UNL     1      -0.763   6.879 -30.383  1.00  0.00     0.256 C 
HETATM    8  N   UNL     1      -0.980   7.201 -29.055  1.00  0.00    -0.323 N 
HETATM    9  H   UNL     1      -1.732   6.726 -28.578  1.00  0.00     0.169 HD
HETATM   10  O   UNL     1       0.145   7.286 -31.099  1.00  0.00    -0.267 OA
BRANCH   8  11
HETATM   11  C   UNL     1      -0.177   8.032 -28.242  1.00  0.00     0.035 A 
HETATM   12  C   UNL     1       1.134   7.737 -27.873  1.00  0.00     0.032 A 
HETATM   13  C   UNL     1       1.847   8.585 -27.010  1.00  0.00     0.032 A 
HETATM   14  C   UNL     1       1.263   9.744 -26.507  1.00  0.00     0.034 A 
HETATM   15  C   UNL     1      -0.042  10.059 -26.901  1.00  0.00     0.032 A 
HETATM   16  C   UNL     1      -0.755   9.212 -27.760  1.00  0.00     0.032 A 
BRANCH  14  17
HETATM   17  N   UNL     1       1.894  10.619 -25.599  1.00  0.00    -0.328 N 
HETATM   18  C   UNL     1       2.194  10.378 -24.271  1.00  0.00     0.218 C 
HETATM   19  C   UNL     1       2.806  11.580 -23.592  1.00  0.00     0.117 C 
HETATM   20  O   UNL     1       2.032   9.332 -23.654  1.00  0.00    -0.274 OA
HETATM   21  H   UNL     1       2.133  11.533 -25.962  1.00  0.00     0.169 HD
ENDBRANCH  14  17
ENDBRANCH   8  11
ENDBRANCH   4   7
BRANCH   1  22
HETATM   22  C   UNL     1      -4.572   3.085 -32.554  1.00  0.00     0.142 A 
HETATM   23  N   UNL     1      -4.259   1.825 -32.618  1.00  0.00    -0.222 NA
HETATM   24  C   UNL     1      -5.224   1.016 -33.128  1.00  0.00     0.116 A 
HETATM   25  C   UNL     1      -6.468   1.393 -33.588  1.00  0.00     0.075 A 
HETATM   26  S   UNL     1      -4.991  -0.664 -33.254  1.00  0.00    -0.074 SA
HETATM   27  C   UNL     1      -7.262   0.279 -34.042  1.00  0.00    -0.027 A 
HETATM   28  C   UNL     1      -6.784   2.806 -33.539  1.00  0.00     0.260 A 
HETATM   29  C   UNL     1      -6.556  -0.910 -33.903  1.00  0.00    -0.012 A 
HETATM   30  C   UNL     1      -7.001  -2.296 -34.243  1.00  0.00     0.057 C 
HETATM   31  N   UNL     1      -5.783   3.585 -33.003  1.00  0.00    -0.307 N 
HETATM   32  O   UNL     1      -7.834   3.303 -33.933  1.00  0.00    -0.267 OA
HETATM   33  H   UNL     1      -5.987   4.572 -33.004  1.00  0.00     0.170 HD
BRANCH  27  34
HETATM   34  C   UNL     1      -8.664   0.387 -34.580  1.00  0.00     0.036 C 
HETATM   35  C   UNL     1      -9.708   0.388 -33.474  1.00  0.00     0.010 C 
ENDBRANCH  27  34
ENDBRANCH   1  22
TORSDOF 5
ENDMDL
MODEL 2
REMARK VINA RESULT:      -8.3      2.434      3.010
REMARK  5 active torsions:
REMARK  status: ('A' for Active; 'I' for Inactive)
REMARK    1  A    between atoms: C_2  and  C_3 
REMARK    2  A    between atoms: C_7  and  C_8 
REMARK    3  A    between atoms: C_11  and  C_12 
REMARK       I    between atoms: C_12  and  N_13 
REMARK    4  A    between atoms: N_13  and  C_14 
REMARK    5  A    between atoms: C_17  and  N_18 
REMARK       I    between atoms: N_18  and  C_19 
ROOT
HETATM    1  C   UNL     1      -5.654   4.734 -32.167  1.00  0.00     0.010 A 
HETATM    2  C   UNL     1      -4.462   4.321 -32.780  1.00  0.00     0.016 A 
HETATM    3  C   UNL     1      -3.219   4.722 -32.270  1.00  0.00     0.018 A 
HETATM    4  C   UNL     1      -3.163   5.547 -31.142  1.00  0.00     0.032 A 
HETATM    5  C   UNL     1      -4.354   5.935 -30.512  1.00  0.00     0.018 A 
HETATM    6  C   UNL     1      -5.593   5.531 -31.018  1.00  0.00     0.016 A 
ENDROOT
BRANCH   4   7
HETATM    7  C   UNL     1      -1.877   6.017 -30.548  1.00  0.00     0.256 C 
HETATM    8  N   UNL     1      -1.975   6.594 -29.294  1.00  0.00    -0.323 N 
HETATM    9  H   UNL     1      -2.889   6.624 -28.867  1.00  0.00     0.169 HD
HETATM   10  O   UNL     1      -0.850   5.816 -31.186  1.00  0.00    -0.267 OA
BRANCH   8  11
HETATM   11  C   UNL     1      -0.909   7.031 -28.476  1.00  0.00     0.035 A 
HETATM   12  C   UNL     1       0.115   7.871 -28.906  1.00  0.00     0.032 A 
HETATM   13  C   UNL     1       1.174   8.212 -28.050  1.00  0.00     0.032 A 
HETATM   14  C   UNL     1       1.222   7.724 -26.747  1.00  0.00     0.034 A 
HETATM   15  C   UNL     1       0.177   6.906 -26.302  1.00  0.00     0.032 A 
HETATM   16  C   UNL     1      -0.878   6.563 -27.158  1.00  0.00     0.032 A 
BRANCH  14  17
HETATM   17  N   UNL     1       2.273   7.980 -25.843  1.00  0.00    -0.328 N 
HETATM   18  C   UNL     1       2.268   8.857 -24.774  1.00  0.00     0.218 C 
HETATM   19  C   UNL     1       3.604   8.920 -24.074  1.00  0.00     0.117 C 
HETATM   20  O   UNL     1       1.324   9.524 -24.369  1.00  0.00    -0.274 OA
HETATM   21  H   UNL     1       3.135   7.477 -26.015  1.00  0.00     0.169 HD
ENDBRANCH  14  17
ENDBRANCH   8  11
ENDBRANCH   4   7
BRANCH   1  22
HETATM   22  C   UNL     1      -6.954   4.271 -32.736  1.00  0.00     0.142 A 
HETATM   23  N   UNL     1      -7.449   3.121 -32.386  1.00  0.00    -0.222 NA
HETATM   24  C   UNL     1      -8.646   2.812 -32.950  1.00  0.00     0.116 A 
HETATM   25  C   UNL     1      -9.364   3.573 -33.848  1.00  0.00     0.075 A 
HETATM   26  S   UNL     1      -9.448   1.359 -32.578  1.00  0.00    -0.074 SA
HETATM   27  C   UNL     1     -10.611   2.963 -34.233  1.00  0.00    -0.027 A 
HETATM   28  C   UNL     1      -8.778   4.836 -34.251  1.00  0.00     0.260 A 
HETATM   29  C   UNL     1     -10.773   1.740 -33.594  1.00  0.00    -0.012 A 
HETATM   30  C   UNL     1     -11.916   0.784 -33.698  1.00  0.00     0.057 C 
HETATM   31  N   UNL     1      -7.574   5.113 -33.644  1.00  0.00    -0.307 N 
HETATM   32  O   UNL     1      -9.278   5.614 -35.058  1.00  0.00    -0.267 OA
HETATM   33  H   UNL     1      -7.149   5.973 -33.953  1.00  0.00     0.170 HD
BRANCH  27  34
HETATM   34  C   UNL     1     -11.607   3.572 -35.184  1.00  0.00     0.036 C 
HETATM   35  C   UNL     1     -12.688   4.361 -34.461  1.00  0.00     0.010 C 
ENDBRANCH  27  34
ENDBRANCH   1  22
TORSDOF 5
ENDMDL
MODEL 3
REMARK VINA RESULT:      -8.2      3.443     12.418
REMARK  5 active torsions:
REMARK  status: ('A' for Active; 'I' for Inactive)
REMARK    1  A    between atoms: C_2  and  C_3 
REMARK    2  A    between atoms: C_7  and  C_8 
REMARK    3  A    between atoms: C_11  and  C_12 
REMARK       I    between atoms: C_12  and  N_13 
REMARK    4  A    between atoms: N_13  and  C_14 
REMARK    5  A    between atoms: C_17  and  N_18 
REMARK       I    between atoms: N_18  and  C_19 
ROOT
HETATM    1  C   UNL     1      -3.863   5.561 -30.778  1.00  0.00     0.010 A 
HETATM    2  C   UNL     1      -3.494   4.756 -31.866  1.00  0.00     0.016 A 
HETATM    3  C   UNL     1      -4.452   3.995 -32.551  1.00  0.00     0.018 A 
HETATM    4  C   UNL     1      -5.790   4.032 -32.145  1.00  0.00     0.032 A 
HETATM    5  C   UNL     1      -6.164   4.860 -31.077  1.00  0.00     0.018 A 
HETATM    6  C   UNL     1      -5.209   5.622 -30.397  1.00  0.00     0.016 A 
ENDROOT
BRANCH   4   7
HETATM    7  C   UNL     1      -6.862   3.245 -32.823  1.00  0.00     0.256 C 
HETATM    8  N   UNL     1      -8.053   3.137 -32.127  1.00  0.00    -0.323 N 
HETATM    9  H   UNL     1      -8.119   3.617 -31.241  1.00  0.00     0.169 HD
HETATM   10  O   UNL     1      -6.623   2.805 -33.942  1.00  0.00    -0.267 OA
BRANCH   8  11
HETATM   11  C   UNL     1      -9.248   2.534 -32.579  1.00  0.00     0.035 A 
HETATM   12  C   UNL     1      -9.433   1.159 -32.706  1.00  0.00     0.032 A 
HETATM   13  C   UNL     1     -10.630   0.639 -33.222  1.00  0.00     0.032 A 
HETATM   14  C   UNL     1     -11.665   1.484 -33.613  1.00  0.00     0.034 A 
HETATM   15  C   UNL     1     -11.494   2.864 -33.455  1.00  0.00     0.032 A 
HETATM   16  C   UNL     1     -10.298   3.384 -32.943  1.00  0.00     0.032 A 
BRANCH  14  17
HETATM   17  N   UNL     1     -12.876   1.042 -34.184  1.00  0.00    -0.328 N 
HETATM   18  C   UNL     1     -14.151   1.191 -33.670  1.00  0.00     0.218 C 
HETATM   19  C   UNL     1     -15.199   0.523 -34.527  1.00  0.00     0.117 C 
HETATM   20  O   UNL     1     -14.474   1.798 -32.656  1.00  0.00    -0.274 OA
HETATM   21  H   UNL     1     -12.794   0.542 -35.060  1.00  0.00     0.169 HD
ENDBRANCH  14  17
ENDBRANCH   8  11
ENDBRANCH   4   7
BRANCH   1  22
HETATM   22  C   UNL     1      -2.812   6.365 -30.088  1.00  0.00     0.142 A 
HETATM   23  N   UNL     1      -3.113   7.507 -29.546  1.00  0.00    -0.222 NA
HETATM   24  C   UNL     1      -2.083   8.143 -28.928  1.00  0.00     0.116 A 
HETATM   25  C   UNL     1      -0.777   7.711 -28.834  1.00  0.00     0.075 A 
HETATM   26  S   UNL     1      -2.309   9.633 -28.142  1.00  0.00    -0.074 SA
HETATM   27  C   UNL     1       0.062   8.613 -28.086  1.00  0.00    -0.027 A 
HETATM   28  C   UNL     1      -0.455   6.451 -29.473  1.00  0.00     0.260 A 
HETATM   29  C   UNL     1      -0.671   9.710 -27.648  1.00  0.00    -0.012 A 
HETATM   30  C   UNL     1      -0.202  10.875 -26.839  1.00  0.00     0.057 C 
HETATM   31  N   UNL     1      -1.531   5.838 -30.074  1.00  0.00    -0.307 N 
HETATM   32  O   UNL     1       0.663   5.945 -29.501  1.00  0.00    -0.267 OA
HETATM   33  H   UNL     1      -1.300   4.981 -30.551  1.00  0.00     0.170 HD
BRANCH  27  34
HETATM   34  C   UNL     1       1.525   8.393 -27.807  1.00  0.00     0.036 C 
HETATM   35  C   UNL     1       1.767   7.806 -26.425  1.00  0.00     0.010 C 
ENDBRANCH  27  34
ENDBRANCH   1  22
TORSDOF 5
ENDMDL
MODEL 4
REMARK VINA RESULT:      -8.0      1.743      2.293
REMARK  5 active torsions:
REMARK  status: ('A' for Active; 'I' for Inactive)
REMARK    1  A    between atoms: C_2  and  C_3 
REMARK    2  A    between atoms: C_7  and  C_8 
REMARK    3  A    between atoms: C_11  and  C_12 
REMARK       I    between atoms: C_12  and  N_13 
REMARK    4  A    between atoms: N_13  and  C_14 
REMARK    5  A    between atoms: C_17  and  N_18 
REMARK       I    between atoms: N_18  and  C_19 
ROOT
HETATM    1  C   UNL     1      -4.626   4.729 -31.000  1.00  0.00     0.010 A 
HETATM    2  C   UNL     1      -3.320   4.828 -31.501  1.00  0.00     0.016 A 
HETATM    3  C   UNL     1      -2.428   5.781 -30.991  1.00  0.00     0.018 A 
HETATM    4  C   UNL     1      -2.842   6.648 -29.975  1.00  0.00     0.032 A 
HETATM    5  C   UNL     1      -4.138   6.530 -29.453  1.00  0.00     0.018 A 
HETATM    6  C   UNL     1      -5.026   5.576 -29.959  1.00  0.00     0.016 A 
ENDROOT
BRANCH   4   7
HETATM    7  C   UNL     1      -1.949   7.690 -29.388  1.00  0.00     0.256 C 
HETATM    8  N   UNL     1      -1.311   7.336 -28.213  1.00  0.00    -0.323 N 
HETATM    9  H   UNL     1      -1.469   6.403 -27.861  1.00  0.00     0.169 HD
HETATM   10  O   UNL     1      -1.818   8.740 -30.008  1.00  0.00    -0.267 OA
BRANCH   8  11
HETATM   11  C   UNL     1      -0.349   8.094 -27.508  1.00  0.00     0.035 A 
HETATM   12  C   UNL     1       1.012   8.107 -27.809  1.00  0.00     0.032 A 
HETATM   13  C   UNL     1       1.916   8.838 -27.023  1.00  0.00     0.032 A 
HETATM   14  C   UNL     1       1.473   9.574 -25.927  1.00  0.00     0.034 A 
HETATM   15  C   UNL     1       0.104   9.588 -25.642  1.00  0.00     0.032 A 
HETATM   16  C   UNL     1      -0.798   8.856 -26.425  1.00  0.00     0.032 A 
BRANCH  14  17
HETATM   17  N   UNL     1       2.322  10.293 -25.061  1.00  0.00    -0.328 N 
HETATM   18  C   UNL     1       3.014   9.807 -23.967  1.00  0.00     0.218 C 
HETATM   19  C   UNL     1       3.767  10.891 -23.233  1.00  0.00     0.117 C 
HETATM   20  O   UNL     1       3.075   8.644 -23.588  1.00  0.00    -0.274 OA
HETATM   21  H   UNL     1       2.416  11.282 -25.256  1.00  0.00     0.169 HD
ENDBRANCH  14  17
ENDBRANCH   8  11
ENDBRANCH   4   7
BRANCH   1  22
HETATM   22  C   UNL     1      -5.538   3.690 -31.563  1.00  0.00     0.142 A 
HETATM   23  N   UNL     1      -6.826   3.862 -31.531  1.00  0.00    -0.222 NA
HETATM   24  C   UNL     1      -7.556   2.861 -32.089  1.00  0.00     0.116 A 
HETATM   25  C   UNL     1      -7.077   1.702 -32.661  1.00  0.00     0.075 A 
HETATM   26  S   UNL     1      -9.253   2.941 -32.158  1.00  0.00    -0.074 SA
HETATM   27  C   UNL     1      -8.122   0.859 -33.185  1.00  0.00    -0.027 A 
HETATM   28  C   UNL     1      -5.641   1.514 -32.656  1.00  0.00     0.260 A 
HETATM   29  C   UNL     1      -9.368   1.438 -32.972  1.00  0.00    -0.012 A 
HETATM   30  C   UNL     1     -10.712   0.913 -33.358  1.00  0.00     0.057 C 
HETATM   31  N   UNL     1      -4.942   2.558 -32.093  1.00  0.00    -0.307 N 
HETATM   32  O   UNL     1      -5.062   0.527 -33.101  1.00  0.00    -0.267 OA
HETATM   33  H   UNL     1      -3.946   2.410 -32.056  1.00  0.00     0.170 HD
BRANCH  27  34
HETATM   34  C   UNL     1      -7.896  -0.458 -33.877  1.00  0.00     0.036 C 
HETATM   35  C   UNL     1      -7.573  -0.286 -35.354  1.00  0.00     0.010 C 
ENDBRANCH  27  34
ENDBRANCH   1  22
TORSDOF 5
ENDMDL
MODEL 5
REMARK VINA RESULT:      -8.0      1.974      2.693
REMARK  5 active torsions:
REMARK  status: ('A' for Active; 'I' for Inactive)
REMARK    1  A    between atoms: C_2  and  C_3 
REMARK    2  A    between atoms: C_7  and  C_8 
REMARK    3  A    between atoms: C_11  and  C_12 
REMARK       I    between atoms: C_12  and  N_13 
REMARK    4  A    between atoms: N_13  and  C_14 
REMARK    5  A    between atoms: C_17  and  N_18 
REMARK       I    between atoms: N_18  and  C_19 
ROOT
HETATM    1  C   UNL     1      -4.535   4.983 -31.723  1.00  0.00     0.010 A 
HETATM    2  C   UNL     1      -3.278   4.789 -32.315  1.00  0.00     0.016 A 
HETATM    3  C   UNL     1      -2.137   5.413 -31.793  1.00  0.00     0.018 A 
HETATM    4  C   UNL     1      -2.249   6.244 -30.673  1.00  0.00     0.032 A 
HETATM    5  C   UNL     1      -3.499   6.414 -30.063  1.00  0.00     0.018 A 
HETATM    6  C   UNL     1      -4.637   5.787 -30.581  1.00  0.00     0.016 A 
ENDROOT
BRANCH   4   7
HETATM    7  C   UNL     1      -1.078   6.945 -30.067  1.00  0.00     0.256 C 
HETATM    8  N   UNL     1      -1.220   7.301 -28.738  1.00  0.00    -0.323 N 
HETATM    9  H   UNL     1      -2.077   7.036 -28.274  1.00  0.00     0.169 HD
HETATM   10  O   UNL     1      -0.086   7.105 -30.769  1.00  0.00    -0.267 OA
BRANCH   8  11
HETATM   11  C   UNL     1      -0.237   7.883 -27.906  1.00  0.00     0.035 A 
HETATM   12  C   UNL     1      -0.122   9.251 -27.668  1.00  0.00     0.032 A 
HETATM   13  C   UNL     1       0.921   9.759 -26.878  1.00  0.00     0.032 A 
HETATM   14  C   UNL     1       1.862   8.907 -26.306  1.00  0.00     0.034 A 
HETATM   15  C   UNL     1       1.730   7.530 -26.517  1.00  0.00     0.032 A 
HETATM   16  C   UNL     1       0.691   7.023 -27.309  1.00  0.00     0.032 A 
BRANCH  14  17
HETATM   17  N   UNL     1       2.964   9.342 -25.543  1.00  0.00    -0.328 N 
HETATM   18  C   UNL     1       3.163   9.177 -24.184  1.00  0.00     0.218 C 
HETATM   19  C   UNL     1       4.429   9.843 -23.702  1.00  0.00     0.117 C 
HETATM   20  O   UNL     1       2.451   8.558 -23.403  1.00  0.00    -0.274 OA
HETATM   21  H   UNL     1       3.678   9.851 -26.048  1.00  0.00     0.169 HD
ENDBRANCH  14  17
ENDBRANCH   8  11
ENDBRANCH   4   7
BRANCH   1  22
HETATM   22  C   UNL     1      -5.721   4.287 -32.303  1.00  0.00     0.142 A 
HETATM   23  N   UNL     1      -6.710   4.975 -32.790  1.00  0.00    -0.222 NA
HETATM   24  C   UNL     1      -7.726   4.237 -33.310  1.00  0.00     0.116 A 
HETATM   25  C   UNL     1      -7.815   2.863 -33.358  1.00  0.00     0.075 A 
HETATM   26  S   UNL     1      -9.084   4.979 -34.015  1.00  0.00    -0.074 SA
HETATM   27  C   UNL     1      -9.018   2.398 -34.002  1.00  0.00    -0.027 A 
HETATM   28  C   UNL     1      -6.716   2.114 -32.780  1.00  0.00     0.260 A 
HETATM   29  C   UNL     1      -9.797   3.473 -34.412  1.00  0.00    -0.012 A 
HETATM   30  C   UNL     1     -11.111   3.448 -35.121  1.00  0.00     0.057 C 
HETATM   31  N   UNL     1      -5.706   2.902 -32.278  1.00  0.00    -0.307 N 
HETATM   32  O   UNL     1      -6.657   0.890 -32.722  1.00  0.00    -0.267 OA
HETATM   33  H   UNL     1      -4.960   2.383 -31.843  1.00  0.00     0.170 HD
BRANCH  27  34
HETATM   34  C   UNL     1      -9.375   0.951 -34.213  1.00  0.00     0.036 C 
HETATM   35  C   UNL     1     -10.172   0.378 -33.050  1.00  0.00     0.010 C 
ENDBRANCH  27  34
ENDBRANCH   1  22
TORSDOF 5
ENDMDL
MODEL 6
REMARK VINA RESULT:      -8.0      3.170      3.894
REMARK  5 active torsions:
REMARK  status: ('A' for Active; 'I' for Inactive)
REMARK    1  A    between atoms: C_2  and  C_3 
REMARK    2  A    between atoms: C_7  and  C_8 
REMARK    3  A    between atoms: C_11  and  C_12 
REMARK       I    between atoms: C_12  and  N_13 
REMARK    4  A    between atoms: N_13  and  C_14 
REMARK    5  A    between atoms: C_17  and  N_18 
REMARK       I    between atoms: N_18  and  C_19 
ROOT
HETATM    1  C   UNL     1      -4.915   2.306 -31.636  1.00  0.00     0.010 A 
HETATM    2  C   UNL     1      -5.911   2.559 -30.681  1.00  0.00     0.016 A 
HETATM    3  C   UNL     1      -5.940   3.773 -29.983  1.00  0.00     0.018 A 
HETATM    4  C   UNL     1      -4.965   4.744 -30.233  1.00  0.00     0.032 A 
HETATM    5  C   UNL     1      -3.987   4.504 -31.209  1.00  0.00     0.018 A 
HETATM    6  C   UNL     1      -3.961   3.294 -31.909  1.00  0.00     0.016 A 
ENDROOT
BRANCH   4   7
HETATM    7  C   UNL     1      -4.930   6.057 -29.524  1.00  0.00     0.256 C 
HETATM    8  N   UNL     1      -4.147   6.099 -28.384  1.00  0.00    -0.323 N 
HETATM    9  H   UNL     1      -3.640   5.262 -28.138  1.00  0.00     0.169 HD
HETATM   10  O   UNL     1      -5.550   6.989 -30.024  1.00  0.00    -0.267 OA
BRANCH   8  11
HETATM   11  C   UNL     1      -3.868   7.232 -27.588  1.00  0.00     0.035 A 
HETATM   12  C   UNL     1      -3.586   8.498 -28.098  1.00  0.00     0.032 A 
HETATM   13  C   UNL     1      -3.257   9.561 -27.242  1.00  0.00     0.032 A 
HETATM   14  C   UNL     1      -3.212   9.378 -25.863  1.00  0.00     0.034 A 
HETATM   15  C   UNL     1      -3.527   8.116 -25.347  1.00  0.00     0.032 A 
HETATM   16  C   UNL     1      -3.852   7.054 -26.200  1.00  0.00     0.032 A 
BRANCH  14  17
HETATM   17  N   UNL     1      -2.844  10.381 -24.942  1.00  0.00    -0.328 N 
HETATM   18  C   UNL     1      -1.793  10.352 -24.044  1.00  0.00     0.218 C 
HETATM   19  C   UNL     1      -1.753  11.580 -23.166  1.00  0.00     0.117 C 
HETATM   20  O   UNL     1      -0.942   9.479 -23.930  1.00  0.00    -0.274 OA
HETATM   21  H   UNL     1      -3.433  11.205 -24.928  1.00  0.00     0.169 HD
ENDBRANCH  14  17
ENDBRANCH   8  11
ENDBRANCH   4   7
BRANCH   1  22
HETATM   22  C   UNL     1      -4.931   1.004 -32.367  1.00  0.00     0.142 A 
HETATM   23  N   UNL     1      -4.149   0.035 -31.995  1.00  0.00    -0.222 NA
HETATM   24  C   UNL     1      -4.263  -1.109 -32.719  1.00  0.00     0.116 A 
HETATM   25  C   UNL     1      -5.096  -1.334 -33.793  1.00  0.00     0.075 A 
HETATM   26  S   UNL     1      -3.335  -2.485 -32.346  1.00  0.00    -0.074 SA
HETATM   27  C   UNL     1      -4.988  -2.671 -34.321  1.00  0.00    -0.027 A 
HETATM   28  C   UNL     1      -5.935  -0.229 -34.213  1.00  0.00     0.260 A 
HETATM   29  C   UNL     1      -4.051  -3.403 -33.602  1.00  0.00    -0.012 A 
HETATM   30  C   UNL     1      -3.633  -4.823 -33.803  1.00  0.00     0.057 C 
HETATM   31  N   UNL     1      -5.796   0.903 -33.444  1.00  0.00    -0.307 N 
HETATM   32  O   UNL     1      -6.710  -0.261 -35.165  1.00  0.00    -0.267 OA
HETATM   33  H   UNL     1      -6.352   1.683 -33.759  1.00  0.00     0.170 HD
BRANCH  27  34
HETATM   34  C   UNL     1      -5.787  -3.203 -35.480  1.00  0.00     0.036 C 
HETATM   35  C   UNL     1      -6.772  -4.282 -35.054  1.00  0.00     0.010 C 
ENDBRANCH  27  34
ENDBRANCH   1  22
TORSDOF 5
ENDMDL
MODEL 7
REMARK VINA RESULT:      -7.7      3.165     12.215
REMARK  5 active torsions:
REMARK  status: ('A' for Active; 'I' for Inactive)
REMARK    1  A    between atoms: C_2  and  C_3 
REMARK    2  A    between atoms: C_7  and  C_8 
REMARK    3  A    between atoms: C_11  and  C_12 
REMARK       I    between atoms: C_12  and  N_13 
REMARK    4  A    between atoms: N_13  and  C_14 
REMARK    5  A    between atoms: C_17  and  N_18 
REMARK       I    between atoms: N_18  and  C_19 
ROOT
HETATM    1  C   UNL     1      -2.348   6.448 -29.958  1.00  0.00     0.010 A 
HETATM    2  C   UNL     1      -3.743   6.321 -30.024  1.00  0.00     0.016 A 
HETATM    3  C   UNL     1      -4.338   5.402 -30.899  1.00  0.00     0.018 A 
HETATM    4  C   UNL     1      -3.535   4.605 -31.722  1.00  0.00     0.032 A 
HETATM    5  C   UNL     1      -2.139   4.711 -31.635  1.00  0.00     0.018 A 
HETATM    6  C   UNL     1      -1.547   5.624 -30.758  1.00  0.00     0.016 A 
ENDROOT
BRANCH   4   7
HETATM    7  C   UNL     1      -4.098   3.610 -32.682  1.00  0.00     0.256 C 
HETATM    8  N   UNL     1      -4.280   2.334 -32.180  1.00  0.00    -0.323 N 
HETATM    9  H   UNL     1      -4.053   2.180 -31.208  1.00  0.00     0.169 HD
HETATM   10  O   UNL     1      -4.392   4.007 -33.804  1.00  0.00    -0.267 OA
BRANCH   8  11
HETATM   11  C   UNL     1      -4.879   1.239 -32.842  1.00  0.00     0.035 A 
HETATM   12  C   UNL     1      -6.085   1.308 -33.537  1.00  0.00     0.032 A 
HETATM   13  C   UNL     1      -6.648   0.161 -34.117  1.00  0.00     0.032 A 
HETATM   14  C   UNL     1      -6.010  -1.074 -34.018  1.00  0.00     0.034 A 
HETATM   15  C   UNL     1      -4.783  -1.139 -33.349  1.00  0.00     0.032 A 
HETATM   16  C   UNL     1      -4.223   0.006 -32.767  1.00  0.00     0.032 A 
BRANCH  14  17
HETATM   17  N   UNL     1      -6.534  -2.278 -34.531  1.00  0.00    -0.328 N 
HETATM   18  C   UNL     1      -5.829  -3.403 -34.918  1.00  0.00     0.218 C 
HETATM   19  C   UNL     1      -6.725  -4.476 -35.489  1.00  0.00     0.117 C 
HETATM   20  O   UNL     1      -4.622  -3.589 -34.822  1.00  0.00    -0.274 OA
HETATM   21  H   UNL     1      -7.539  -2.309 -34.645  1.00  0.00     0.169 HD
ENDBRANCH  14  17
ENDBRANCH   8  11
ENDBRANCH   4   7
BRANCH   1  22
HETATM   22  C   UNL     1      -1.758   7.429 -29.001  1.00  0.00     0.142 A 
HETATM   23  N   UNL     1      -2.527   8.109 -28.204  1.00  0.00    -0.222 NA
HETATM   24  C   UNL     1      -1.881   8.958 -27.362  1.00  0.00     0.116 A 
HETATM   25  C   UNL     1      -0.522   9.174 -27.282  1.00  0.00     0.075 A 
HETATM   26  S   UNL     1      -2.733   9.901 -26.232  1.00  0.00    -0.074 SA
HETATM   27  C   UNL     1      -0.161  10.125 -26.260  1.00  0.00    -0.027 A 
HETATM   28  C   UNL     1       0.316   8.431 -28.202  1.00  0.00     0.260 A 
HETATM   29  C   UNL     1      -1.297  10.592 -25.608  1.00  0.00    -0.012 A 
HETATM   30  C   UNL     1      -1.383  11.577 -24.488  1.00  0.00     0.057 C 
HETATM   31  N   UNL     1      -0.380   7.576 -29.025  1.00  0.00    -0.307 N 
HETATM   32  O   UNL     1       1.537   8.530 -28.274  1.00  0.00    -0.267 OA
HETATM   33  H   UNL     1       0.198   7.088 -29.691  1.00  0.00     0.170 HD
BRANCH  27  34
HETATM   34  C   UNL     1       1.247  10.543 -25.934  1.00  0.00     0.036 C 
HETATM   35  C   UNL     1       1.844   9.727 -24.798  1.00  0.00     0.010 C 
ENDBRANCH  27  34
ENDBRANCH   1  22
TORSDOF 5
ENDMDL
MODEL 8
REMARK VINA RESULT:      -7.5      9.925     12.949
REMARK  5 active torsions:
REMARK  status: ('A' for Active; 'I' for Inactive)
REMARK    1  A    between atoms: C_2  and  C_3 
REMARK    2  A    between atoms: C_7  and  C_8 
REMARK    3  A    between atoms: C_11  and  C_12 
REMARK       I    between atoms: C_12  and  N_13 
REMARK    4  A    between atoms: N_13  and  C_14 
REMARK    5  A    between atoms: C_17  and  N_18 
REMARK       I    between atoms: N_18  and  C_19 
ROOT
HETATM    1  C   UNL     1     -12.276   4.664 -35.082  1.00  0.00     0.010 A 
HETATM    2  C   UNL     1     -10.942   4.829 -34.679  1.00  0.00     0.016 A 
HETATM    3  C   UNL     1     -10.156   3.720 -34.335  1.00  0.00     0.018 A 
HETATM    4  C   UNL     1     -10.705   2.435 -34.387  1.00  0.00     0.032 A 
HETATM    5  C   UNL     1     -12.029   2.267 -34.819  1.00  0.00     0.018 A 
HETATM    6  C   UNL     1     -12.811   3.373 -35.166  1.00  0.00     0.016 A 
ENDROOT
BRANCH   4   7
HETATM    7  C   UNL     1      -9.930   1.210 -34.030  1.00  0.00     0.256 C 
HETATM    8  N   UNL     1      -8.632   1.166 -34.505  1.00  0.00    -0.323 N 
HETATM    9  H   UNL     1      -8.298   1.967 -35.022  1.00  0.00     0.169 HD
HETATM   10  O   UNL     1     -10.481   0.377 -33.319  1.00  0.00    -0.267 OA
BRANCH   8  11
HETATM   11  C   UNL     1      -7.662   0.175 -34.234  1.00  0.00     0.035 A 
HETATM   12  C   UNL     1      -7.025   0.017 -33.005  1.00  0.00     0.032 A 
HETATM   13  C   UNL     1      -6.026  -0.954 -32.832  1.00  0.00     0.032 A 
HETATM   14  C   UNL     1      -5.653  -1.788 -33.882  1.00  0.00     0.034 A 
HETATM   15  C   UNL     1      -6.315  -1.654 -35.108  1.00  0.00     0.032 A 
HETATM   16  C   UNL     1      -7.309  -0.682 -35.282  1.00  0.00     0.032 A 
BRANCH  14  17
HETATM   17  N   UNL     1      -4.628  -2.753 -33.802  1.00  0.00    -0.328 N 
HETATM   18  C   UNL     1      -4.687  -4.077 -34.198  1.00  0.00     0.218 C 
HETATM   19  C   UNL     1      -3.413  -4.827 -33.889  1.00  0.00     0.117 C 
HETATM   20  O   UNL     1      -5.619  -4.640 -34.759  1.00  0.00    -0.274 OA
HETATM   21  H   UNL     1      -3.759  -2.439 -33.388  1.00  0.00     0.169 HD
ENDBRANCH  14  17
ENDBRANCH   8  11
ENDBRANCH   4   7
BRANCH   1  22
HETATM   22  C   UNL     1     -13.071   5.871 -35.453  1.00  0.00     0.142 A 
HETATM   23  N   UNL     1     -12.650   6.671 -36.387  1.00  0.00    -0.222 NA
HETATM   24  C   UNL     1     -13.463   7.726 -36.654  1.00  0.00     0.116 A 
HETATM   25  C   UNL     1     -14.657   8.033 -36.037  1.00  0.00     0.075 A 
HETATM   26  S   UNL     1     -13.077   8.852 -37.868  1.00  0.00    -0.074 SA
HETATM   27  C   UNL     1     -15.284   9.212 -36.578  1.00  0.00    -0.027 A 
HETATM   28  C   UNL     1     -15.092   7.148 -34.975  1.00  0.00     0.260 A 
HETATM   29  C   UNL     1     -14.510   9.750 -37.599  1.00  0.00    -0.012 A 
HETATM   30  C   UNL     1     -14.786  10.959 -38.432  1.00  0.00     0.057 C 
HETATM   31  N   UNL     1     -14.244   6.087 -34.748  1.00  0.00    -0.307 N 
HETATM   32  O   UNL     1     -16.114   7.298 -34.313  1.00  0.00    -0.267 OA
HETATM   33  H   UNL     1     -14.527   5.493 -33.985  1.00  0.00     0.170 HD
BRANCH  27  34
HETATM   34  C   UNL     1     -16.601   9.774 -36.112  1.00  0.00     0.036 C 
HETATM   35  C   UNL     1     -17.774   9.243 -36.923  1.00  0.00     0.010 C 
ENDBRANCH  27  34
ENDBRANCH   1  22
TORSDOF 5
ENDMDL
MODEL 9
REMARK VINA RESULT:      -7.4      1.853      2.457
REMARK  5 active torsions:
REMARK  status: ('A' for Active; 'I' for Inactive)
REMARK    1  A    between atoms: C_2  and  C_3 
REMARK    2  A    between atoms: C_7  and  C_8 
REMARK    3  A    between atoms: C_11  and  C_12 
REMARK       I    between atoms: C_12  and  N_13 
REMARK    4  A    between atoms: N_13  and  C_14 
REMARK    5  A    between atoms: C_17  and  N_18 
REMARK       I    between atoms: N_18  and  C_19 
ROOT
HETATM    1  C   UNL     1      -4.206   5.461 -30.645  1.00  0.00     0.010 A 
HETATM    2  C   UNL     1      -2.891   5.633 -31.101  1.00  0.00     0.016 A 
HETATM    3  C   UNL     1      -2.020   6.519 -30.453  1.00  0.00     0.018 A 
HETATM    4  C   UNL     1      -2.464   7.246 -29.344  1.00  0.00     0.032 A 
HETATM    5  C   UNL     1      -3.769   7.051 -28.870  1.00  0.00     0.018 A 
HETATM    6  C   UNL     1      -4.637   6.164 -29.514  1.00  0.00     0.016 A 
ENDROOT
BRANCH   4   7
HETATM    7  C   UNL     1      -1.594   8.211 -28.608  1.00  0.00     0.256 C 
HETATM    8  N   UNL     1      -0.990   7.718 -27.466  1.00  0.00    -0.323 N 
HETATM    9  H   UNL     1      -1.152   6.749 -27.235  1.00  0.00     0.169 HD
HETATM   10  O   UNL     1      -1.451   9.328 -29.092  1.00  0.00    -0.267 OA
BRANCH   8  11
HETATM   11  C   UNL     1      -0.052   8.386 -26.646  1.00  0.00     0.035 A 
HETATM   12  C   UNL     1      -0.361   9.467 -25.823  1.00  0.00     0.032 A 
HETATM   13  C   UNL     1       0.639  10.118 -25.085  1.00  0.00     0.032 A 
HETATM   14  C   UNL     1       1.964   9.694 -25.151  1.00  0.00     0.034 A 
HETATM   15  C   UNL     1       2.271   8.589 -25.952  1.00  0.00     0.032 A 
HETATM   16  C   UNL     1       1.273   7.941 -26.692  1.00  0.00     0.032 A 
BRANCH  14  17
HETATM   17  N   UNL     1       3.032  10.324 -24.480  1.00  0.00    -0.328 N 
HETATM   18  C   UNL     1       3.528  10.025 -23.224  1.00  0.00     0.218 C 
HETATM   19  C   UNL     1       4.633  10.964 -22.803  1.00  0.00     0.117 C 
HETATM   20  O   UNL     1       3.179   9.109 -22.490  1.00  0.00    -0.274 OA
HETATM   21  H   UNL     1       3.467  11.096 -24.969  1.00  0.00     0.169 HD
ENDBRANCH  14  17
ENDBRANCH   8  11
ENDBRANCH   4   7
BRANCH   1  22
HETATM   22  C   UNL     1      -5.095   4.495 -31.357  1.00  0.00     0.142 A 
HETATM   23  N   UNL     1      -5.911   3.739 -30.685  1.00  0.00    -0.222 NA
HETATM   24  C   UNL     1      -6.685   2.913 -31.437  1.00  0.00     0.116 A 
HETATM   25  C   UNL     1      -6.680   2.791 -32.810  1.00  0.00     0.075 A 
HETATM   26  S   UNL     1      -7.828   1.879 -30.719  1.00  0.00    -0.074 SA
HETATM   27  C   UNL     1      -7.647   1.838 -33.295  1.00  0.00    -0.027 A 
HETATM   28  C   UNL     1      -5.740   3.619 -33.538  1.00  0.00     0.260 A 
HETATM   29  C   UNL     1      -8.346   1.272 -32.235  1.00  0.00    -0.012 A 
HETATM   30  C   UNL     1      -9.435   0.251 -32.284  1.00  0.00     0.057 C 
HETATM   31  N   UNL     1      -4.987   4.448 -32.737  1.00  0.00    -0.307 N 
HETATM   32  O   UNL     1      -5.595   3.609 -34.757  1.00  0.00    -0.267 OA
HETATM   33  H   UNL     1      -4.307   4.995 -33.240  1.00  0.00     0.170 HD
BRANCH  27  34
HETATM   34  C   UNL     1      -7.877   1.511 -34.746  1.00  0.00     0.036 C 
HETATM   35  C   UNL     1      -7.130   0.260 -35.180  1.00  0.00     0.010 C 
ENDBRANCH  27  34
ENDBRANCH   1  22
TORSDOF 5
ENDMDL
MODEL 10
REMARK VINA RESULT:      -7.4      8.515     12.359
REMARK  5 active torsions:
REMARK  status: ('A' for Active; 'I' for Inactive)
REMARK    1  A    between atoms: C_2  and  C_3 
REMARK    2  A    between atoms: C_7  and  C_8 
REMARK    3  A    between atoms: C_11  and  C_12 
REMARK       I    between atoms: C_12  and  N_13 
REMARK    4  A    between atoms: N_13  and  C_14 
REMARK    5  A    between atoms: C_17  and  N_18 
REMARK       I    between atoms: N_18  and  C_19 
ROOT
HETATM    1  C   UNL     1      -9.142   1.094 -32.888  1.00  0.00     0.010 A 
HETATM    2  C   UNL     1     -10.253   0.667 -33.630  1.00  0.00     0.016 A 
HETATM    3  C   UNL     1     -11.425   1.435 -33.668  1.00  0.00     0.018 A 
HETATM    4  C   UNL     1     -11.493   2.637 -32.956  1.00  0.00     0.032 A 
HETATM    5  C   UNL     1     -10.372   3.078 -32.239  1.00  0.00     0.018 A 
HETATM    6  C   UNL     1      -9.202   2.314 -32.205  1.00  0.00     0.016 A 
ENDROOT
BRANCH   4   7
HETATM    7  C   UNL     1     -12.709   3.503 -32.946  1.00  0.00     0.256 C 
HETATM    8  N   UNL     1     -13.478   3.438 -31.798  1.00  0.00    -0.323 N 
HETATM    9  H   UNL     1     -13.149   2.845 -31.051  1.00  0.00     0.169 HD
HETATM   10  O   UNL     1     -12.901   4.224 -33.919  1.00  0.00    -0.267 OA
BRANCH   8  11
HETATM   11  C   UNL     1     -14.616   4.218 -31.494  1.00  0.00     0.035 A 
HETATM   12  C   UNL     1     -15.890   3.978 -32.004  1.00  0.00     0.032 A 
HETATM   13  C   UNL     1     -16.960   4.836 -31.704  1.00  0.00     0.032 A 
HETATM   14  C   UNL     1     -16.774   5.945 -30.883  1.00  0.00     0.034 A 
HETATM   15  C   UNL     1     -15.503   6.170 -30.343  1.00  0.00     0.032 A 
HETATM   16  C   UNL     1     -14.435   5.316 -30.646  1.00  0.00     0.032 A 
BRANCH  14  17
HETATM   17  N   UNL     1     -17.784   6.879 -30.574  1.00  0.00    -0.328 N 
HETATM   18  C   UNL     1     -18.033   8.086 -31.202  1.00  0.00     0.218 C 
HETATM   19  C   UNL     1     -19.154   8.856 -30.547  1.00  0.00     0.117 C 
HETATM   20  O   UNL     1     -17.466   8.536 -32.190  1.00  0.00    -0.274 OA
HETATM   21  H   UNL     1     -18.378   6.644 -29.789  1.00  0.00     0.169 HD
ENDBRANCH  14  17
ENDBRANCH   8  11
ENDBRANCH   4   7
BRANCH   1  22
HETATM   22  C   UNL     1      -7.910   0.251 -32.887  1.00  0.00     0.142 A 
HETATM   23  N   UNL     1      -7.788  -0.731 -33.729  1.00  0.00    -0.222 NA
HETATM   24  C   UNL     1      -6.618  -1.417 -33.652  1.00  0.00     0.116 A 
HETATM   25  C   UNL     1      -5.576  -1.188 -32.779  1.00  0.00     0.075 A 
HETATM   26  S   UNL     1      -6.283  -2.713 -34.701  1.00  0.00    -0.074 SA
HETATM   27  C   UNL     1      -4.465  -2.084 -32.979  1.00  0.00    -0.027 A 
HETATM   28  C   UNL     1      -5.745  -0.110 -31.826  1.00  0.00     0.260 A 
HETATM   29  C   UNL     1      -4.735  -2.969 -34.017  1.00  0.00    -0.012 A 
HETATM   30  C   UNL     1      -3.862  -4.053 -34.560  1.00  0.00     0.057 C 
HETATM   31  N   UNL     1      -6.939   0.565 -31.950  1.00  0.00    -0.307 N 
HETATM   32  O   UNL     1      -4.924   0.203 -30.969  1.00  0.00    -0.267 OA
HETATM   33  H   UNL     1      -7.073   1.289 -31.263  1.00  0.00     0.170 HD
BRANCH  27  34
HETATM   34  C   UNL     1      -3.186  -2.057 -32.186  1.00  0.00     0.036 C 
HETATM   35  C   UNL     1      -2.830  -3.423 -31.619  1.00  0.00     0.010 C 
ENDBRANCH  27  34
ENDBRANCH   1  22
TORSDOF 5
ENDMDL
