MODEL 1
REMARK VINA RESULT:      -8.6      0.000      0.000
REMARK  7 active torsions:
REMARK  status: ('A' for Active; 'I' for Inactive)
REMARK    1  A    between atoms: O_2  and  C_3 
REMARK    2  A    between atoms: C_3  and  C_4 
REMARK    3  A    between atoms: C_4  and  N_5 
REMARK    4  A    between atoms: C_4  and  C_21 
REMARK    5  A    between atoms: N_5  and  C_6 
REMARK    6  A    between atoms: C_21  and  C_22 
REMARK    7  A    between atoms: C_25  and  O_26 
ROOT
HETATM    1  N   UNL     1      -7.518   1.353 -34.146  1.00  0.00    -0.277 NA
HETATM    2  H   UNL     1      -7.402   2.370 -34.223  1.00  0.00     0.128 HD
ENDROOT
BRANCH   1   3
HETATM    3  C   UNL     1      -8.796   1.052 -33.440  1.00  0.00     0.164 C 
BRANCH   3   4
HETATM    4  C   UNL     1      -8.617   1.134 -31.910  1.00  0.00     0.276 C 
HETATM    5  O   UNL     1      -8.094   0.259 -31.235  1.00  0.00    -0.263 OA
BRANCH   4   6
HETATM    6  O   UNL     1      -9.107   2.314 -31.423  1.00  0.00    -0.325 OA
HETATM    7  C   UNL     1      -8.305   2.905 -30.397  1.00  0.00     0.213 C 
ENDBRANCH   4   6
ENDBRANCH   3   4
BRANCH   3   8
HETATM    8  C   UNL     1      -9.863   2.112 -33.777  1.00  0.00     0.068 C 
BRANCH   8   9
HETATM    9  C   UNL     1     -11.254   1.583 -34.036  1.00  0.00    -0.056 A 
HETATM   10  C   UNL     1     -11.685   0.374 -33.471  1.00  0.00     0.010 A 
HETATM   11  C   UNL     1     -12.993  -0.076 -33.670  1.00  0.00     0.037 A 
HETATM   12  C   UNL     1     -13.871   0.685 -34.434  1.00  0.00     0.065 A 
HETATM   13  C   UNL     1     -13.464   1.886 -35.000  1.00  0.00     0.037 A 
HETATM   14  C   UNL     1     -12.161   2.339 -34.795  1.00  0.00     0.010 A 
BRANCH  12  15
HETATM   15  O   UNL     1     -15.158   0.291 -34.647  1.00  0.00    -0.361 OA
HETATM   16  H   UNL     1     -15.166  -0.391 -35.339  1.00  0.00     0.217 HD
ENDBRANCH  12  15
ENDBRANCH   8   9
ENDBRANCH   3   8
ENDBRANCH   1   3
BRANCH   1  17
HETATM   17  C   UNL     1      -6.288   0.735 -33.855  1.00  0.00     0.034 A 
HETATM   18  C   UNL     1      -5.375   1.509 -33.075  1.00  0.00     0.013 A 
HETATM   19  C   UNL     1      -4.200   0.909 -32.585  1.00  0.00     0.044 A 
HETATM   20  C   UNL     1      -5.570   2.873 -32.760  1.00  0.00     0.015 A 
HETATM   21  C   UNL     1      -3.276   1.631 -31.811  1.00  0.00     0.030 A 
HETATM   22  N   UNL     1      -3.967  -0.382 -32.850  1.00  0.00    -0.355 N 
HETATM   23  C   UNL     1      -3.502   2.973 -31.518  1.00  0.00     0.002 A 
HETATM   24  C   UNL     1      -4.646   3.595 -31.998  1.00  0.00     0.001 A 
HETATM   25  H   UNL     1      -3.116  -0.792 -32.476  1.00  0.00     0.166 HD
HETATM   26  C   UNL     1      -4.788  -1.172 -33.556  1.00  0.00     0.044 A 
HETATM   27  C   UNL     1      -5.991  -0.648 -34.090  1.00  0.00     0.013 A 
HETATM   28  C   UNL     1      -4.427  -2.525 -33.718  1.00  0.00     0.030 A 
HETATM   29  C   UNL     1      -6.794  -1.582 -34.793  1.00  0.00     0.015 A 
HETATM   30  C   UNL     1      -6.430  -2.924 -34.960  1.00  0.00     0.001 A 
HETATM   31  C   UNL     1      -5.248  -3.399 -34.420  1.00  0.00     0.002 A 
ENDBRANCH   1  17
TORSDOF 7
ENDMDL
MODEL 2
REMARK VINA RESULT:      -8.6      0.351      3.457
REMARK  7 active torsions:
REMARK  status: ('A' for Active; 'I' for Inactive)
REMARK    1  A    between atoms: O_2  and  C_3 
REMARK    2  A    between atoms: C_3  and  C_4 
REMARK    3  A    between atoms: C_4  and  N_5 
REMARK    4  A    between atoms: C_4  and  C_21 
REMARK    5  A    between atoms: N_5  and  C_6 
REMARK    6  A    between atoms: C_21  and  C_22 
REMARK    7  A    between atoms: C_25  and  O_26 
ROOT
HETATM    1  N   UNL     1      -7.510   0.973 -34.139  1.00  0.00    -0.277 NA
HETATM    2  H   UNL     1      -7.363   1.941 -34.447  1.00  0.00     0.128 HD
ENDROOT
BRANCH   1   3
HETATM    3  C   UNL     1      -8.868   0.844 -33.539  1.00  0.00     0.164 C 
BRANCH   3   4
HETATM    4  C   UNL     1      -8.852   1.220 -32.043  1.00  0.00     0.276 C 
HETATM    5  O   UNL     1      -8.764   0.408 -31.134  1.00  0.00    -0.263 OA
BRANCH   4   6
HETATM    6  O   UNL     1      -8.936   2.576 -31.880  1.00  0.00    -0.325 OA
HETATM    7  C   UNL     1      -8.706   3.022 -30.541  1.00  0.00     0.213 C 
ENDBRANCH   4   6
ENDBRANCH   3   4
BRANCH   3   8
HETATM    8  C   UNL     1      -9.845   1.840 -34.194  1.00  0.00     0.068 C 
BRANCH   8   9
HETATM    9  C   UNL     1     -11.284   1.387 -34.281  1.00  0.00    -0.056 A 
HETATM   10  C   UNL     1     -11.733   0.266 -33.568  1.00  0.00     0.010 A 
HETATM   11  C   UNL     1     -13.079  -0.109 -33.609  1.00  0.00     0.037 A 
HETATM   12  C   UNL     1     -13.976   0.640 -34.363  1.00  0.00     0.065 A 
HETATM   13  C   UNL     1     -13.550   1.753 -35.074  1.00  0.00     0.037 A 
HETATM   14  C   UNL     1     -12.209   2.132 -35.027  1.00  0.00     0.010 A 
BRANCH  12  15
HETATM   15  O   UNL     1     -15.299   0.317 -34.426  1.00  0.00    -0.361 OA
HETATM   16  H   UNL     1     -15.592   0.026 -33.546  1.00  0.00     0.217 HD
ENDBRANCH  12  15
ENDBRANCH   8   9
ENDBRANCH   3   8
ENDBRANCH   1   3
BRANCH   1  17
HETATM   17  C   UNL     1      -6.337   0.453 -33.561  1.00  0.00     0.034 A 
HETATM   18  C   UNL     1      -6.004  -0.886 -33.934  1.00  0.00     0.013 A 
HETATM   19  C   UNL     1      -4.761  -1.424 -33.551  1.00  0.00     0.044 A 
HETATM   20  C   UNL     1      -6.862  -1.734 -34.672  1.00  0.00     0.015 A 
HETATM   21  C   UNL     1      -4.390  -2.734 -33.899  1.00  0.00     0.030 A 
HETATM   22  N   UNL     1      -3.908  -0.664 -32.855  1.00  0.00    -0.355 N 
HETATM   23  C   UNL     1      -5.259  -3.540 -34.629  1.00  0.00     0.002 A 
HETATM   24  C   UNL     1      -6.497  -3.041 -35.010  1.00  0.00     0.001 A 
HETATM   25  H   UNL     1      -3.013  -1.073 -32.600  1.00  0.00     0.166 HD
HETATM   26  C   UNL     1      -4.144   0.604 -32.490  1.00  0.00     0.044 A 
HETATM   27  C   UNL     1      -5.373   1.222 -32.830  1.00  0.00     0.013 A 
HETATM   28  C   UNL     1      -3.131   1.292 -31.792  1.00  0.00     0.030 A 
HETATM   29  C   UNL     1      -5.501   2.573 -32.418  1.00  0.00     0.015 A 
HETATM   30  C   UNL     1      -4.497   3.253 -31.717  1.00  0.00     0.001 A 
HETATM   31  C   UNL     1      -3.308   2.615 -31.407  1.00  0.00     0.002 A 
ENDBRANCH   1  17
TORSDOF 7
ENDMDL
MODEL 3
REMARK VINA RESULT:      -8.5      1.469      3.959
REMARK  7 active torsions:
REMARK  status: ('A' for Active; 'I' for Inactive)
REMARK    1  A    between atoms: O_2  and  C_3 
REMARK    2  A    between atoms: C_3  and  C_4 
REMARK    3  A    between atoms: C_4  and  N_5 
REMARK    4  A    between atoms: C_4  and  C_21 
REMARK    5  A    between atoms: N_5  and  C_6 
REMARK    6  A    between atoms: C_21  and  C_22 
REMARK    7  A    between atoms: C_25  and  O_26 
ROOT
HETATM    1  N   UNL     1      -7.494   2.467 -34.361  1.00  0.00    -0.277 NA
HETATM    2  H   UNL     1      -7.116   3.200 -34.973  1.00  0.00     0.128 HD
ENDROOT
BRANCH   1   3
HETATM    3  C   UNL     1      -8.759   2.946 -33.735  1.00  0.00     0.164 C 
BRANCH   3   4
HETATM    4  C   UNL     1      -8.691   4.457 -33.433  1.00  0.00     0.276 C 
HETATM    5  O   UNL     1      -8.384   5.307 -34.256  1.00  0.00    -0.263 OA
BRANCH   4   6
HETATM    6  O   UNL     1      -9.031   4.711 -32.133  1.00  0.00    -0.325 OA
HETATM    7  C   UNL     1      -8.944   3.575 -31.269  1.00  0.00     0.213 C 
ENDBRANCH   4   6
ENDBRANCH   3   4
BRANCH   3   8
HETATM    8  C   UNL     1      -9.940   2.785 -34.712  1.00  0.00     0.068 C 
BRANCH   8   9
HETATM    9  C   UNL     1     -10.997   1.785 -34.304  1.00  0.00    -0.056 A 
HETATM   10  C   UNL     1     -12.301   1.864 -34.813  1.00  0.00     0.010 A 
HETATM   11  C   UNL     1     -13.255   0.900 -34.474  1.00  0.00     0.037 A 
HETATM   12  C   UNL     1     -12.902  -0.144 -33.626  1.00  0.00     0.065 A 
HETATM   13  C   UNL     1     -11.615  -0.240 -33.114  1.00  0.00     0.037 A 
HETATM   14  C   UNL     1     -10.661   0.717 -33.459  1.00  0.00     0.010 A 
BRANCH  12  15
HETATM   15  O   UNL     1     -13.795  -1.112 -33.276  1.00  0.00    -0.361 OA
HETATM   16  H   UNL     1     -13.404  -1.660 -32.575  1.00  0.00     0.217 HD
ENDBRANCH  12  15
ENDBRANCH   8   9
ENDBRANCH   3   8
ENDBRANCH   1   3
BRANCH   1  17
HETATM   17  C   UNL     1      -6.457   1.825 -33.658  1.00  0.00     0.034 A 
HETATM   18  C   UNL     1      -6.318   0.424 -33.904  1.00  0.00     0.013 A 
HETATM   19  C   UNL     1      -5.203  -0.262 -33.388  1.00  0.00     0.044 A 
HETATM   20  C   UNL     1      -7.251  -0.342 -34.639  1.00  0.00     0.015 A 
HETATM   21  C   UNL     1      -5.023  -1.639 -33.608  1.00  0.00     0.030 A 
HETATM   22  N   UNL     1      -4.286   0.415 -32.688  1.00  0.00    -0.355 N 
HETATM   23  C   UNL     1      -5.961  -2.361 -34.340  1.00  0.00     0.002 A 
HETATM   24  C   UNL     1      -7.077  -1.714 -34.850  1.00  0.00     0.001 A 
HETATM   25  H   UNL     1      -3.486  -0.103 -32.336  1.00  0.00     0.166 HD
HETATM   26  C   UNL     1      -4.341   1.731 -32.437  1.00  0.00     0.044 A 
HETATM   27  C   UNL     1      -5.432   2.498 -32.915  1.00  0.00     0.013 A 
HETATM   28  C   UNL     1      -3.278   2.313 -31.718  1.00  0.00     0.030 A 
HETATM   29  C   UNL     1      -5.370   3.883 -32.616  1.00  0.00     0.015 A 
HETATM   30  C   UNL     1      -4.317   4.458 -31.894  1.00  0.00     0.001 A 
HETATM   31  C   UNL     1      -3.267   3.675 -31.447  1.00  0.00     0.002 A 
ENDBRANCH   1  17
TORSDOF 7
ENDMDL
MODEL 4
REMARK VINA RESULT:      -8.3      2.238      6.093
REMARK  7 active torsions:
REMARK  status: ('A' for Active; 'I' for Inactive)
REMARK    1  A    between atoms: O_2  and  C_3 
REMARK    2  A    between atoms: C_3  and  C_4 
REMARK    3  A    between atoms: C_4  and  N_5 
REMARK    4  A    between atoms: C_4  and  C_21 
REMARK    5  A    between atoms: N_5  and  C_6 
REMARK    6  A    between atoms: C_21  and  C_22 
REMARK    7  A    between atoms: C_25  and  O_26 
ROOT
HETATM    1  N   UNL     1      -7.474   0.568 -31.635  1.00  0.00    -0.277 NA
HETATM    2  H   UNL     1      -6.872  -0.017 -31.044  1.00  0.00     0.128 HD
ENDROOT
BRANCH   1   3
HETATM    3  C   UNL     1      -7.849  -0.188 -32.864  1.00  0.00     0.164 C 
BRANCH   3   4
HETATM    4  C   UNL     1      -8.946   0.551 -33.657  1.00  0.00     0.276 C 
HETATM    5  O   UNL     1      -8.721   1.332 -34.570  1.00  0.00    -0.263 OA
BRANCH   4   6
HETATM    6  O   UNL     1     -10.190   0.203 -33.210  1.00  0.00    -0.325 OA
HETATM    7  C   UNL     1     -11.243   1.045 -33.686  1.00  0.00     0.213 C 
ENDBRANCH   4   6
ENDBRANCH   3   4
BRANCH   3   8
HETATM    8  C   UNL     1      -6.649  -0.282 -33.827  1.00  0.00     0.068 C 
BRANCH   8   9
HETATM    9  C   UNL     1      -6.151  -1.678 -34.120  1.00  0.00    -0.056 A 
HETATM   10  C   UNL     1      -4.811  -2.028 -33.901  1.00  0.00     0.010 A 
HETATM   11  C   UNL     1      -4.375  -3.338 -34.121  1.00  0.00     0.037 A 
HETATM   12  C   UNL     1      -5.281  -4.297 -34.558  1.00  0.00     0.065 A 
HETATM   13  C   UNL     1      -6.612  -3.970 -34.779  1.00  0.00     0.037 A 
HETATM   14  C   UNL     1      -7.049  -2.665 -34.552  1.00  0.00     0.010 A 
BRANCH  12  15
HETATM   15  O   UNL     1      -4.903  -5.589 -34.776  1.00  0.00    -0.361 OA
HETATM   16  H   UNL     1      -4.671  -5.693 -35.714  1.00  0.00     0.217 HD
ENDBRANCH  12  15
ENDBRANCH   8   9
ENDBRANCH   3   8
ENDBRANCH   1   3
BRANCH   1  17
HETATM   17  C   UNL     1      -7.025   1.902 -31.632  1.00  0.00     0.034 A 
HETATM   18  C   UNL     1      -7.975   2.874 -31.190  1.00  0.00     0.013 A 
HETATM   19  C   UNL     1      -7.561   4.203 -30.983  1.00  0.00     0.044 A 
HETATM   20  C   UNL     1      -9.338   2.589 -30.949  1.00  0.00     0.015 A 
HETATM   21  C   UNL     1      -8.460   5.191 -30.544  1.00  0.00     0.030 A 
HETATM   22  N   UNL     1      -6.280   4.528 -31.192  1.00  0.00    -0.355 N 
HETATM   23  C   UNL     1      -9.795   4.873 -30.314  1.00  0.00     0.002 A 
HETATM   24  C   UNL     1     -10.235   3.574 -30.522  1.00  0.00     0.001 A 
HETATM   25  H   UNL     1      -6.006   5.493 -31.025  1.00  0.00     0.166 HD
HETATM   26  C   UNL     1      -5.333   3.666 -31.586  1.00  0.00     0.044 A 
HETATM   27  C   UNL     1      -5.663   2.309 -31.822  1.00  0.00     0.013 A 
HETATM   28  C   UNL     1      -4.015   4.148 -31.725  1.00  0.00     0.030 A 
HETATM   29  C   UNL     1      -4.576   1.482 -32.206  1.00  0.00     0.015 A 
HETATM   30  C   UNL     1      -3.270   1.965 -32.352  1.00  0.00     0.001 A 
HETATM   31  C   UNL     1      -2.986   3.297 -32.109  1.00  0.00     0.002 A 
ENDBRANCH   1  17
TORSDOF 7
ENDMDL
MODEL 5
REMARK VINA RESULT:      -8.3      2.627      6.296
REMARK  7 active torsions:
REMARK  status: ('A' for Active; 'I' for Inactive)
REMARK    1  A    between atoms: O_2  and  C_3 
REMARK    2  A    between atoms: C_3  and  C_4 
REMARK    3  A    between atoms: C_4  and  N_5 
REMARK    4  A    between atoms: C_4  and  C_21 
REMARK    5  A    between atoms: N_5  and  C_6 
REMARK    6  A    between atoms: C_21  and  C_22 
REMARK    7  A    between atoms: C_25  and  O_26 
ROOT
HETATM    1  N   UNL     1      -7.182   1.179 -31.548  1.00  0.00    -0.277 NA
HETATM    2  H   UNL     1      -6.543   1.321 -30.758  1.00  0.00     0.128 HD
ENDROOT
BRANCH   1   3
HETATM    3  C   UNL     1      -6.392   0.993 -32.799  1.00  0.00     0.164 C 
BRANCH   3   4
HETATM    4  C   UNL     1      -5.618   2.276 -33.162  1.00  0.00     0.276 C 
HETATM    5  O   UNL     1      -4.589   2.635 -32.608  1.00  0.00    -0.263 OA
BRANCH   4   6
HETATM    6  O   UNL     1      -6.230   2.942 -34.189  1.00  0.00    -0.325 OA
HETATM    7  C   UNL     1      -6.682   4.255 -33.851  1.00  0.00     0.213 C 
ENDBRANCH   4   6
ENDBRANCH   3   4
BRANCH   3   8
HETATM    8  C   UNL     1      -5.310  -0.087 -32.599  1.00  0.00     0.068 C 
BRANCH   8   9
HETATM    9  C   UNL     1      -5.487  -1.350 -33.408  1.00  0.00    -0.056 A 
HETATM   10  C   UNL     1      -4.416  -2.231 -33.617  1.00  0.00     0.010 A 
HETATM   11  C   UNL     1      -4.605  -3.425 -34.317  1.00  0.00     0.037 A 
HETATM   12  C   UNL     1      -5.868  -3.739 -34.808  1.00  0.00     0.065 A 
HETATM   13  C   UNL     1      -6.941  -2.880 -34.611  1.00  0.00     0.037 A 
HETATM   14  C   UNL     1      -6.754  -1.692 -33.905  1.00  0.00     0.010 A 
BRANCH  12  15
HETATM   15  O   UNL     1      -6.101  -4.896 -35.489  1.00  0.00    -0.361 OA
HETATM   16  H   UNL     1      -5.251  -5.332 -35.668  1.00  0.00     0.217 HD
ENDBRANCH  12  15
ENDBRANCH   8   9
ENDBRANCH   3   8
ENDBRANCH   1   3
BRANCH   1  17
HETATM   17  C   UNL     1      -8.301   2.024 -31.437  1.00  0.00     0.034 A 
HETATM   18  C   UNL     1      -8.112   3.202 -30.650  1.00  0.00     0.013 A 
HETATM   19  C   UNL     1      -9.113   4.192 -30.631  1.00  0.00     0.044 A 
HETATM   20  C   UNL     1      -6.964   3.446 -29.862  1.00  0.00     0.015 A 
HETATM   21  C   UNL     1      -8.967   5.367 -29.875  1.00  0.00     0.030 A 
HETATM   22  N   UNL     1     -10.219   4.015 -31.362  1.00  0.00    -0.355 N 
HETATM   23  C   UNL     1      -7.821   5.575 -29.112  1.00  0.00     0.002 A 
HETATM   24  C   UNL     1      -6.823   4.611 -29.102  1.00  0.00     0.001 A 
HETATM   25  H   UNL     1     -10.921   4.749 -31.338  1.00  0.00     0.166 HD
HETATM   26  C   UNL     1     -10.454   2.947 -32.138  1.00  0.00     0.044 A 
HETATM   27  C   UNL     1      -9.501   1.902 -32.213  1.00  0.00     0.013 A 
HETATM   28  C   UNL     1     -11.651   2.921 -32.883  1.00  0.00     0.030 A 
HETATM   29  C   UNL     1      -9.842   0.838 -33.087  1.00  0.00     0.015 A 
HETATM   30  C   UNL     1     -11.035   0.810 -33.820  1.00  0.00     0.001 A 
HETATM   31  C   UNL     1     -11.940   1.852 -33.723  1.00  0.00     0.002 A 
ENDBRANCH   1  17
TORSDOF 7
ENDMDL
MODEL 6
REMARK VINA RESULT:      -8.3      2.936      7.133
REMARK  7 active torsions:
REMARK  status: ('A' for Active; 'I' for Inactive)
REMARK    1  A    between atoms: O_2  and  C_3 
REMARK    2  A    between atoms: C_3  and  C_4 
REMARK    3  A    between atoms: C_4  and  N_5 
REMARK    4  A    between atoms: C_4  and  C_21 
REMARK    5  A    between atoms: N_5  and  C_6 
REMARK    6  A    between atoms: C_21  and  C_22 
REMARK    7  A    between atoms: C_25  and  O_26 
ROOT
HETATM    1  N   UNL     1      -5.677   1.573 -31.306  1.00  0.00    -0.277 NA
HETATM    2  H   UNL     1      -6.179   1.789 -30.437  1.00  0.00     0.128 HD
ENDROOT
BRANCH   1   3
HETATM    3  C   UNL     1      -5.038   2.814 -31.831  1.00  0.00     0.164 C 
BRANCH   3   4
HETATM    4  C   UNL     1      -5.480   4.050 -31.022  1.00  0.00     0.276 C 
HETATM    5  O   UNL     1      -5.357   4.155 -29.810  1.00  0.00    -0.263 OA
BRANCH   4   6
HETATM    6  O   UNL     1      -6.010   5.008 -31.843  1.00  0.00    -0.325 OA
HETATM    7  C   UNL     1      -5.384   6.289 -31.733  1.00  0.00     0.213 C 
ENDBRANCH   4   6
ENDBRANCH   3   4
BRANCH   3   8
HETATM    8  C   UNL     1      -3.508   2.747 -31.660  1.00  0.00     0.068 C 
BRANCH   8   9
HETATM    9  C   UNL     1      -2.725   3.854 -32.326  1.00  0.00    -0.056 A 
HETATM   10  C   UNL     1      -2.889   4.136 -33.690  1.00  0.00     0.010 A 
HETATM   11  C   UNL     1      -2.202   5.200 -34.283  1.00  0.00     0.037 A 
HETATM   12  C   UNL     1      -1.353   5.983 -33.509  1.00  0.00     0.065 A 
HETATM   13  C   UNL     1      -1.179   5.721 -32.157  1.00  0.00     0.037 A 
HETATM   14  C   UNL     1      -1.870   4.664 -31.564  1.00  0.00     0.010 A 
BRANCH  12  15
HETATM   15  O   UNL     1      -0.671   7.036 -34.041  1.00  0.00    -0.361 OA
HETATM   16  H   UNL     1       0.143   6.705 -34.456  1.00  0.00     0.217 HD
ENDBRANCH  12  15
ENDBRANCH   8   9
ENDBRANCH   3   8
ENDBRANCH   1   3
BRANCH   1  17
HETATM   17  C   UNL     1      -6.414   0.669 -32.092  1.00  0.00     0.034 A 
HETATM   18  C   UNL     1      -7.768   1.040 -32.357  1.00  0.00     0.013 A 
HETATM   19  C   UNL     1      -8.524   0.292 -33.279  1.00  0.00     0.044 A 
HETATM   20  C   UNL     1      -8.422   2.129 -31.737  1.00  0.00     0.015 A 
HETATM   21  C   UNL     1      -9.858   0.623 -33.574  1.00  0.00     0.030 A 
HETATM   22  N   UNL     1      -7.954  -0.748 -33.900  1.00  0.00    -0.355 N 
HETATM   23  C   UNL     1     -10.469   1.704 -32.945  1.00  0.00     0.002 A 
HETATM   24  C   UNL     1      -9.752   2.453 -32.023  1.00  0.00     0.001 A 
HETATM   25  H   UNL     1      -8.520  -1.264 -34.568  1.00  0.00     0.166 HD
HETATM   26  C   UNL     1      -6.685  -1.139 -33.716  1.00  0.00     0.044 A 
HETATM   27  C   UNL     1      -5.855  -0.444 -32.802  1.00  0.00     0.013 A 
HETATM   28  C   UNL     1      -6.213  -2.230 -34.473  1.00  0.00     0.030 A 
HETATM   29  C   UNL     1      -4.525  -0.928 -32.711  1.00  0.00     0.015 A 
HETATM   30  C   UNL     1      -4.059  -2.017 -33.458  1.00  0.00     0.001 A 
HETATM   31  C   UNL     1      -4.901  -2.668 -34.343  1.00  0.00     0.002 A 
ENDBRANCH   1  17
TORSDOF 7
ENDMDL
MODEL 7
REMARK VINA RESULT:      -8.2      2.727      7.140
REMARK  7 active torsions:
REMARK  status: ('A' for Active; 'I' for Inactive)
REMARK    1  A    between atoms: O_2  and  C_3 
REMARK    2  A    between atoms: C_3  and  C_4 
REMARK    3  A    between atoms: C_4  and  N_5 
REMARK    4  A    between atoms: C_4  and  C_21 
REMARK    5  A    between atoms: N_5  and  C_6 
REMARK    6  A    between atoms: C_21  and  C_22 
REMARK    7  A    between atoms: C_25  and  O_26 
ROOT
HETATM    1  N   UNL     1      -4.797   1.455 -33.170  1.00  0.00    -0.277 NA
HETATM    2  H   UNL     1      -3.946   0.895 -33.298  1.00  0.00     0.128 HD
ENDROOT
BRANCH   1   3
HETATM    3  C   UNL     1      -4.790   2.062 -31.809  1.00  0.00     0.164 C 
BRANCH   3   4
HETATM    4  C   UNL     1      -4.949   0.983 -30.719  1.00  0.00     0.276 C 
HETATM    5  O   UNL     1      -4.076   0.182 -30.415  1.00  0.00    -0.263 OA
BRANCH   4   6
HETATM    6  O   UNL     1      -6.184   1.055 -30.136  1.00  0.00    -0.325 OA
HETATM    7  C   UNL     1      -6.714   2.379 -30.042  1.00  0.00     0.213 C 
ENDBRANCH   4   6
ENDBRANCH   3   4
BRANCH   3   8
HETATM    8  C   UNL     1      -3.430   2.728 -31.520  1.00  0.00     0.068 C 
BRANCH   8   9
HETATM    9  C   UNL     1      -3.099   3.935 -32.365  1.00  0.00    -0.056 A 
HETATM   10  C   UNL     1      -4.093   4.601 -33.097  1.00  0.00     0.010 A 
HETATM   11  C   UNL     1      -3.786   5.751 -33.829  1.00  0.00     0.037 A 
HETATM   12  C   UNL     1      -2.483   6.237 -33.827  1.00  0.00     0.065 A 
HETATM   13  C   UNL     1      -1.485   5.593 -33.107  1.00  0.00     0.037 A 
HETATM   14  C   UNL     1      -1.793   4.450 -32.370  1.00  0.00     0.010 A 
BRANCH  12  15
HETATM   15  O   UNL     1      -2.139   7.361 -34.518  1.00  0.00    -0.361 OA
HETATM   16  H   UNL     1      -2.080   7.141 -35.463  1.00  0.00     0.217 HD
ENDBRANCH  12  15
ENDBRANCH   8   9
ENDBRANCH   3   8
ENDBRANCH   1   3
BRANCH   1  17
HETATM   17  C   UNL     1      -5.907   0.808 -33.743  1.00  0.00     0.034 A 
HETATM   18  C   UNL     1      -5.754  -0.594 -33.976  1.00  0.00     0.013 A 
HETATM   19  C   UNL     1      -6.868  -1.356 -34.376  1.00  0.00     0.044 A 
HETATM   20  C   UNL     1      -4.529  -1.285 -33.839  1.00  0.00     0.015 A 
HETATM   21  C   UNL     1      -6.765  -2.737 -34.613  1.00  0.00     0.030 A 
HETATM   22  N   UNL     1      -8.054  -0.753 -34.518  1.00  0.00    -0.355 N 
HETATM   23  C   UNL     1      -5.542  -3.386 -34.465  1.00  0.00     0.002 A 
HETATM   24  C   UNL     1      -4.423  -2.658 -34.084  1.00  0.00     0.001 A 
HETATM   25  H   UNL     1      -8.843  -1.328 -34.798  1.00  0.00     0.166 HD
HETATM   26  C   UNL     1      -8.274   0.551 -34.296  1.00  0.00     0.044 A 
HETATM   27  C   UNL     1      -7.207   1.392 -33.895  1.00  0.00     0.013 A 
HETATM   28  C   UNL     1      -9.590   1.035 -34.448  1.00  0.00     0.030 A 
HETATM   29  C   UNL     1      -7.563   2.745 -33.660  1.00  0.00     0.015 A 
HETATM   30  C   UNL     1      -8.869   3.225 -33.820  1.00  0.00     0.001 A 
HETATM   31  C   UNL     1      -9.885   2.371 -34.210  1.00  0.00     0.002 A 
ENDBRANCH   1  17
TORSDOF 7
ENDMDL
MODEL 8
REMARK VINA RESULT:      -8.1      2.938      7.446
REMARK  7 active torsions:
REMARK  status: ('A' for Active; 'I' for Inactive)
REMARK    1  A    between atoms: O_2  and  C_3 
REMARK    2  A    between atoms: C_3  and  C_4 
REMARK    3  A    between atoms: C_4  and  N_5 
REMARK    4  A    between atoms: C_4  and  C_21 
REMARK    5  A    between atoms: N_5  and  C_6 
REMARK    6  A    between atoms: C_21  and  C_22 
REMARK    7  A    between atoms: C_25  and  O_26 
ROOT
HETATM    1  N   UNL     1      -5.874   1.812 -31.448  1.00  0.00    -0.277 NA
HETATM    2  H   UNL     1      -6.320   1.822 -30.524  1.00  0.00     0.128 HD
ENDROOT
BRANCH   1   3
HETATM    3  C   UNL     1      -5.202   3.120 -31.689  1.00  0.00     0.164 C 
BRANCH   3   4
HETATM    4  C   UNL     1      -5.543   4.132 -30.577  1.00  0.00     0.276 C 
HETATM    5  O   UNL     1      -5.576   3.856 -29.387  1.00  0.00    -0.263 OA
BRANCH   4   6
HETATM    6  O   UNL     1      -5.786   5.372 -31.102  1.00  0.00    -0.325 OA
HETATM    7  C   UNL     1      -6.517   5.357 -32.331  1.00  0.00     0.213 C 
ENDBRANCH   4   6
ENDBRANCH   3   4
BRANCH   3   8
HETATM    8  C   UNL     1      -3.670   2.959 -31.631  1.00  0.00     0.068 C 
BRANCH   8   9
HETATM    9  C   UNL     1      -2.870   4.045 -32.312  1.00  0.00    -0.056 A 
HETATM   10  C   UNL     1      -1.790   4.661 -31.665  1.00  0.00     0.010 A 
HETATM   11  C   UNL     1      -1.021   5.623 -32.327  1.00  0.00     0.037 A 
HETATM   12  C   UNL     1      -1.333   5.966 -33.638  1.00  0.00     0.065 A 
HETATM   13  C   UNL     1      -2.398   5.366 -34.296  1.00  0.00     0.037 A 
HETATM   14  C   UNL     1      -3.160   4.400 -33.638  1.00  0.00     0.010 A 
BRANCH  12  15
HETATM   15  O   UNL     1      -0.606   6.892 -34.325  1.00  0.00    -0.361 OA
HETATM   16  H   UNL     1       0.331   6.635 -34.299  1.00  0.00     0.217 HD
ENDBRANCH  12  15
ENDBRANCH   8   9
ENDBRANCH   3   8
ENDBRANCH   1   3
BRANCH   1  17
HETATM   17  C   UNL     1      -6.694   1.158 -32.386  1.00  0.00     0.034 A 
HETATM   18  C   UNL     1      -6.140  -0.019 -32.979  1.00  0.00     0.013 A 
HETATM   19  C   UNL     1      -6.952  -0.835 -33.788  1.00  0.00     0.044 A 
HETATM   20  C   UNL     1      -4.797  -0.426 -32.812  1.00  0.00     0.015 A 
HETATM   21  C   UNL     1      -6.451  -2.004 -34.387  1.00  0.00     0.030 A 
HETATM   22  N   UNL     1      -8.233  -0.499 -33.977  1.00  0.00    -0.355 N 
HETATM   23  C   UNL     1      -5.123  -2.376 -34.199  1.00  0.00     0.002 A 
HETATM   24  C   UNL     1      -4.295  -1.584 -33.416  1.00  0.00     0.001 A 
HETATM   25  H   UNL     1      -8.800  -1.112 -34.557  1.00  0.00     0.166 HD
HETATM   26  C   UNL     1      -8.824   0.576 -33.437  1.00  0.00     0.044 A 
HETATM   27  C   UNL     1      -8.079   1.455 -32.612  1.00  0.00     0.013 A 
HETATM   28  C   UNL     1     -10.195   0.778 -33.694  1.00  0.00     0.030 A 
HETATM   29  C   UNL     1      -8.813   2.542 -32.072  1.00  0.00     0.015 A 
HETATM   30  C   UNL     1     -10.173   2.745 -32.336  1.00  0.00     0.001 A 
HETATM   31  C   UNL     1     -10.868   1.862 -33.144  1.00  0.00     0.002 A 
ENDBRANCH   1  17
TORSDOF 7
ENDMDL
MODEL 9
REMARK VINA RESULT:      -8.0      2.542      6.313
REMARK  7 active torsions:
REMARK  status: ('A' for Active; 'I' for Inactive)
REMARK    1  A    between atoms: O_2  and  C_3 
REMARK    2  A    between atoms: C_3  and  C_4 
REMARK    3  A    between atoms: C_4  and  N_5 
REMARK    4  A    between atoms: C_4  and  C_21 
REMARK    5  A    between atoms: N_5  and  C_6 
REMARK    6  A    between atoms: C_21  and  C_22 
REMARK    7  A    between atoms: C_25  and  O_26 
ROOT
HETATM    1  N   UNL     1      -7.097   1.527 -34.280  1.00  0.00    -0.277 NA
HETATM    2  H   UNL     1      -7.917   1.617 -34.891  1.00  0.00     0.128 HD
ENDROOT
BRANCH   1   3
HETATM    3  C   UNL     1      -7.152   0.221 -33.564  1.00  0.00     0.164 C 
BRANCH   3   4
HETATM    4  C   UNL     1      -8.372   0.155 -32.622  1.00  0.00     0.276 C 
HETATM    5  O   UNL     1      -9.506  -0.118 -32.988  1.00  0.00    -0.263 OA
BRANCH   4   6
HETATM    6  O   UNL     1      -8.008   0.429 -31.332  1.00  0.00    -0.325 OA
HETATM    7  C   UNL     1      -6.691  -0.009 -30.987  1.00  0.00     0.213 C 
ENDBRANCH   4   6
ENDBRANCH   3   4
BRANCH   3   8
HETATM    8  C   UNL     1      -7.354  -0.935 -34.564  1.00  0.00     0.068 C 
BRANCH   8   9
HETATM    9  C   UNL     1      -6.398  -2.096 -34.426  1.00  0.00    -0.056 A 
HETATM   10  C   UNL     1      -6.755  -3.383 -34.854  1.00  0.00     0.010 A 
HETATM   11  C   UNL     1      -5.842  -4.437 -34.775  1.00  0.00     0.037 A 
HETATM   12  C   UNL     1      -4.568  -4.203 -34.268  1.00  0.00     0.065 A 
HETATM   13  C   UNL     1      -4.194  -2.936 -33.841  1.00  0.00     0.037 A 
HETATM   14  C   UNL     1      -5.104  -1.882 -33.928  1.00  0.00     0.010 A 
BRANCH  12  15
HETATM   15  O   UNL     1      -3.641  -5.198 -34.181  1.00  0.00    -0.361 OA
HETATM   16  H   UNL     1      -3.466  -5.542 -35.073  1.00  0.00     0.217 HD
ENDBRANCH  12  15
ENDBRANCH   8   9
ENDBRANCH   3   8
ENDBRANCH   1   3
BRANCH   1  17
HETATM   17  C   UNL     1      -6.804   2.757 -33.662  1.00  0.00     0.034 A 
HETATM   18  C   UNL     1      -7.890   3.682 -33.578  1.00  0.00     0.013 A 
HETATM   19  C   UNL     1      -7.740   4.859 -32.821  1.00  0.00     0.044 A 
HETATM   20  C   UNL     1      -9.132   3.499 -34.227  1.00  0.00     0.015 A 
HETATM   21  C   UNL     1      -8.782   5.795 -32.707  1.00  0.00     0.030 A 
HETATM   22  N   UNL     1      -6.586   5.082 -32.182  1.00  0.00    -0.355 N 
HETATM   23  C   UNL     1      -9.994   5.580 -33.357  1.00  0.00     0.002 A 
HETATM   24  C   UNL     1     -10.166   4.434 -34.122  1.00  0.00     0.001 A 
HETATM   25  H   UNL     1      -6.509   5.935 -31.634  1.00  0.00     0.166 HD
HETATM   26  C   UNL     1      -5.536   4.250 -32.199  1.00  0.00     0.044 A 
HETATM   27  C   UNL     1      -5.598   3.044 -32.940  1.00  0.00     0.013 A 
HETATM   28  C   UNL     1      -4.399   4.602 -31.442  1.00  0.00     0.030 A 
HETATM   29  C   UNL     1      -4.441   2.228 -32.862  1.00  0.00     0.015 A 
HETATM   30  C   UNL     1      -3.310   2.584 -32.117  1.00  0.00     0.001 A 
HETATM   31  C   UNL     1      -3.288   3.769 -31.402  1.00  0.00     0.002 A 
ENDBRANCH   1  17
TORSDOF 7
ENDMDL
MODEL 10
REMARK VINA RESULT:      -8.0      2.497      7.167
REMARK  7 active torsions:
REMARK  status: ('A' for Active; 'I' for Inactive)
REMARK    1  A    between atoms: O_2  and  C_3 
REMARK    2  A    between atoms: C_3  and  C_4 
REMARK    3  A    between atoms: C_4  and  N_5 
REMARK    4  A    between atoms: C_4  and  C_21 
REMARK    5  A    between atoms: N_5  and  C_6 
REMARK    6  A    between atoms: C_21  and  C_22 
REMARK    7  A    between atoms: C_25  and  O_26 
ROOT
HETATM    1  N   UNL     1      -9.503   2.155 -34.678  1.00  0.00    -0.277 NA
HETATM    2  H   UNL     1      -9.484   1.397 -35.369  1.00  0.00     0.128 HD
ENDROOT
BRANCH   1   3
HETATM    3  C   UNL     1      -8.539   1.852 -33.582  1.00  0.00     0.164 C 
BRANCH   3   4
HETATM    4  C   UNL     1      -8.904   2.619 -32.294  1.00  0.00     0.276 C 
HETATM    5  O   UNL     1      -9.536   2.136 -31.366  1.00  0.00    -0.263 OA
BRANCH   4   6
HETATM    6  O   UNL     1      -8.416   3.896 -32.331  1.00  0.00    -0.325 OA
HETATM    7  C   UNL     1      -7.600   4.246 -31.209  1.00  0.00     0.213 C 
ENDBRANCH   4   6
ENDBRANCH   3   4
BRANCH   3   8
HETATM    8  C   UNL     1      -8.610   0.362 -33.196  1.00  0.00     0.068 C 
BRANCH   8   9
HETATM    9  C   UNL     1      -7.359  -0.443 -33.456  1.00  0.00    -0.056 A 
HETATM   10  C   UNL     1      -6.220  -0.289 -32.653  1.00  0.00     0.010 A 
HETATM   11  C   UNL     1      -5.088  -1.080 -32.866  1.00  0.00     0.037 A 
HETATM   12  C   UNL     1      -5.097  -2.028 -33.883  1.00  0.00     0.065 A 
HETATM   13  C   UNL     1      -6.215  -2.198 -34.687  1.00  0.00     0.037 A 
HETATM   14  C   UNL     1      -7.347  -1.413 -34.469  1.00  0.00     0.010 A 
BRANCH  12  15
HETATM   15  O   UNL     1      -4.019  -2.829 -34.121  1.00  0.00    -0.361 OA
HETATM   16  H   UNL     1      -3.470  -2.418 -34.809  1.00  0.00     0.217 HD
ENDBRANCH  12  15
ENDBRANCH   8   9
ENDBRANCH   3   8
ENDBRANCH   1   3
BRANCH   1  17
HETATM   17  C   UNL     1     -10.820   2.605 -34.472  1.00  0.00     0.034 A 
HETATM   18  C   UNL     1     -11.071   3.967 -34.825  1.00  0.00     0.013 A 
HETATM   19  C   UNL     1     -12.394   4.450 -34.824  1.00  0.00     0.044 A 
HETATM   20  C   UNL     1     -10.059   4.889 -35.175  1.00  0.00     0.015 A 
HETATM   21  C   UNL     1     -12.688   5.781 -35.168  1.00  0.00     0.030 A 
HETATM   22  N   UNL     1     -13.392   3.619 -34.504  1.00  0.00    -0.355 N 
HETATM   23  C   UNL     1     -11.665   6.661 -35.510  1.00  0.00     0.002 A 
HETATM   24  C   UNL     1     -10.350   6.215 -35.508  1.00  0.00     0.001 A 
HETATM   25  H   UNL     1     -14.338   3.992 -34.522  1.00  0.00     0.166 HD
HETATM   26  C   UNL     1     -13.232   2.327 -34.185  1.00  0.00     0.044 A 
HETATM   27  C   UNL     1     -11.935   1.760 -34.156  1.00  0.00     0.013 A 
HETATM   28  C   UNL     1     -14.386   1.566 -33.910  1.00  0.00     0.030 A 
HETATM   29  C   UNL     1     -11.889   0.379 -33.834  1.00  0.00     0.015 A 
HETATM   30  C   UNL     1     -13.035  -0.374 -33.553  1.00  0.00     0.001 A 
HETATM   31  C   UNL     1     -14.286   0.216 -33.594  1.00  0.00     0.002 A 
ENDBRANCH   1  17
TORSDOF 7
ENDMDL
