MODEL 1
REMARK VINA RESULT:      -8.3      0.000      0.000
REMARK  5 active torsions:
REMARK  status: ('A' for Active; 'I' for Inactive)
REMARK    1  A    between atoms: C_2  and  O_3 
REMARK    2  A    between atoms: O_3  and  C_4 
REMARK    3  A    between atoms: C_7  and  C_8 
REMARK       I    between atoms: C_8  and  N_9 
REMARK    4  A    between atoms: N_9  and  N_10 
REMARK    5  A    between atoms: C_11  and  C_12 
ROOT
HETATM    1  C   UNL     1     -11.594   1.732 -33.845  1.00  0.00     0.271 C 
HETATM    2  N   UNL     1     -10.909   0.639 -33.333  1.00  0.00    -0.243 N 
HETATM    3  O   UNL     1     -11.094   2.618 -34.532  1.00  0.00    -0.266 OA
HETATM    4  H   UNL     1     -11.351   0.001 -32.684  1.00  0.00     0.192 HD
ENDROOT
BRANCH   2   5
HETATM    5  N   UNL     1      -9.561   0.544 -33.537  1.00  0.00    -0.183 NA
HETATM    6  C   UNL     1      -8.846   0.233 -32.506  1.00  0.00     0.152 C 
BRANCH   6   7
HETATM    7  C   UNL     1      -7.406   0.155 -32.640  1.00  0.00     0.011 A 
HETATM    8  C   UNL     1      -6.638  -0.872 -33.280  1.00  0.00     0.005 A 
HETATM    9  C   UNL     1      -5.290  -0.528 -33.146  1.00  0.00     0.043 A 
HETATM   10  C   UNL     1      -6.961  -2.062 -33.967  1.00  0.00     0.033 A 
HETATM   11  C   UNL     1      -4.249  -1.313 -33.656  1.00  0.00     0.031 A 
HETATM   12  N   UNL     1      -5.240   0.661 -32.455  1.00  0.00    -0.364 N 
HETATM   13  C   UNL     1      -4.593  -2.486 -34.333  1.00  0.00     0.021 A 
HETATM   14  C   UNL     1      -5.928  -2.850 -34.485  1.00  0.00     0.012 A 
HETATM   15 BR   UNL     1      -6.358  -4.442 -35.415  1.00  0.00    -0.051 Br
HETATM   16  H   UNL     1      -4.391   1.152 -32.212  1.00  0.00     0.165 HD
HETATM   17  C   UNL     1      -6.504   1.081 -32.151  1.00  0.00     0.102 A 
ENDBRANCH   6   7
ENDBRANCH   2   5
BRANCH   1  18
HETATM   18  C   UNL     1     -13.038   1.830 -33.481  1.00  0.00     0.033 A 
HETATM   19  C   UNL     1     -13.521   2.721 -32.518  1.00  0.00     0.020 A 
HETATM   20  C   UNL     1     -14.893   2.774 -32.244  1.00  0.00     0.038 A 
HETATM   21  C   UNL     1     -15.792   1.938 -32.914  1.00  0.00     0.068 A 
HETATM   22  C   UNL     1     -15.307   1.029 -33.851  1.00  0.00     0.038 A 
HETATM   23  C   UNL     1     -13.937   0.974 -34.131  1.00  0.00     0.020 A 
BRANCH  21  24
HETATM   24  O   UNL     1     -17.101   2.105 -32.557  1.00  0.00    -0.352 OA
BRANCH  24  25
HETATM   25  C   UNL     1     -17.463   3.366 -31.994  1.00  0.00     0.171 C 
HETATM   26  C   UNL     1     -18.773   3.804 -32.623  1.00  0.00     0.034 C 
ENDBRANCH  24  25
ENDBRANCH  21  24
ENDBRANCH   1  18
TORSDOF 5
ENDMDL
MODEL 2
REMARK VINA RESULT:      -7.9      6.874     11.264
REMARK  5 active torsions:
REMARK  status: ('A' for Active; 'I' for Inactive)
REMARK    1  A    between atoms: C_2  and  O_3 
REMARK    2  A    between atoms: O_3  and  C_4 
REMARK    3  A    between atoms: C_7  and  C_8 
REMARK       I    between atoms: C_8  and  N_9 
REMARK    4  A    between atoms: N_9  and  N_10 
REMARK    5  A    between atoms: C_11  and  C_12 
ROOT
HETATM    1  C   UNL     1      -1.928   4.622 -31.756  1.00  0.00     0.271 C 
HETATM    2  N   UNL     1      -2.691   3.612 -31.188  1.00  0.00    -0.243 N 
HETATM    3  O   UNL     1      -1.633   4.699 -32.945  1.00  0.00    -0.266 OA
HETATM    4  H   UNL     1      -2.808   3.544 -30.185  1.00  0.00     0.192 HD
ENDROOT
BRANCH   2   5
HETATM    5  N   UNL     1      -3.111   2.574 -31.972  1.00  0.00    -0.183 NA
HETATM    6  C   UNL     1      -3.418   1.479 -31.358  1.00  0.00     0.152 C 
BRANCH   6   7
HETATM    7  C   UNL     1      -3.831   0.325 -32.130  1.00  0.00     0.011 A 
HETATM    8  C   UNL     1      -5.048   0.150 -32.865  1.00  0.00     0.005 A 
HETATM    9  C   UNL     1      -5.011  -1.125 -33.434  1.00  0.00     0.043 A 
HETATM   10  C   UNL     1      -6.181   0.959 -33.104  1.00  0.00     0.033 A 
HETATM   11  C   UNL     1      -6.047  -1.637 -34.226  1.00  0.00     0.031 A 
HETATM   12  N   UNL     1      -3.817  -1.702 -33.065  1.00  0.00    -0.364 N 
HETATM   13  C   UNL     1      -7.158  -0.818 -34.450  1.00  0.00     0.021 A 
HETATM   14  C   UNL     1      -7.219   0.458 -33.897  1.00  0.00     0.012 A 
HETATM   15 BR   UNL     1      -8.734   1.543 -34.228  1.00  0.00    -0.051 Br
HETATM   16  H   UNL     1      -3.516  -2.628 -33.334  1.00  0.00     0.165 HD
HETATM   17  C   UNL     1      -3.101  -0.838 -32.286  1.00  0.00     0.102 A 
ENDBRANCH   6   7
ENDBRANCH   2   5
BRANCH   1  18
HETATM   18  C   UNL     1      -1.406   5.656 -30.815  1.00  0.00     0.033 A 
HETATM   19  C   UNL     1      -2.192   6.704 -30.323  1.00  0.00     0.020 A 
HETATM   20  C   UNL     1      -1.640   7.625 -29.425  1.00  0.00     0.038 A 
HETATM   21  C   UNL     1      -0.306   7.523 -29.018  1.00  0.00     0.068 A 
HETATM   22  C   UNL     1       0.485   6.498 -29.533  1.00  0.00     0.038 A 
HETATM   23  C   UNL     1      -0.062   5.571 -30.428  1.00  0.00     0.020 A 
BRANCH  21  24
HETATM   24  O   UNL     1       0.096   8.481 -28.130  1.00  0.00    -0.352 OA
BRANCH  24  25
HETATM   25  C   UNL     1       1.495   8.572 -27.865  1.00  0.00     0.171 C 
HETATM   26  C   UNL     1       1.742   8.059 -26.458  1.00  0.00     0.034 C 
ENDBRANCH  24  25
ENDBRANCH  21  24
ENDBRANCH   1  18
TORSDOF 5
ENDMDL
MODEL 3
REMARK VINA RESULT:      -7.6      6.513     10.920
REMARK  5 active torsions:
REMARK  status: ('A' for Active; 'I' for Inactive)
REMARK    1  A    between atoms: C_2  and  O_3 
REMARK    2  A    between atoms: O_3  and  C_4 
REMARK    3  A    between atoms: C_7  and  C_8 
REMARK       I    between atoms: C_8  and  N_9 
REMARK    4  A    between atoms: N_9  and  N_10 
REMARK    5  A    between atoms: C_11  and  C_12 
ROOT
HETATM    1  C   UNL     1      -2.279   4.423 -32.491  1.00  0.00     0.271 C 
HETATM    2  N   UNL     1      -3.177   3.554 -31.888  1.00  0.00    -0.243 N 
HETATM    3  O   UNL     1      -2.049   4.475 -33.695  1.00  0.00    -0.266 OA
HETATM    4  H   UNL     1      -3.243   3.483 -30.881  1.00  0.00     0.192 HD
ENDROOT
BRANCH   2   5
HETATM    5  N   UNL     1      -3.826   2.628 -32.657  1.00  0.00    -0.183 NA
HETATM    6  C   UNL     1      -5.114   2.719 -32.698  1.00  0.00     0.152 C 
BRANCH   6   7
HETATM    7  C   UNL     1      -5.869   1.746 -33.460  1.00  0.00     0.011 A 
HETATM    8  C   UNL     1      -5.624   0.338 -33.575  1.00  0.00     0.005 A 
HETATM    9  C   UNL     1      -6.600  -0.186 -34.427  1.00  0.00     0.043 A 
HETATM   10  C   UNL     1      -4.665  -0.543 -33.032  1.00  0.00     0.033 A 
HETATM   11  C   UNL     1      -6.666  -1.542 -34.768  1.00  0.00     0.031 A 
HETATM   12  N   UNL     1      -7.409   0.859 -34.812  1.00  0.00    -0.364 N 
HETATM   13  C   UNL     1      -5.706  -2.397 -34.217  1.00  0.00     0.021 A 
HETATM   14  C   UNL     1      -4.725  -1.902 -33.363  1.00  0.00     0.012 A 
HETATM   15 BR   UNL     1      -3.447  -3.089 -32.627  1.00  0.00    -0.051 Br
HETATM   16  H   UNL     1      -8.204   0.777 -35.430  1.00  0.00     0.165 HD
HETATM   17  C   UNL     1      -6.982   2.021 -34.233  1.00  0.00     0.102 A 
ENDBRANCH   6   7
ENDBRANCH   2   5
BRANCH   1  18
HETATM   18  C   UNL     1      -1.521   5.323 -31.572  1.00  0.00     0.033 A 
HETATM   19  C   UNL     1      -0.124   5.378 -31.544  1.00  0.00     0.020 A 
HETATM   20  C   UNL     1       0.519   6.264 -30.671  1.00  0.00     0.038 A 
HETATM   21  C   UNL     1      -0.215   7.091 -29.815  1.00  0.00     0.068 A 
HETATM   22  C   UNL     1      -1.606   7.012 -29.822  1.00  0.00     0.038 A 
HETATM   23  C   UNL     1      -2.255   6.132 -30.695  1.00  0.00     0.020 A 
BRANCH  21  24
HETATM   24  O   UNL     1       0.541   7.913 -29.027  1.00  0.00    -0.352 OA
BRANCH  24  25
HETATM   25  C   UNL     1       0.920   7.412 -27.745  1.00  0.00     0.171 C 
HETATM   26  C   UNL     1       1.763   8.470 -27.057  1.00  0.00     0.034 C 
ENDBRANCH  24  25
ENDBRANCH  21  24
ENDBRANCH   1  18
TORSDOF 5
ENDMDL
MODEL 4
REMARK VINA RESULT:      -7.3      7.284     10.342
REMARK  5 active torsions:
REMARK  status: ('A' for Active; 'I' for Inactive)
REMARK    1  A    between atoms: C_2  and  O_3 
REMARK    2  A    between atoms: O_3  and  C_4 
REMARK    3  A    between atoms: C_7  and  C_8 
REMARK       I    between atoms: C_8  and  N_9 
REMARK    4  A    between atoms: N_9  and  N_10 
REMARK    5  A    between atoms: C_11  and  C_12 
ROOT
HETATM    1  C   UNL     1      -4.241   2.015 -31.759  1.00  0.00     0.271 C 
HETATM    2  N   UNL     1      -3.079   2.629 -32.205  1.00  0.00    -0.243 N 
HETATM    3  O   UNL     1      -4.824   2.285 -30.712  1.00  0.00    -0.266 OA
HETATM    4  H   UNL     1      -2.586   2.288 -33.020  1.00  0.00     0.192 HD
ENDROOT
BRANCH   2   5
HETATM    5  N   UNL     1      -2.476   3.566 -31.414  1.00  0.00    -0.183 NA
HETATM    6  C   UNL     1      -1.945   4.574 -32.024  1.00  0.00     0.152 C 
BRANCH   6   7
HETATM    7  C   UNL     1      -1.253   5.585 -31.251  1.00  0.00     0.011 A 
HETATM    8  C   UNL     1      -1.826   6.590 -30.405  1.00  0.00     0.005 A 
HETATM    9  C   UNL     1      -0.773   7.344 -29.882  1.00  0.00     0.043 A 
HETATM   10  C   UNL     1      -3.144   6.928 -30.030  1.00  0.00     0.033 A 
HETATM   11  C   UNL     1      -0.967   8.422 -29.009  1.00  0.00     0.031 A 
HETATM   12  N   UNL     1       0.395   6.818 -30.386  1.00  0.00    -0.364 N 
HETATM   13  C   UNL     1      -2.280   8.738 -28.651  1.00  0.00     0.021 A 
HETATM   14  C   UNL     1      -3.348   8.000 -29.154  1.00  0.00     0.012 A 
HETATM   15 BR   UNL     1      -5.114   8.450 -28.641  1.00  0.00    -0.051 Br
HETATM   16  H   UNL     1       1.321   7.164 -30.178  1.00  0.00     0.165 HD
HETATM   17  C   UNL     1       0.118   5.760 -31.204  1.00  0.00     0.102 A 
ENDBRANCH   6   7
ENDBRANCH   2   5
BRANCH   1  18
HETATM   18  C   UNL     1      -4.775   0.919 -32.619  1.00  0.00     0.033 A 
HETATM   19  C   UNL     1      -4.115  -0.302 -32.793  1.00  0.00     0.020 A 
HETATM   20  C   UNL     1      -4.688  -1.294 -33.598  1.00  0.00     0.038 A 
HETATM   21  C   UNL     1      -5.910  -1.080 -34.243  1.00  0.00     0.068 A 
HETATM   22  C   UNL     1      -6.552   0.148 -34.095  1.00  0.00     0.038 A 
HETATM   23  C   UNL     1      -5.986   1.142 -33.288  1.00  0.00     0.020 A 
BRANCH  21  24
HETATM   24  O   UNL     1      -6.357  -2.137 -34.986  1.00  0.00    -0.352 OA
BRANCH  24  25
HETATM   25  C   UNL     1      -5.617  -3.354 -34.891  1.00  0.00     0.171 C 
HETATM   26  C   UNL     1      -6.527  -4.494 -35.311  1.00  0.00     0.034 C 
ENDBRANCH  24  25
ENDBRANCH  21  24
ENDBRANCH   1  18
TORSDOF 5
ENDMDL
MODEL 5
REMARK VINA RESULT:      -7.2      6.065     10.829
REMARK  5 active torsions:
REMARK  status: ('A' for Active; 'I' for Inactive)
REMARK    1  A    between atoms: C_2  and  O_3 
REMARK    2  A    between atoms: O_3  and  C_4 
REMARK    3  A    between atoms: C_7  and  C_8 
REMARK       I    between atoms: C_8  and  N_9 
REMARK    4  A    between atoms: N_9  and  N_10 
REMARK    5  A    between atoms: C_11  and  C_12 
ROOT
HETATM    1  C   UNL     1      -4.325   5.389 -34.250  1.00  0.00     0.271 C 
HETATM    2  N   UNL     1      -5.503   5.293 -33.524  1.00  0.00    -0.243 N 
HETATM    3  O   UNL     1      -4.233   5.255 -35.467  1.00  0.00    -0.266 OA
HETATM    4  H   UNL     1      -5.498   5.305 -32.513  1.00  0.00     0.192 HD
ENDROOT
BRANCH   2   5
HETATM    5  N   UNL     1      -6.659   4.961 -34.174  1.00  0.00    -0.183 NA
HETATM    6  C   UNL     1      -7.761   5.317 -33.600  1.00  0.00     0.152 C 
BRANCH   6   7
HETATM    7  C   UNL     1      -9.025   4.962 -34.212  1.00  0.00     0.011 A 
HETATM    8  C   UNL     1      -9.716   3.709 -34.137  1.00  0.00     0.005 A 
HETATM    9  C   UNL     1     -10.883   3.831 -34.895  1.00  0.00     0.043 A 
HETATM   10  C   UNL     1      -9.461   2.479 -33.492  1.00  0.00     0.033 A 
HETATM   11  C   UNL     1     -11.806   2.789 -35.047  1.00  0.00     0.031 A 
HETATM   12  N   UNL     1     -10.905   5.109 -35.407  1.00  0.00    -0.364 N 
HETATM   13  C   UNL     1     -11.533   1.581 -34.398  1.00  0.00     0.021 A 
HETATM   14  C   UNL     1     -10.379   1.434 -33.634  1.00  0.00     0.012 A 
HETATM   15 BR   UNL     1     -10.045  -0.213 -32.762  1.00  0.00    -0.051 Br
HETATM   16  H   UNL     1     -11.636   5.482 -35.996  1.00  0.00     0.165 HD
HETATM   17  C   UNL     1      -9.797   5.796 -34.999  1.00  0.00     0.102 A 
ENDBRANCH   6   7
ENDBRANCH   2   5
BRANCH   1  18
HETATM   18  C   UNL     1      -3.085   5.636 -33.457  1.00  0.00     0.033 A 
HETATM   19  C   UNL     1      -2.535   4.687 -32.588  1.00  0.00     0.020 A 
HETATM   20  C   UNL     1      -1.356   4.980 -31.894  1.00  0.00     0.038 A 
HETATM   21  C   UNL     1      -0.720   6.216 -32.046  1.00  0.00     0.068 A 
HETATM   22  C   UNL     1      -1.284   7.173 -32.887  1.00  0.00     0.038 A 
HETATM   23  C   UNL     1      -2.461   6.884 -33.588  1.00  0.00     0.020 A 
BRANCH  21  24
HETATM   24  O   UNL     1       0.428   6.362 -31.318  1.00  0.00    -0.352 OA
BRANCH  24  25
HETATM   25  C   UNL     1       0.310   6.996 -30.044  1.00  0.00     0.171 C 
HETATM   26  C   UNL     1       0.553   5.949 -28.972  1.00  0.00     0.034 C 
ENDBRANCH  24  25
ENDBRANCH  21  24
ENDBRANCH   1  18
TORSDOF 5
ENDMDL
MODEL 6
REMARK VINA RESULT:      -7.2      4.950      9.957
REMARK  5 active torsions:
REMARK  status: ('A' for Active; 'I' for Inactive)
REMARK    1  A    between atoms: C_2  and  O_3 
REMARK    2  A    between atoms: O_3  and  C_4 
REMARK    3  A    between atoms: C_7  and  C_8 
REMARK       I    between atoms: C_8  and  N_9 
REMARK    4  A    between atoms: N_9  and  N_10 
REMARK    5  A    between atoms: C_11  and  C_12 
ROOT
HETATM    1  C   UNL     1      -6.191   3.817 -33.893  1.00  0.00     0.271 C 
HETATM    2  N   UNL     1      -6.455   2.475 -33.656  1.00  0.00    -0.243 N 
HETATM    3  O   UNL     1      -7.019   4.644 -34.262  1.00  0.00    -0.266 OA
HETATM    4  H   UNL     1      -5.709   1.821 -33.461  1.00  0.00     0.192 HD
ENDROOT
BRANCH   2   5
HETATM    5  N   UNL     1      -7.709   1.991 -33.903  1.00  0.00    -0.183 NA
HETATM    6  C   UNL     1      -8.393   1.621 -32.871  1.00  0.00     0.152 C 
BRANCH   6   7
HETATM    7  C   UNL     1      -9.715   1.059 -33.061  1.00  0.00     0.011 A 
HETATM    8  C   UNL     1     -10.859   1.687 -33.654  1.00  0.00     0.005 A 
HETATM    9  C   UNL     1     -11.910   0.767 -33.605  1.00  0.00     0.043 A 
HETATM   10  C   UNL     1     -11.101   2.952 -34.232  1.00  0.00     0.033 A 
HETATM   11  C   UNL     1     -13.190   1.046 -34.099  1.00  0.00     0.031 A 
HETATM   12  N   UNL     1     -11.424  -0.375 -33.011  1.00  0.00    -0.364 N 
HETATM   13  C   UNL     1     -13.407   2.305 -34.668  1.00  0.00     0.021 A 
HETATM   14  C   UNL     1     -12.376   3.238 -34.732  1.00  0.00     0.012 A 
HETATM   15 BR   UNL     1     -12.701   4.930 -35.517  1.00  0.00    -0.051 Br
HETATM   16  H   UNL     1     -11.964  -1.213 -32.844  1.00  0.00     0.165 HD
HETATM   17  C   UNL     1     -10.108  -0.211 -32.686  1.00  0.00     0.102 A 
ENDBRANCH   6   7
ENDBRANCH   2   5
BRANCH   1  18
HETATM   18  C   UNL     1      -4.772   4.246 -33.717  1.00  0.00     0.033 A 
HETATM   19  C   UNL     1      -4.152   5.184 -34.548  1.00  0.00     0.020 A 
HETATM   20  C   UNL     1      -2.824   5.557 -34.309  1.00  0.00     0.038 A 
HETATM   21  C   UNL     1      -2.099   4.995 -33.252  1.00  0.00     0.068 A 
HETATM   22  C   UNL     1      -2.707   4.038 -32.443  1.00  0.00     0.038 A 
HETATM   23  C   UNL     1      -4.036   3.665 -32.676  1.00  0.00     0.020 A 
BRANCH  21  24
HETATM   24  O   UNL     1      -0.819   5.459 -33.128  1.00  0.00    -0.352 OA
BRANCH  24  25
HETATM   25  C   UNL     1      -0.286   5.538 -31.806  1.00  0.00     0.171 C 
HETATM   26  C   UNL     1      -0.467   6.960 -31.308  1.00  0.00     0.034 C 
ENDBRANCH  24  25
ENDBRANCH  21  24
ENDBRANCH   1  18
TORSDOF 5
ENDMDL
MODEL 7
REMARK VINA RESULT:      -7.0      7.854     10.367
REMARK  5 active torsions:
REMARK  status: ('A' for Active; 'I' for Inactive)
REMARK    1  A    between atoms: C_2  and  O_3 
REMARK    2  A    between atoms: O_3  and  C_4 
REMARK    3  A    between atoms: C_7  and  C_8 
REMARK       I    between atoms: C_8  and  N_9 
REMARK    4  A    between atoms: N_9  and  N_10 
REMARK    5  A    between atoms: C_11  and  C_12 
ROOT
HETATM    1  C   UNL     1      -4.013   1.900 -31.626  1.00  0.00     0.271 C 
HETATM    2  N   UNL     1      -5.136   2.714 -31.620  1.00  0.00    -0.243 N 
HETATM    3  O   UNL     1      -2.907   2.219 -31.200  1.00  0.00    -0.266 OA
HETATM    4  H   UNL     1      -5.990   2.434 -32.084  1.00  0.00     0.192 HD
ENDROOT
BRANCH   2   5
HETATM    5  N   UNL     1      -5.022   4.000 -31.170  1.00  0.00    -0.183 NA
HETATM    6  C   UNL     1      -5.109   4.930 -32.063  1.00  0.00     0.152 C 
BRANCH   6   7
HETATM    7  C   UNL     1      -4.957   6.314 -31.663  1.00  0.00     0.011 A 
HETATM    8  C   UNL     1      -3.769   6.967 -31.198  1.00  0.00     0.005 A 
HETATM    9  C   UNL     1      -4.107   8.294 -30.918  1.00  0.00     0.043 A 
HETATM   10  C   UNL     1      -2.434   6.557 -30.992  1.00  0.00     0.033 A 
HETATM   11  C   UNL     1      -3.183   9.230 -30.438  1.00  0.00     0.031 A 
HETATM   12  N   UNL     1      -5.445   8.443 -31.205  1.00  0.00    -0.364 N 
HETATM   13  C   UNL     1      -1.867   8.802 -30.242  1.00  0.00     0.021 A 
HETATM   14  C   UNL     1      -1.503   7.487 -30.517  1.00  0.00     0.012 A 
HETATM   15 BR   UNL     1       0.291   6.943 -30.248  1.00  0.00    -0.051 Br
HETATM   16  H   UNL     1      -5.966   9.302 -31.098  1.00  0.00     0.165 HD
HETATM   17  C   UNL     1      -5.962   7.262 -31.657  1.00  0.00     0.102 A 
ENDBRANCH   6   7
ENDBRANCH   2   5
BRANCH   1  18
HETATM   18  C   UNL     1      -4.185   0.551 -32.241  1.00  0.00     0.033 A 
HETATM   19  C   UNL     1      -5.140   0.281 -33.227  1.00  0.00     0.020 A 
HETATM   20  C   UNL     1      -5.230  -1.004 -33.776  1.00  0.00     0.038 A 
HETATM   21  C   UNL     1      -4.383  -2.031 -33.346  1.00  0.00     0.068 A 
HETATM   22  C   UNL     1      -3.454  -1.769 -32.341  1.00  0.00     0.038 A 
HETATM   23  C   UNL     1      -3.357  -0.486 -31.792  1.00  0.00     0.020 A 
BRANCH  21  24
HETATM   24  O   UNL     1      -4.572  -3.229 -33.975  1.00  0.00    -0.352 OA
BRANCH  24  25
HETATM   25  C   UNL     1      -5.459  -3.239 -35.094  1.00  0.00     0.171 C 
HETATM   26  C   UNL     1      -6.306  -4.496 -35.012  1.00  0.00     0.034 C 
ENDBRANCH  24  25
ENDBRANCH  21  24
ENDBRANCH   1  18
TORSDOF 5
ENDMDL
MODEL 8
REMARK VINA RESULT:      -6.9      6.833      9.704
REMARK  5 active torsions:
REMARK  status: ('A' for Active; 'I' for Inactive)
REMARK    1  A    between atoms: C_2  and  O_3 
REMARK    2  A    between atoms: O_3  and  C_4 
REMARK    3  A    between atoms: C_7  and  C_8 
REMARK       I    between atoms: C_8  and  N_9 
REMARK    4  A    between atoms: N_9  and  N_10 
REMARK    5  A    between atoms: C_11  and  C_12 
ROOT
HETATM    1  C   UNL     1      -5.962   2.873 -33.395  1.00  0.00     0.271 C 
HETATM    2  N   UNL     1      -5.634   3.240 -32.098  1.00  0.00    -0.243 N 
HETATM    3  O   UNL     1      -6.105   3.652 -34.334  1.00  0.00    -0.266 OA
HETATM    4  H   UNL     1      -5.638   2.565 -31.345  1.00  0.00     0.192 HD
ENDROOT
BRANCH   2   5
HETATM    5  N   UNL     1      -5.516   4.568 -31.792  1.00  0.00    -0.183 NA
HETATM    6  C   UNL     1      -4.317   5.004 -31.592  1.00  0.00     0.152 C 
BRANCH   6   7
HETATM    7  C   UNL     1      -4.120   6.391 -31.223  1.00  0.00     0.011 A 
HETATM    8  C   UNL     1      -3.042   6.954 -30.466  1.00  0.00     0.005 A 
HETATM    9  C   UNL     1      -3.287   8.325 -30.349  1.00  0.00     0.043 A 
HETATM   10  C   UNL     1      -1.875   6.428 -29.870  1.00  0.00     0.033 A 
HETATM   11  C   UNL     1      -2.431   9.197 -29.665  1.00  0.00     0.031 A 
HETATM   12  N   UNL     1      -4.464   8.587 -31.012  1.00  0.00    -0.364 N 
HETATM   13  C   UNL     1      -1.281   8.654 -29.083  1.00  0.00     0.021 A 
HETATM   14  C   UNL     1      -1.011   7.292 -29.188  1.00  0.00     0.012 A 
HETATM   15 BR   UNL     1       0.559   6.592 -28.396  1.00  0.00    -0.051 Br
HETATM   16  H   UNL     1      -4.890   9.500 -31.094  1.00  0.00     0.165 HD
HETATM   17  C   UNL     1      -4.969   7.434 -31.543  1.00  0.00     0.102 A 
ENDBRANCH   6   7
ENDBRANCH   2   5
BRANCH   1  18
HETATM   18  C   UNL     1      -6.191   1.416 -33.626  1.00  0.00     0.033 A 
HETATM   19  C   UNL     1      -5.674   0.423 -32.789  1.00  0.00     0.020 A 
HETATM   20  C   UNL     1      -5.950  -0.924 -33.055  1.00  0.00     0.038 A 
HETATM   21  C   UNL     1      -6.728  -1.295 -34.155  1.00  0.00     0.068 A 
HETATM   22  C   UNL     1      -7.217  -0.307 -35.007  1.00  0.00     0.038 A 
HETATM   23  C   UNL     1      -6.948   1.042 -34.744  1.00  0.00     0.020 A 
BRANCH  21  24
HETATM   24  O   UNL     1      -6.927  -2.641 -34.287  1.00  0.00    -0.352 OA
BRANCH  24  25
HETATM   25  C   UNL     1      -5.827  -3.414 -34.766  1.00  0.00     0.171 C 
HETATM   26  C   UNL     1      -6.382  -4.638 -35.471  1.00  0.00     0.034 C 
ENDBRANCH  24  25
ENDBRANCH  21  24
ENDBRANCH   1  18
TORSDOF 5
ENDMDL
MODEL 9
REMARK VINA RESULT:      -6.8     10.490     14.558
REMARK  5 active torsions:
REMARK  status: ('A' for Active; 'I' for Inactive)
REMARK    1  A    between atoms: C_2  and  O_3 
REMARK    2  A    between atoms: O_3  and  C_4 
REMARK    3  A    between atoms: C_7  and  C_8 
REMARK       I    between atoms: C_8  and  N_9 
REMARK    4  A    between atoms: N_9  and  N_10 
REMARK    5  A    between atoms: C_11  and  C_12 
ROOT
HETATM    1  C   UNL     1       0.238   6.907 -28.833  1.00  0.00     0.271 C 
HETATM    2  N   UNL     1      -0.075   7.505 -30.045  1.00  0.00    -0.243 N 
HETATM    3  O   UNL     1       0.118   5.711 -28.584  1.00  0.00    -0.266 OA
HETATM    4  H   UNL     1      -0.059   8.511 -30.153  1.00  0.00     0.192 HD
ENDROOT
BRANCH   2   5
HETATM    5  N   UNL     1      -0.621   6.744 -31.040  1.00  0.00    -0.183 NA
HETATM    6  C   UNL     1      -1.160   7.387 -32.023  1.00  0.00     0.152 C 
BRANCH   6   7
HETATM    7  C   UNL     1      -1.794   6.645 -33.093  1.00  0.00     0.011 A 
HETATM    8  C   UNL     1      -3.158   6.213 -33.174  1.00  0.00     0.005 A 
HETATM    9  C   UNL     1      -3.304   5.520 -34.379  1.00  0.00     0.043 A 
HETATM   10  C   UNL     1      -4.286   6.349 -32.338  1.00  0.00     0.033 A 
HETATM   11  C   UNL     1      -4.516   4.952 -34.789  1.00  0.00     0.031 A 
HETATM   12  N   UNL     1      -2.080   5.533 -35.008  1.00  0.00    -0.364 N 
HETATM   13  C   UNL     1      -5.620   5.100 -33.945  1.00  0.00     0.021 A 
HETATM   14  C   UNL     1      -5.503   5.788 -32.741  1.00  0.00     0.012 A 
HETATM   15 BR   UNL     1      -7.021   5.977 -31.626  1.00  0.00    -0.051 Br
HETATM   16  H   UNL     1      -1.886   5.107 -35.903  1.00  0.00     0.165 HD
HETATM   17  C   UNL     1      -1.169   6.209 -34.247  1.00  0.00     0.102 A 
ENDBRANCH   6   7
ENDBRANCH   2   5
BRANCH   1  18
HETATM   18  C   UNL     1       0.716   7.822 -27.755  1.00  0.00     0.033 A 
HETATM   19  C   UNL     1       1.624   7.425 -26.767  1.00  0.00     0.020 A 
HETATM   20  C   UNL     1       2.047   8.346 -25.800  1.00  0.00     0.038 A 
HETATM   21  C   UNL     1       1.565   9.658 -25.798  1.00  0.00     0.068 A 
HETATM   22  C   UNL     1       0.637  10.044 -26.763  1.00  0.00     0.038 A 
HETATM   23  C   UNL     1       0.214   9.130 -27.735  1.00  0.00     0.020 A 
BRANCH  21  24
HETATM   24  O   UNL     1       2.071  10.451 -24.806  1.00  0.00    -0.352 OA
BRANCH  24  25
HETATM   25  C   UNL     1       3.245   9.984 -24.140  1.00  0.00     0.171 C 
HETATM   26  C   UNL     1       3.049  10.179 -22.648  1.00  0.00     0.034 C 
ENDBRANCH  24  25
ENDBRANCH  21  24
ENDBRANCH   1  18
TORSDOF 5
ENDMDL
MODEL 10
REMARK VINA RESULT:      -6.8     15.703     17.498
REMARK  5 active torsions:
REMARK  status: ('A' for Active; 'I' for Inactive)
REMARK    1  A    between atoms: C_2  and  O_3 
REMARK    2  A    between atoms: O_3  and  C_4 
REMARK    3  A    between atoms: C_7  and  C_8 
REMARK       I    between atoms: C_8  and  N_9 
REMARK    4  A    between atoms: N_9  and  N_10 
REMARK    5  A    between atoms: C_11  and  C_12 
ROOT
HETATM    1  C   UNL     1      -5.938 -15.317 -33.889  1.00  0.00     0.271 C 
HETATM    2  N   UNL     1      -4.731 -15.290 -34.571  1.00  0.00    -0.243 N 
HETATM    3  O   UNL     1      -7.025 -15.000 -34.365  1.00  0.00    -0.266 OA
HETATM    4  H   UNL     1      -3.855 -15.458 -34.093  1.00  0.00     0.192 HD
ENDROOT
BRANCH   2   5
HETATM    5  N   UNL     1      -4.702 -14.822 -35.855  1.00  0.00    -0.183 NA
HETATM    6  C   UNL     1      -4.432 -13.567 -36.001  1.00  0.00     0.152 C 
BRANCH   6   7
HETATM    7  C   UNL     1      -4.425 -12.993 -37.331  1.00  0.00     0.011 A 
HETATM    8  C   UNL     1      -5.532 -12.846 -38.229  1.00  0.00     0.005 A 
HETATM    9  C   UNL     1      -5.044 -12.256 -39.398  1.00  0.00     0.043 A 
HETATM   10  C   UNL     1      -6.907 -13.157 -38.159  1.00  0.00     0.033 A 
HETATM   11  C   UNL     1      -5.856 -11.964 -40.501  1.00  0.00     0.031 A 
HETATM   12  N   UNL     1      -3.696 -12.047 -39.216  1.00  0.00    -0.364 N 
HETATM   13  C   UNL     1      -7.215 -12.279 -40.408  1.00  0.00     0.021 A 
HETATM   14  C   UNL     1      -7.728 -12.865 -39.254  1.00  0.00     0.012 A 
HETATM   15 BR   UNL     1      -9.574 -13.271 -39.159  1.00  0.00    -0.051 Br
HETATM   16  H   UNL     1      -3.079 -11.630 -39.900  1.00  0.00     0.165 HD
HETATM   17  C   UNL     1      -3.316 -12.482 -37.978  1.00  0.00     0.102 A 
ENDBRANCH   6   7
ENDBRANCH   2   5
BRANCH   1  18
HETATM   18  C   UNL     1      -5.872 -15.727 -32.455  1.00  0.00     0.033 A 
HETATM   19  C   UNL     1      -4.930 -15.211 -31.559  1.00  0.00     0.020 A 
HETATM   20  C   UNL     1      -4.942 -15.625 -30.221  1.00  0.00     0.038 A 
HETATM   21  C   UNL     1      -5.878 -16.559 -29.766  1.00  0.00     0.068 A 
HETATM   22  C   UNL     1      -6.797 -17.096 -30.666  1.00  0.00     0.038 A 
HETATM   23  C   UNL     1      -6.792 -16.682 -32.004  1.00  0.00     0.020 A 
BRANCH  21  24
HETATM   24  O   UNL     1      -5.783 -16.863 -28.437  1.00  0.00    -0.352 OA
BRANCH  24  25
HETATM   25  C   UNL     1      -4.468 -16.994 -27.896  1.00  0.00     0.171 C 
HETATM   26  C   UNL     1      -4.381 -18.334 -27.189  1.00  0.00     0.034 C 
ENDBRANCH  24  25
ENDBRANCH  21  24
ENDBRANCH   1  18
TORSDOF 5
ENDMDL
