MODEL 1
REMARK VINA RESULT:      -8.5      0.000      0.000
REMARK  6 active torsions:
REMARK  status: ('A' for Active; 'I' for Inactive)
REMARK    1  A    between atoms: C_2  and  C_3 
REMARK    2  A    between atoms: C_3  and  C_4 
REMARK    3  A    between atoms: C_4  and  N_5 
REMARK       I    between atoms: N_5  and  C_6 
REMARK       I    between atoms: C_6  and  N_7 
REMARK    4  A    between atoms: N_7  and  C_8 
REMARK    5  A    between atoms: N_11  and  C_12 
REMARK    6  A    between atoms: C_15  and  O_16 
ROOT
HETATM    1  C   UNL     1      -3.999   4.315 -31.487  1.00  0.00     0.123 C 
HETATM    2  C   UNL     1      -4.178   2.845 -31.587  1.00  0.00     0.009 A 
HETATM    3  C   UNL     1      -5.066   2.209 -32.438  1.00  0.00     0.047 A 
HETATM    4  N   UNL     1      -4.787   0.847 -32.352  1.00  0.00    -0.238 N 
HETATM    5  N   UNL     1      -3.851   0.618 -31.383  1.00  0.00    -0.179 NA
HETATM    6  C   UNL     1      -3.484   1.817 -30.945  1.00  0.00     0.150 A 
HETATM    7  C   UNL     1      -6.065   2.911 -33.298  1.00  0.00     0.069 C 
HETATM    8  C   UNL     1      -5.850   4.461 -33.345  1.00  0.00    -0.040 C 
HETATM    9  C   UNL     1      -7.220   5.136 -33.582  1.00  0.00     0.015 C 
HETATM   10  C   UNL     1      -4.949   4.818 -34.545  1.00  0.00     0.015 C 
HETATM   11  C   UNL     1      -5.255   5.036 -32.019  1.00  0.00     0.039 C 
ENDROOT
BRANCH   1  12
HETATM   12  N   UNL     1      -2.793   4.620 -32.237  1.00  0.00    -0.334 N 
HETATM   13  C   UNL     1      -1.552   4.968 -31.843  1.00  0.00     0.316 C 
HETATM   14  N   UNL     1      -1.370   5.232 -30.523  1.00  0.00    -0.343 N 
HETATM   15  O   UNL     1      -0.664   5.040 -32.685  1.00  0.00    -0.247 OA
HETATM   16  H   UNL     1      -2.075   4.903 -29.885  1.00  0.00     0.164 HD
HETATM   17  H   UNL     1      -2.827   4.477 -33.240  1.00  0.00     0.165 HD
BRANCH  14  18
HETATM   18  C   UNL     1      -0.043   5.433 -29.973  1.00  0.00     0.124 C 
BRANCH  18  19
HETATM   19  C   UNL     1       0.323   6.880 -29.629  1.00  0.00     0.019 C 
BRANCH  19  20
HETATM   20  C   UNL     1       0.748   7.115 -28.178  1.00  0.00    -0.003 C 
HETATM   21  C   UNL     1       1.407   8.463 -27.934  1.00  0.00     0.005 C 
ENDBRANCH  19  20
ENDBRANCH  18  19
ENDBRANCH  14  18
ENDBRANCH   1  12
BRANCH   4  22
HETATM   22  C   UNL     1      -5.245  -0.264 -33.129  1.00  0.00     0.058 A 
HETATM   23  C   UNL     1      -6.628  -0.407 -33.336  1.00  0.00     0.034 A 
HETATM   24  C   UNL     1      -7.144  -1.527 -33.993  1.00  0.00     0.039 A 
HETATM   25  C   UNL     1      -6.293  -2.524 -34.461  1.00  0.00     0.068 A 
HETATM   26  C   UNL     1      -4.917  -2.363 -34.314  1.00  0.00     0.039 A 
HETATM   27  C   UNL     1      -4.394  -1.237 -33.656  1.00  0.00     0.034 A 
BRANCH  25  28
HETATM   28  O   UNL     1      -6.918  -3.586 -35.051  1.00  0.00    -0.356 OA
HETATM   29  C   UNL     1      -6.104  -4.712 -35.353  1.00  0.00     0.210 C 
ENDBRANCH  25  28
ENDBRANCH   4  22
TORSDOF 6
ENDMDL
MODEL 2
REMARK VINA RESULT:      -8.1      4.415      9.344
REMARK  6 active torsions:
REMARK  status: ('A' for Active; 'I' for Inactive)
REMARK    1  A    between atoms: C_2  and  C_3 
REMARK    2  A    between atoms: C_3  and  C_4 
REMARK    3  A    between atoms: C_4  and  N_5 
REMARK       I    between atoms: N_5  and  C_6 
REMARK       I    between atoms: C_6  and  N_7 
REMARK    4  A    between atoms: N_7  and  C_8 
REMARK    5  A    between atoms: N_11  and  C_12 
REMARK    6  A    between atoms: C_15  and  O_16 
ROOT
HETATM    1  C   UNL     1      -9.090   1.226 -32.812  1.00  0.00     0.123 C 
HETATM    2  C   UNL     1      -8.059   2.288 -32.694  1.00  0.00     0.009 A 
HETATM    3  C   UNL     1      -6.753   2.179 -33.141  1.00  0.00     0.047 A 
HETATM    4  N   UNL     1      -6.185   3.445 -33.008  1.00  0.00    -0.238 N 
HETATM    5  N   UNL     1      -7.056   4.288 -32.376  1.00  0.00    -0.179 NA
HETATM    6  C   UNL     1      -8.174   3.592 -32.209  1.00  0.00     0.150 A 
HETATM    7  C   UNL     1      -6.150   0.933 -33.699  1.00  0.00     0.069 C 
HETATM    8  C   UNL     1      -7.207  -0.189 -33.974  1.00  0.00    -0.040 C 
HETATM    9  C   UNL     1      -6.512  -1.561 -33.825  1.00  0.00     0.015 C 
HETATM   10  C   UNL     1      -7.700  -0.082 -35.432  1.00  0.00     0.015 C 
HETATM   11  C   UNL     1      -8.413  -0.149 -32.980  1.00  0.00     0.039 C 
ENDROOT
BRANCH   1  12
HETATM   12  N   UNL     1      -9.923   1.605 -33.939  1.00  0.00    -0.334 N 
HETATM   13  C   UNL     1     -11.156   2.146 -34.006  1.00  0.00     0.316 C 
HETATM   14  N   UNL     1     -11.852   2.253 -32.844  1.00  0.00    -0.343 N 
HETATM   15  O   UNL     1     -11.588   2.500 -35.098  1.00  0.00    -0.247 OA
HETATM   16  H   UNL     1     -11.332   2.179 -31.986  1.00  0.00     0.164 HD
HETATM   17  H   UNL     1      -9.506   1.543 -34.861  1.00  0.00     0.165 HD
BRANCH  14  18
HETATM   18  C   UNL     1     -13.102   2.984 -32.781  1.00  0.00     0.124 C 
BRANCH  18  19
HETATM   19  C   UNL     1     -14.370   2.159 -33.025  1.00  0.00     0.019 C 
BRANCH  19  20
HETATM   20  C   UNL     1     -15.385   2.175 -31.881  1.00  0.00    -0.003 C 
HETATM   21  C   UNL     1     -16.799   2.531 -32.310  1.00  0.00     0.005 C 
ENDBRANCH  19  20
ENDBRANCH  18  19
ENDBRANCH  14  18
ENDBRANCH   1  12
BRANCH   4  22
HETATM   22  C   UNL     1      -4.942   3.978 -33.474  1.00  0.00     0.058 A 
HETATM   23  C   UNL     1      -3.783   3.723 -32.721  1.00  0.00     0.034 A 
HETATM   24  C   UNL     1      -2.560   4.305 -33.065  1.00  0.00     0.039 A 
HETATM   25  C   UNL     1      -2.466   5.148 -34.169  1.00  0.00     0.068 A 
HETATM   26  C   UNL     1      -3.595   5.359 -34.958  1.00  0.00     0.039 A 
HETATM   27  C   UNL     1      -4.826   4.774 -34.616  1.00  0.00     0.034 A 
BRANCH  25  28
HETATM   28  O   UNL     1      -1.227   5.685 -34.380  1.00  0.00    -0.356 OA
HETATM   29  C   UNL     1      -0.898   6.836 -33.611  1.00  0.00     0.210 C 
ENDBRANCH  25  28
ENDBRANCH   4  22
TORSDOF 6
ENDMDL
MODEL 3
REMARK VINA RESULT:      -7.9      4.701      6.612
REMARK  6 active torsions:
REMARK  status: ('A' for Active; 'I' for Inactive)
REMARK    1  A    between atoms: C_2  and  C_3 
REMARK    2  A    between atoms: C_3  and  C_4 
REMARK    3  A    between atoms: C_4  and  N_5 
REMARK       I    between atoms: N_5  and  C_6 
REMARK       I    between atoms: C_6  and  N_7 
REMARK    4  A    between atoms: N_7  and  C_8 
REMARK    5  A    between atoms: N_11  and  C_12 
REMARK    6  A    between atoms: C_15  and  O_16 
ROOT
HETATM    1  C   UNL     1      -6.484   2.602 -33.670  1.00  0.00     0.123 C 
HETATM    2  C   UNL     1      -7.896   3.016 -33.865  1.00  0.00     0.009 A 
HETATM    3  C   UNL     1      -8.958   2.149 -34.056  1.00  0.00     0.047 A 
HETATM    4  N   UNL     1     -10.114   2.926 -34.010  1.00  0.00    -0.238 N 
HETATM    5  N   UNL     1      -9.788   4.251 -33.930  1.00  0.00    -0.179 NA
HETATM    6  C   UNL     1      -8.465   4.291 -33.828  1.00  0.00     0.150 A 
HETATM    7  C   UNL     1      -8.827   0.670 -34.213  1.00  0.00     0.069 C 
HETATM    8  C   UNL     1      -7.387   0.146 -33.890  1.00  0.00    -0.040 C 
HETATM    9  C   UNL     1      -7.131  -1.125 -34.732  1.00  0.00     0.015 C 
HETATM   10  C   UNL     1      -7.312  -0.266 -32.405  1.00  0.00     0.015 C 
HETATM   11  C   UNL     1      -6.268   1.182 -34.232  1.00  0.00     0.039 C 
ENDROOT
BRANCH   1  12
HETATM   12  N   UNL     1      -6.234   2.706 -32.243  1.00  0.00    -0.334 N 
HETATM   13  C   UNL     1      -5.127   3.026 -31.543  1.00  0.00     0.316 C 
HETATM   14  N   UNL     1      -3.967   3.151 -32.239  1.00  0.00    -0.343 N 
HETATM   15  O   UNL     1      -5.218   3.175 -30.329  1.00  0.00    -0.247 OA
HETATM   16  H   UNL     1      -4.036   3.264 -33.236  1.00  0.00     0.164 HD
HETATM   17  H   UNL     1      -7.033   2.606 -31.627  1.00  0.00     0.165 HD
BRANCH  14  18
HETATM   18  C   UNL     1      -2.767   3.670 -31.611  1.00  0.00     0.124 C 
BRANCH  18  19
HETATM   19  C   UNL     1      -1.942   4.646 -32.455  1.00  0.00     0.019 C 
BRANCH  19  20
HETATM   20  C   UNL     1      -2.185   4.567 -33.964  1.00  0.00    -0.003 C 
HETATM   21  C   UNL     1      -1.283   5.473 -34.786  1.00  0.00     0.005 C 
ENDBRANCH  19  20
ENDBRANCH  18  19
ENDBRANCH  14  18
ENDBRANCH   1  12
BRANCH   4  22
HETATM   22  C   UNL     1     -11.497   2.563 -33.958  1.00  0.00     0.058 A 
HETATM   23  C   UNL     1     -12.295   3.122 -32.944  1.00  0.00     0.034 A 
HETATM   24  C   UNL     1     -13.624   2.723 -32.775  1.00  0.00     0.039 A 
HETATM   25  C   UNL     1     -14.186   1.766 -33.615  1.00  0.00     0.068 A 
HETATM   26  C   UNL     1     -13.422   1.250 -34.660  1.00  0.00     0.039 A 
HETATM   27  C   UNL     1     -12.086   1.649 -34.835  1.00  0.00     0.034 A 
BRANCH  25  28
HETATM   28  O   UNL     1     -15.479   1.433 -33.325  1.00  0.00    -0.356 OA
HETATM   29  C   UNL     1     -16.127   2.218 -32.331  1.00  0.00     0.210 C 
ENDBRANCH  25  28
ENDBRANCH   4  22
TORSDOF 6
ENDMDL
MODEL 4
REMARK VINA RESULT:      -7.8      1.474      2.106
REMARK  6 active torsions:
REMARK  status: ('A' for Active; 'I' for Inactive)
REMARK    1  A    between atoms: C_2  and  C_3 
REMARK    2  A    between atoms: C_3  and  C_4 
REMARK    3  A    between atoms: C_4  and  N_5 
REMARK       I    between atoms: N_5  and  C_6 
REMARK       I    between atoms: C_6  and  N_7 
REMARK    4  A    between atoms: N_7  and  C_8 
REMARK    5  A    between atoms: N_11  and  C_12 
REMARK    6  A    between atoms: C_15  and  O_16 
ROOT
HETATM    1  C   UNL     1      -4.988   4.419 -31.864  1.00  0.00     0.123 C 
HETATM    2  C   UNL     1      -4.667   2.992 -32.123  1.00  0.00     0.009 A 
HETATM    3  C   UNL     1      -5.594   2.017 -32.450  1.00  0.00     0.047 A 
HETATM    4  N   UNL     1      -4.865   0.879 -32.788  1.00  0.00    -0.238 N 
HETATM    5  N   UNL     1      -3.534   1.084 -32.551  1.00  0.00    -0.179 NA
HETATM    6  C   UNL     1      -3.427   2.352 -32.171  1.00  0.00     0.150 A 
HETATM    7  C   UNL     1      -7.072   2.228 -32.476  1.00  0.00     0.069 C 
HETATM    8  C   UNL     1      -7.478   3.734 -32.341  1.00  0.00    -0.040 C 
HETATM    9  C   UNL     1      -8.863   3.806 -31.660  1.00  0.00     0.015 C 
HETATM   10  C   UNL     1      -7.626   4.352 -33.747  1.00  0.00     0.015 C 
HETATM   11  C   UNL     1      -6.474   4.563 -31.477  1.00  0.00     0.039 C 
ENDROOT
BRANCH   1  12
HETATM   12  N   UNL     1      -4.632   5.132 -33.078  1.00  0.00    -0.334 N 
HETATM   13  C   UNL     1      -3.491   5.735 -33.468  1.00  0.00     0.316 C 
HETATM   14  N   UNL     1      -2.502   5.848 -32.542  1.00  0.00    -0.343 N 
HETATM   15  O   UNL     1      -3.406   6.155 -34.616  1.00  0.00    -0.247 OA
HETATM   16  H   UNL     1      -2.561   5.260 -31.729  1.00  0.00     0.164 HD
HETATM   17  H   UNL     1      -5.312   5.128 -33.830  1.00  0.00     0.165 HD
BRANCH  14  18
HETATM   18  C   UNL     1      -1.178   6.311 -32.912  1.00  0.00     0.124 C 
BRANCH  18  19
HETATM   19  C   UNL     1      -0.435   7.124 -31.847  1.00  0.00     0.019 C 
BRANCH  19  20
HETATM   20  C   UNL     1       0.556   6.327 -30.996  1.00  0.00    -0.003 C 
HETATM   21  C   UNL     1       0.125   6.142 -29.550  1.00  0.00     0.005 C 
ENDBRANCH  19  20
ENDBRANCH  18  19
ENDBRANCH  14  18
ENDBRANCH   1  12
BRANCH   4  22
HETATM   22  C   UNL     1      -5.266  -0.361 -33.379  1.00  0.00     0.058 A 
HETATM   23  C   UNL     1      -4.315  -1.393 -33.473  1.00  0.00     0.034 A 
HETATM   24  C   UNL     1      -4.614  -2.585 -34.137  1.00  0.00     0.039 A 
HETATM   25  C   UNL     1      -5.866  -2.777 -34.714  1.00  0.00     0.068 A 
HETATM   26  C   UNL     1      -6.836  -1.786 -34.573  1.00  0.00     0.039 A 
HETATM   27  C   UNL     1      -6.540  -0.586 -33.906  1.00  0.00     0.034 A 
BRANCH  25  28
HETATM   28  O   UNL     1      -6.024  -3.968 -35.366  1.00  0.00    -0.356 OA
HETATM   29  C   UNL     1      -5.363  -5.092 -34.799  1.00  0.00     0.210 C 
ENDBRANCH  25  28
ENDBRANCH   4  22
TORSDOF 6
ENDMDL
MODEL 5
REMARK VINA RESULT:      -7.5      2.197      3.556
REMARK  6 active torsions:
REMARK  status: ('A' for Active; 'I' for Inactive)
REMARK    1  A    between atoms: C_2  and  C_3 
REMARK    2  A    between atoms: C_3  and  C_4 
REMARK    3  A    between atoms: C_4  and  N_5 
REMARK       I    between atoms: N_5  and  C_6 
REMARK       I    between atoms: C_6  and  N_7 
REMARK    4  A    between atoms: N_7  and  C_8 
REMARK    5  A    between atoms: N_11  and  C_12 
REMARK    6  A    between atoms: C_15  and  O_16 
ROOT
HETATM    1  C   UNL     1      -3.094   6.631 -30.739  1.00  0.00     0.123 C 
HETATM    2  C   UNL     1      -3.893   5.406 -30.996  1.00  0.00     0.009 A 
HETATM    3  C   UNL     1      -3.631   4.482 -31.993  1.00  0.00     0.047 A 
HETATM    4  N   UNL     1      -4.492   3.409 -31.771  1.00  0.00    -0.238 N 
HETATM    5  N   UNL     1      -5.358   3.702 -30.755  1.00  0.00    -0.179 NA
HETATM    6  C   UNL     1      -4.981   4.887 -30.291  1.00  0.00     0.150 A 
HETATM    7  C   UNL     1      -2.576   4.640 -33.038  1.00  0.00     0.069 C 
HETATM    8  C   UNL     1      -1.610   5.839 -32.756  1.00  0.00    -0.040 C 
HETATM    9  C   UNL     1      -1.092   6.375 -34.110  1.00  0.00     0.015 C 
HETATM   10  C   UNL     1      -0.386   5.336 -31.964  1.00  0.00     0.015 C 
HETATM   11  C   UNL     1      -2.306   7.021 -32.006  1.00  0.00     0.039 C 
ENDROOT
BRANCH   1  12
HETATM   12  N   UNL     1      -2.248   6.321 -29.601  1.00  0.00    -0.334 N 
HETATM   13  C   UNL     1      -1.826   7.068 -28.561  1.00  0.00     0.316 C 
HETATM   14  N   UNL     1      -2.098   8.399 -28.603  1.00  0.00    -0.343 N 
HETATM   15  O   UNL     1      -1.217   6.522 -27.648  1.00  0.00    -0.247 OA
HETATM   16  H   UNL     1      -2.807   8.706 -29.246  1.00  0.00     0.164 HD
HETATM   17  H   UNL     1      -1.967   5.353 -29.486  1.00  0.00     0.165 HD
BRANCH  14  18
HETATM   18  C   UNL     1      -1.851   9.252 -27.457  1.00  0.00     0.124 C 
BRANCH  18  19
HETATM   19  C   UNL     1      -0.558  10.072 -27.502  1.00  0.00     0.019 C 
BRANCH  19  20
HETATM   20  C   UNL     1       0.643   9.430 -26.805  1.00  0.00    -0.003 C 
HETATM   21  C   UNL     1       1.580   8.685 -27.741  1.00  0.00     0.005 C 
ENDBRANCH  19  20
ENDBRANCH  18  19
ENDBRANCH  14  18
ENDBRANCH   1  12
BRANCH   4  22
HETATM   22  C   UNL     1      -4.548   2.104 -32.356  1.00  0.00     0.058 A 
HETATM   23  C   UNL     1      -5.709   1.739 -33.060  1.00  0.00     0.034 A 
HETATM   24  C   UNL     1      -5.867   0.443 -33.560  1.00  0.00     0.039 A 
HETATM   25  C   UNL     1      -4.871  -0.511 -33.374  1.00  0.00     0.068 A 
HETATM   26  C   UNL     1      -3.691  -0.142 -32.731  1.00  0.00     0.039 A 
HETATM   27  C   UNL     1      -3.527   1.159 -32.228  1.00  0.00     0.034 A 
BRANCH  25  28
HETATM   28  O   UNL     1      -5.159  -1.750 -33.875  1.00  0.00    -0.356 OA
HETATM   29  C   UNL     1      -6.315  -1.846 -34.699  1.00  0.00     0.210 C 
ENDBRANCH  25  28
ENDBRANCH   4  22
TORSDOF 6
ENDMDL
MODEL 6
REMARK VINA RESULT:      -7.4     17.187     18.328
REMARK  6 active torsions:
REMARK  status: ('A' for Active; 'I' for Inactive)
REMARK    1  A    between atoms: C_2  and  C_3 
REMARK    2  A    between atoms: C_3  and  C_4 
REMARK    3  A    between atoms: C_4  and  N_5 
REMARK       I    between atoms: N_5  and  C_6 
REMARK       I    between atoms: C_6  and  N_7 
REMARK    4  A    between atoms: N_7  and  C_8 
REMARK    5  A    between atoms: N_11  and  C_12 
REMARK    6  A    between atoms: C_15  and  O_16 
ROOT
HETATM    1  C   UNL     1      -5.202 -12.524 -40.401  1.00  0.00     0.123 C 
HETATM    2  C   UNL     1      -5.084 -12.877 -38.963  1.00  0.00     0.009 A 
HETATM    3  C   UNL     1      -6.146 -13.196 -38.135  1.00  0.00     0.047 A 
HETATM    4  N   UNL     1      -5.591 -13.639 -36.936  1.00  0.00    -0.238 N 
HETATM    5  N   UNL     1      -4.234 -13.477 -36.957  1.00  0.00    -0.179 NA
HETATM    6  C   UNL     1      -3.942 -13.038 -38.176  1.00  0.00     0.150 A 
HETATM    7  C   UNL     1      -7.584 -13.116 -38.531  1.00  0.00     0.069 C 
HETATM    8  C   UNL     1      -7.783 -12.877 -40.065  1.00  0.00    -0.040 C 
HETATM    9  C   UNL     1      -9.107 -12.106 -40.270  1.00  0.00     0.015 C 
HETATM   10  C   UNL     1      -7.929 -14.236 -40.781  1.00  0.00     0.015 C 
HETATM   11  C   UNL     1      -6.633 -12.036 -40.708  1.00  0.00     0.039 C 
ENDROOT
BRANCH   1  12
HETATM   12  N   UNL     1      -4.826 -13.719 -41.135  1.00  0.00    -0.334 N 
HETATM   13  C   UNL     1      -3.628 -14.285 -41.383  1.00  0.00     0.316 C 
HETATM   14  N   UNL     1      -2.523 -13.581 -41.022  1.00  0.00    -0.343 N 
HETATM   15  O   UNL     1      -3.594 -15.385 -41.923  1.00  0.00    -0.247 OA
HETATM   16  H   UNL     1      -2.648 -12.828 -40.368  1.00  0.00     0.164 HD
HETATM   17  H   UNL     1      -5.579 -14.309 -41.470  1.00  0.00     0.165 HD
BRANCH  14  18
HETATM   18  C   UNL     1      -1.203 -14.178 -41.076  1.00  0.00     0.124 C 
BRANCH  18  19
HETATM   19  C   UNL     1      -0.390 -14.117 -39.779  1.00  0.00     0.019 C 
BRANCH  19  20
HETATM   20  C   UNL     1       0.814 -15.060 -39.721  1.00  0.00    -0.003 C 
HETATM   21  C   UNL     1       1.869 -14.658 -38.703  1.00  0.00     0.005 C 
ENDBRANCH  19  20
ENDBRANCH  18  19
ENDBRANCH  14  18
ENDBRANCH   1  12
BRANCH   4  22
HETATM   22  C   UNL     1      -6.181 -14.267 -35.794  1.00  0.00     0.058 A 
HETATM   23  C   UNL     1      -6.178 -13.571 -34.573  1.00  0.00     0.034 A 
HETATM   24  C   UNL     1      -6.641 -14.175 -33.401  1.00  0.00     0.039 A 
HETATM   25  C   UNL     1      -7.122 -15.480 -33.423  1.00  0.00     0.068 A 
HETATM   26  C   UNL     1      -7.187 -16.158 -34.638  1.00  0.00     0.039 A 
HETATM   27  C   UNL     1      -6.724 -15.555 -35.820  1.00  0.00     0.034 A 
BRANCH  25  28
HETATM   28  O   UNL     1      -7.511 -15.972 -32.208  1.00  0.00    -0.356 OA
HETATM   29  C   UNL     1      -6.622 -16.891 -31.584  1.00  0.00     0.210 C 
ENDBRANCH  25  28
ENDBRANCH   4  22
TORSDOF 6
ENDMDL
MODEL 7
REMARK VINA RESULT:      -7.2      2.993      4.028
REMARK  6 active torsions:
REMARK  status: ('A' for Active; 'I' for Inactive)
REMARK    1  A    between atoms: C_2  and  C_3 
REMARK    2  A    between atoms: C_3  and  C_4 
REMARK    3  A    between atoms: C_4  and  N_5 
REMARK       I    between atoms: N_5  and  C_6 
REMARK       I    between atoms: C_6  and  N_7 
REMARK    4  A    between atoms: N_7  and  C_8 
REMARK    5  A    between atoms: N_11  and  C_12 
REMARK    6  A    between atoms: C_15  and  O_16 
ROOT
HETATM    1  C   UNL     1      -3.323   6.442 -31.018  1.00  0.00     0.123 C 
HETATM    2  C   UNL     1      -4.002   5.121 -31.032  1.00  0.00     0.009 A 
HETATM    3  C   UNL     1      -3.662   4.063 -31.858  1.00  0.00     0.047 A 
HETATM    4  N   UNL     1      -4.412   2.971 -31.426  1.00  0.00    -0.238 N 
HETATM    5  N   UNL     1      -5.291   3.358 -30.453  1.00  0.00    -0.179 NA
HETATM    6  C   UNL     1      -5.026   4.637 -30.216  1.00  0.00     0.150 A 
HETATM    7  C   UNL     1      -2.640   4.129 -32.943  1.00  0.00     0.069 C 
HETATM    8  C   UNL     1      -1.792   5.445 -32.905  1.00  0.00    -0.040 C 
HETATM    9  C   UNL     1      -1.343   5.777 -34.346  1.00  0.00     0.015 C 
HETATM   10  C   UNL     1      -0.515   5.209 -32.071  1.00  0.00     0.015 C 
HETATM   11  C   UNL     1      -2.590   6.672 -32.356  1.00  0.00     0.039 C 
ENDROOT
BRANCH   1  12
HETATM   12  N   UNL     1      -2.437   6.420 -29.867  1.00  0.00    -0.334 N 
HETATM   13  C   UNL     1      -2.396   7.170 -28.748  1.00  0.00     0.316 C 
HETATM   14  N   UNL     1      -3.224   8.246 -28.691  1.00  0.00    -0.343 N 
HETATM   15  O   UNL     1      -1.619   6.855 -27.854  1.00  0.00    -0.247 OA
HETATM   16  H   UNL     1      -3.990   8.275 -29.342  1.00  0.00     0.164 HD
HETATM   17  H   UNL     1      -1.762   5.665 -29.820  1.00  0.00     0.165 HD
BRANCH  14  18
HETATM   18  C   UNL     1      -3.388   9.003 -27.465  1.00  0.00     0.124 C 
BRANCH  18  19
HETATM   19  C   UNL     1      -4.603   8.630 -26.610  1.00  0.00     0.019 C 
BRANCH  19  20
HETATM   20  C   UNL     1      -4.306   8.392 -25.128  1.00  0.00    -0.003 C 
HETATM   21  C   UNL     1      -2.834   8.177 -24.816  1.00  0.00     0.005 C 
ENDBRANCH  19  20
ENDBRANCH  18  19
ENDBRANCH  14  18
ENDBRANCH   1  12
BRANCH   4  22
HETATM   22  C   UNL     1      -4.348   1.584 -31.769  1.00  0.00     0.058 A 
HETATM   23  C   UNL     1      -3.350   0.794 -31.171  1.00  0.00     0.034 A 
HETATM   24  C   UNL     1      -3.168  -0.539 -31.547  1.00  0.00     0.039 A 
HETATM   25  C   UNL     1      -3.979  -1.115 -32.521  1.00  0.00     0.068 A 
HETATM   26  C   UNL     1      -5.010  -0.360 -33.076  1.00  0.00     0.039 A 
HETATM   27  C   UNL     1      -5.198   0.981 -32.700  1.00  0.00     0.034 A 
BRANCH  25  28
HETATM   28  O   UNL     1      -3.679  -2.412 -32.829  1.00  0.00    -0.356 OA
HETATM   29  C   UNL     1      -4.301  -2.947 -33.991  1.00  0.00     0.210 C 
ENDBRANCH  25  28
ENDBRANCH   4  22
TORSDOF 6
ENDMDL
MODEL 8
REMARK VINA RESULT:      -7.2      2.541      9.152
REMARK  6 active torsions:
REMARK  status: ('A' for Active; 'I' for Inactive)
REMARK    1  A    between atoms: C_2  and  C_3 
REMARK    2  A    between atoms: C_3  and  C_4 
REMARK    3  A    between atoms: C_4  and  N_5 
REMARK       I    between atoms: N_5  and  C_6 
REMARK       I    between atoms: C_6  and  N_7 
REMARK    4  A    between atoms: N_7  and  C_8 
REMARK    5  A    between atoms: N_11  and  C_12 
REMARK    6  A    between atoms: C_15  and  O_16 
ROOT
HETATM    1  C   UNL     1      -4.359   2.887 -32.847  1.00  0.00     0.123 C 
HETATM    2  C   UNL     1      -3.485   4.074 -32.663  1.00  0.00     0.009 A 
HETATM    3  C   UNL     1      -3.754   5.133 -31.813  1.00  0.00     0.047 A 
HETATM    4  N   UNL     1      -2.609   5.928 -31.801  1.00  0.00    -0.238 N 
HETATM    5  N   UNL     1      -1.703   5.464 -32.712  1.00  0.00    -0.179 NA
HETATM    6  C   UNL     1      -2.229   4.350 -33.208  1.00  0.00     0.150 A 
HETATM    7  C   UNL     1      -5.022   5.300 -31.042  1.00  0.00     0.069 C 
HETATM    8  C   UNL     1      -5.935   4.029 -31.084  1.00  0.00    -0.040 C 
HETATM    9  C   UNL     1      -7.406   4.482 -30.948  1.00  0.00     0.015 C 
HETATM   10  C   UNL     1      -5.619   3.131 -29.870  1.00  0.00     0.015 C 
HETATM   11  C   UNL     1      -5.801   3.223 -32.416  1.00  0.00     0.039 C 
ENDROOT
BRANCH   1  12
HETATM   12  N   UNL     1      -3.752   1.824 -32.067  1.00  0.00    -0.334 N 
HETATM   13  C   UNL     1      -3.783   0.482 -32.196  1.00  0.00     0.316 C 
HETATM   14  N   UNL     1      -4.630  -0.033 -33.125  1.00  0.00    -0.343 N 
HETATM   15  O   UNL     1      -3.064  -0.198 -31.472  1.00  0.00    -0.247 OA
HETATM   16  H   UNL     1      -4.977   0.593 -33.831  1.00  0.00     0.164 HD
HETATM   17  H   UNL     1      -3.115   2.100 -31.328  1.00  0.00     0.165 HD
BRANCH  14  18
HETATM   18  C   UNL     1      -4.601  -1.442 -33.467  1.00  0.00     0.124 C 
BRANCH  18  19
HETATM   19  C   UNL     1      -5.775  -1.947 -34.312  1.00  0.00     0.019 C 
BRANCH  19  20
HETATM   20  C   UNL     1      -5.521  -3.257 -35.061  1.00  0.00    -0.003 C 
HETATM   21  C   UNL     1      -6.661  -4.257 -34.966  1.00  0.00     0.005 C 
ENDBRANCH  19  20
ENDBRANCH  18  19
ENDBRANCH  14  18
ENDBRANCH   1  12
BRANCH   4  22
HETATM   22  C   UNL     1      -2.236   7.036 -30.976  1.00  0.00     0.058 A 
HETATM   23  C   UNL     1      -1.473   6.781 -29.823  1.00  0.00     0.034 A 
HETATM   24  C   UNL     1      -1.170   7.805 -28.922  1.00  0.00     0.039 A 
HETATM   25  C   UNL     1      -1.614   9.104 -29.154  1.00  0.00     0.068 A 
HETATM   26  C   UNL     1      -2.319   9.379 -30.324  1.00  0.00     0.039 A 
HETATM   27  C   UNL     1      -2.625   8.353 -31.234  1.00  0.00     0.034 A 
BRANCH  25  28
HETATM   28  O   UNL     1      -1.287  10.007 -28.183  1.00  0.00    -0.356 OA
HETATM   29  C   UNL     1      -1.456   9.579 -26.837  1.00  0.00     0.210 C 
ENDBRANCH  25  28
ENDBRANCH   4  22
TORSDOF 6
ENDMDL
MODEL 9
REMARK VINA RESULT:      -7.1      3.610      5.242
REMARK  6 active torsions:
REMARK  status: ('A' for Active; 'I' for Inactive)
REMARK    1  A    between atoms: C_2  and  C_3 
REMARK    2  A    between atoms: C_3  and  C_4 
REMARK    3  A    between atoms: C_4  and  N_5 
REMARK       I    between atoms: N_5  and  C_6 
REMARK       I    between atoms: C_6  and  N_7 
REMARK    4  A    between atoms: N_7  and  C_8 
REMARK    5  A    between atoms: N_11  and  C_12 
REMARK    6  A    between atoms: C_15  and  O_16 
ROOT
HETATM    1  C   UNL     1      -4.398   3.395 -32.502  1.00  0.00     0.123 C 
HETATM    2  C   UNL     1      -5.732   3.589 -33.124  1.00  0.00     0.009 A 
HETATM    3  C   UNL     1      -6.782   2.691 -33.047  1.00  0.00     0.047 A 
HETATM    4  N   UNL     1      -7.890   3.332 -33.598  1.00  0.00    -0.238 N 
HETATM    5  N   UNL     1      -7.522   4.538 -34.126  1.00  0.00    -0.179 NA
HETATM    6  C   UNL     1      -6.238   4.687 -33.824  1.00  0.00     0.150 A 
HETATM    7  C   UNL     1      -6.694   1.335 -32.427  1.00  0.00     0.069 C 
HETATM    8  C   UNL     1      -5.361   1.109 -31.637  1.00  0.00    -0.040 C 
HETATM    9  C   UNL     1      -5.018  -0.397 -31.680  1.00  0.00     0.015 C 
HETATM   10  C   UNL     1      -5.572   1.489 -30.157  1.00  0.00     0.015 C 
HETATM   11  C   UNL     1      -4.152   1.895 -32.241  1.00  0.00     0.039 C 
ENDROOT
BRANCH   1  12
HETATM   12  N   UNL     1      -4.403   4.201 -31.294  1.00  0.00    -0.334 N 
HETATM   13  C   UNL     1      -3.984   5.459 -31.049  1.00  0.00     0.316 C 
HETATM   14  N   UNL     1      -3.300   6.090 -32.039  1.00  0.00    -0.343 N 
HETATM   15  O   UNL     1      -4.228   5.961 -29.958  1.00  0.00    -0.247 OA
HETATM   16  H   UNL     1      -3.372   5.707 -32.967  1.00  0.00     0.164 HD
HETATM   17  H   UNL     1      -4.872   3.813 -30.484  1.00  0.00     0.165 HD
BRANCH  14  18
HETATM   18  C   UNL     1      -2.970   7.499 -31.944  1.00  0.00     0.124 C 
BRANCH  18  19
HETATM   19  C   UNL     1      -1.530   7.873 -32.309  1.00  0.00     0.019 C 
BRANCH  19  20
HETATM   20  C   UNL     1      -0.514   6.734 -32.196  1.00  0.00    -0.003 C 
HETATM   21  C   UNL     1       0.393   6.831 -30.980  1.00  0.00     0.005 C 
ENDBRANCH  19  20
ENDBRANCH  18  19
ENDBRANCH  14  18
ENDBRANCH   1  12
BRANCH   4  22
HETATM   22  C   UNL     1      -9.275   2.976 -33.620  1.00  0.00     0.058 A 
HETATM   23  C   UNL     1     -10.181   3.774 -32.900  1.00  0.00     0.034 A 
HETATM   24  C   UNL     1     -11.528   3.416 -32.795  1.00  0.00     0.039 A 
HETATM   25  C   UNL     1     -12.001   2.260 -33.409  1.00  0.00     0.068 A 
HETATM   26  C   UNL     1     -11.124   1.494 -34.175  1.00  0.00     0.039 A 
HETATM   27  C   UNL     1      -9.770   1.851 -34.285  1.00  0.00     0.034 A 
BRANCH  25  28
HETATM   28  O   UNL     1     -13.325   1.997 -33.202  1.00  0.00    -0.356 OA
HETATM   29  C   UNL     1     -14.035   2.925 -32.389  1.00  0.00     0.210 C 
ENDBRANCH  25  28
ENDBRANCH   4  22
TORSDOF 6
ENDMDL
MODEL 10
REMARK VINA RESULT:      -7.0     17.080     19.801
REMARK  6 active torsions:
REMARK  status: ('A' for Active; 'I' for Inactive)
REMARK    1  A    between atoms: C_2  and  C_3 
REMARK    2  A    between atoms: C_3  and  C_4 
REMARK    3  A    between atoms: C_4  and  N_5 
REMARK       I    between atoms: N_5  and  C_6 
REMARK       I    between atoms: C_6  and  N_7 
REMARK    4  A    between atoms: N_7  and  C_8 
REMARK    5  A    between atoms: N_11  and  C_12 
REMARK    6  A    between atoms: C_15  and  O_16 
ROOT
HETATM    1  C   UNL     1      -4.856 -12.759 -38.748  1.00  0.00     0.123 C 
HETATM    2  C   UNL     1      -4.873 -13.230 -40.157  1.00  0.00     0.009 A 
HETATM    3  C   UNL     1      -3.799 -13.804 -40.814  1.00  0.00     0.047 A 
HETATM    4  N   UNL     1      -4.286 -14.264 -42.036  1.00  0.00    -0.238 N 
HETATM    5  N   UNL     1      -5.586 -13.875 -42.201  1.00  0.00    -0.179 NA
HETATM    6  C   UNL     1      -5.929 -13.274 -41.069  1.00  0.00     0.150 A 
HETATM    7  C   UNL     1      -2.424 -13.927 -40.245  1.00  0.00     0.069 C 
HETATM    8  C   UNL     1      -2.359 -13.573 -38.721  1.00  0.00    -0.040 C 
HETATM    9  C   UNL     1      -0.950 -13.019 -38.410  1.00  0.00     0.015 C 
HETATM   10  C   UNL     1      -2.540 -14.859 -37.888  1.00  0.00     0.015 C 
HETATM   11  C   UNL     1      -3.405 -12.491 -38.300  1.00  0.00     0.039 C 
ENDROOT
BRANCH   1  12
HETATM   12  N   UNL     1      -5.520 -13.795 -37.976  1.00  0.00    -0.334 N 
HETATM   13  C   UNL     1      -6.823 -14.053 -37.748  1.00  0.00     0.316 C 
HETATM   14  N   UNL     1      -7.724 -13.131 -38.181  1.00  0.00    -0.343 N 
HETATM   15  O   UNL     1      -7.128 -15.085 -37.161  1.00  0.00    -0.247 OA
HETATM   16  H   UNL     1      -7.408 -12.462 -38.862  1.00  0.00     0.164 HD
HETATM   17  H   UNL     1      -4.935 -14.526 -37.588  1.00  0.00     0.165 HD
BRANCH  14  18
HETATM   18  C   UNL     1      -9.148 -13.401 -38.149  1.00  0.00     0.124 C 
BRANCH  18  19
HETATM   19  C   UNL     1      -9.877 -13.289 -39.492  1.00  0.00     0.019 C 
BRANCH  19  20
HETATM   20  C   UNL     1      -9.637 -11.985 -40.255  1.00  0.00    -0.003 C 
HETATM   21  C   UNL     1     -10.904 -11.204 -40.563  1.00  0.00     0.005 C 
ENDBRANCH  19  20
ENDBRANCH  18  19
ENDBRANCH  14  18
ENDBRANCH   1  12
BRANCH   4  22
HETATM   22  C   UNL     1      -3.693 -15.094 -43.039  1.00  0.00     0.058 A 
HETATM   23  C   UNL     1      -4.121 -14.941 -44.370  1.00  0.00     0.034 A 
HETATM   24  C   UNL     1      -3.660 -15.795 -45.375  1.00  0.00     0.039 A 
HETATM   25  C   UNL     1      -2.759 -16.814 -45.077  1.00  0.00     0.068 A 
HETATM   26  C   UNL     1      -2.282 -16.936 -43.773  1.00  0.00     0.039 A 
HETATM   27  C   UNL     1      -2.742 -16.078 -42.760  1.00  0.00     0.034 A 
BRANCH  25  28
HETATM   28  O   UNL     1      -2.412 -17.604 -46.136  1.00  0.00    -0.356 OA
HETATM   29  C   UNL     1      -2.317 -16.961 -47.401  1.00  0.00     0.210 C 
ENDBRANCH  25  28
ENDBRANCH   4  22
TORSDOF 6
ENDMDL
