MODEL 1
REMARK VINA RESULT:      -8.5      0.000      0.000
REMARK  5 active torsions:
REMARK  status: ('A' for Active; 'I' for Inactive)
REMARK    1  A    between atoms: C_8  and  C_9 
REMARK       I    between atoms: N_10  and  C_11 
REMARK       I    between atoms: C_11  and  N_12 
REMARK    2  A    between atoms: N_12  and  C_13 
REMARK    3  A    between atoms: C_15  and  O_16 
REMARK    4  A    between atoms: O_16  and  C_17 
REMARK    5  A    between atoms: C_17  and  C_18 
ROOT
HETATM    1  C   UNL     1      -1.428   5.110 -32.289  1.00  0.00     0.126 C 
HETATM    2  N   UNL     1      -2.725   4.536 -32.632  1.00  0.00    -0.325 N 
HETATM    3  C   UNL     1      -3.161   3.361 -32.034  1.00  0.00     0.323 C 
HETATM    4  N   UNL     1      -4.502   3.130 -32.268  1.00  0.00    -0.309 N 
HETATM    5  O   UNL     1      -2.428   2.665 -31.340  1.00  0.00    -0.247 OA
HETATM    6  C   UNL     1      -3.143   4.946 -33.966  1.00  0.00     0.128 C 
HETATM    7  C   UNL     1      -1.879   5.499 -34.605  1.00  0.00     0.022 C 
HETATM    8  C   UNL     1      -1.144   6.107 -33.420  1.00  0.00     0.032 C 
HETATM    9  H   UNL     1      -5.025   3.965 -32.481  1.00  0.00     0.170 HD
ENDROOT
BRANCH   4  10
HETATM   10  C   UNL     1      -5.248   2.018 -31.836  1.00  0.00     0.039 A 
HETATM   11  C   UNL     1      -5.859   1.230 -32.817  1.00  0.00     0.066 A 
HETATM   12  C   UNL     1      -6.650   0.133 -32.465  1.00  0.00     0.071 A 
HETATM   13  C   UNL     1      -6.767  -0.228 -31.124  1.00  0.00     0.037 A 
HETATM   14  C   UNL     1      -6.138   0.539 -30.141  1.00  0.00     0.005 A 
HETATM   15  C   UNL     1      -5.391   1.665 -30.494  1.00  0.00     0.030 A 
BRANCH  12  16
HETATM   16  O   UNL     1      -7.251  -0.503 -33.517  1.00  0.00    -0.347 OA
BRANCH  16  17
HETATM   17  C   UNL     1      -6.412  -0.818 -34.630  1.00  0.00     0.208 C 
BRANCH  17  18
HETATM   18  C   UNL     1      -5.948  -2.249 -34.490  1.00  0.00    -0.069 C 
HETATM   19  C   UNL     1      -4.510  -2.450 -34.103  1.00  0.00     0.044 C 
HETATM   20  C   UNL     1      -6.774  -3.290 -34.692  1.00  0.00     0.016 C 
ENDBRANCH  17  18
ENDBRANCH  16  17
ENDBRANCH  12  16
ENDBRANCH   4  10
BRANCH   1  21
HETATM   21  C   UNL     1      -1.444   5.779 -30.945  1.00  0.00     0.014 A 
HETATM   22  C   UNL     1      -0.488   5.645 -29.950  1.00  0.00     0.034 A 
HETATM   23  C   UNL     1       0.757   4.846 -29.881  1.00  0.00     0.070 C 
HETATM   24  N   UNL     1      -0.903   6.429 -28.912  1.00  0.00    -0.282 N 
HETATM   25  H   UNL     1      -0.460   6.560 -28.009  1.00  0.00     0.189 HD
HETATM   26  N   UNL     1      -2.026   7.107 -29.165  1.00  0.00    -0.179 NA
HETATM   27  C   UNL     1      -2.381   6.707 -30.392  1.00  0.00     0.061 A 
HETATM   28  C   UNL     1      -3.628   7.249 -30.990  1.00  0.00     0.073 C 
ENDBRANCH   1  21
TORSDOF 5
ENDMDL
MODEL 2
REMARK VINA RESULT:      -8.3      5.393      8.027
REMARK  5 active torsions:
REMARK  status: ('A' for Active; 'I' for Inactive)
REMARK    1  A    between atoms: C_8  and  C_9 
REMARK       I    between atoms: N_10  and  C_11 
REMARK       I    between atoms: C_11  and  N_12 
REMARK    2  A    between atoms: N_12  and  C_13 
REMARK    3  A    between atoms: C_15  and  O_16 
REMARK    4  A    between atoms: O_16  and  C_17 
REMARK    5  A    between atoms: C_17  and  C_18 
ROOT
HETATM    1  C   UNL     1     -11.344   2.829 -32.478  1.00  0.00     0.126 C 
HETATM    2  N   UNL     1      -9.895   2.766 -32.322  1.00  0.00    -0.325 N 
HETATM    3  C   UNL     1      -9.227   1.551 -32.376  1.00  0.00     0.323 C 
HETATM    4  N   UNL     1      -7.861   1.716 -32.490  1.00  0.00    -0.309 N 
HETATM    5  O   UNL     1      -9.818   0.476 -32.380  1.00  0.00    -0.247 OA
HETATM    6  C   UNL     1      -9.401   3.906 -31.560  1.00  0.00     0.128 C 
HETATM    7  C   UNL     1     -10.644   4.495 -30.913  1.00  0.00     0.022 C 
HETATM    8  C   UNL     1     -11.723   4.218 -31.949  1.00  0.00     0.032 C 
HETATM    9  H   UNL     1      -7.593   2.606 -32.882  1.00  0.00     0.170 HD
ENDROOT
BRANCH   4  10
HETATM   10  C   UNL     1      -6.894   0.696 -32.535  1.00  0.00     0.039 A 
HETATM   11  C   UNL     1      -6.820  -0.072 -33.703  1.00  0.00     0.066 A 
HETATM   12  C   UNL     1      -5.914  -1.130 -33.808  1.00  0.00     0.071 A 
HETATM   13  C   UNL     1      -5.018  -1.374 -32.768  1.00  0.00     0.037 A 
HETATM   14  C   UNL     1      -5.069  -0.594 -31.611  1.00  0.00     0.005 A 
HETATM   15  C   UNL     1      -6.011   0.429 -31.489  1.00  0.00     0.030 A 
BRANCH  12  16
HETATM   16  O   UNL     1      -6.000  -1.846 -34.971  1.00  0.00    -0.347 OA
BRANCH  16  17
HETATM   17  C   UNL     1      -4.959  -2.796 -35.209  1.00  0.00     0.208 C 
BRANCH  17  18
HETATM   18  C   UNL     1      -5.505  -4.180 -34.946  1.00  0.00    -0.069 C 
HETATM   19  C   UNL     1      -4.596  -5.131 -34.221  1.00  0.00     0.044 C 
HETATM   20  C   UNL     1      -6.741  -4.545 -35.330  1.00  0.00     0.016 C 
ENDBRANCH  17  18
ENDBRANCH  16  17
ENDBRANCH  12  16
ENDBRANCH   4  10
BRANCH   1  21
HETATM   21  C   UNL     1     -11.767   2.641 -33.907  1.00  0.00     0.014 A 
HETATM   22  C   UNL     1     -11.367   3.411 -34.989  1.00  0.00     0.034 A 
HETATM   23  C   UNL     1     -10.476   4.589 -35.084  1.00  0.00     0.070 C 
HETATM   24  N   UNL     1     -11.990   2.884 -36.084  1.00  0.00    -0.282 N 
HETATM   25  H   UNL     1     -11.946   3.205 -37.045  1.00  0.00     0.189 HD
HETATM   26  N   UNL     1     -12.725   1.800 -35.816  1.00  0.00    -0.179 NA
HETATM   27  C   UNL     1     -12.617   1.651 -34.490  1.00  0.00     0.061 A 
HETATM   28  C   UNL     1     -13.347   0.537 -33.833  1.00  0.00     0.073 C 
ENDBRANCH   1  21
TORSDOF 5
ENDMDL
MODEL 3
REMARK VINA RESULT:      -8.1      2.234      8.443
REMARK  5 active torsions:
REMARK  status: ('A' for Active; 'I' for Inactive)
REMARK    1  A    between atoms: C_8  and  C_9 
REMARK       I    between atoms: N_10  and  C_11 
REMARK       I    between atoms: C_11  and  N_12 
REMARK    2  A    between atoms: N_12  and  C_13 
REMARK    3  A    between atoms: C_15  and  O_16 
REMARK    4  A    between atoms: O_16  and  C_17 
REMARK    5  A    between atoms: C_17  and  C_18 
ROOT
HETATM    1  C   UNL     1      -5.474  -0.043 -31.644  1.00  0.00     0.126 C 
HETATM    2  N   UNL     1      -5.197   1.388 -31.578  1.00  0.00    -0.325 N 
HETATM    3  C   UNL     1      -4.124   1.937 -32.267  1.00  0.00     0.323 C 
HETATM    4  N   UNL     1      -4.189   3.315 -32.312  1.00  0.00    -0.309 N 
HETATM    5  O   UNL     1      -3.269   1.244 -32.810  1.00  0.00    -0.247 OA
HETATM    6  C   UNL     1      -5.726   1.967 -30.349  1.00  0.00     0.128 C 
HETATM    7  C   UNL     1      -6.017   0.768 -29.461  1.00  0.00     0.022 C 
HETATM    8  C   UNL     1      -6.421  -0.302 -30.465  1.00  0.00     0.032 C 
HETATM    9  H   UNL     1      -5.122   3.679 -32.195  1.00  0.00     0.170 HD
ENDROOT
BRANCH   4  10
HETATM   10  C   UNL     1      -3.248   4.179 -32.900  1.00  0.00     0.039 A 
HETATM   11  C   UNL     1      -2.080   4.449 -32.180  1.00  0.00     0.066 A 
HETATM   12  C   UNL     1      -1.117   5.330 -32.679  1.00  0.00     0.071 A 
HETATM   13  C   UNL     1      -1.284   5.885 -33.947  1.00  0.00     0.037 A 
HETATM   14  C   UNL     1      -2.436   5.597 -34.683  1.00  0.00     0.005 A 
HETATM   15  C   UNL     1      -3.420   4.758 -34.157  1.00  0.00     0.030 A 
BRANCH  12  16
HETATM   16  O   UNL     1      -0.063   5.565 -31.839  1.00  0.00    -0.347 OA
BRANCH  16  17
HETATM   17  C   UNL     1      -0.030   6.845 -31.205  1.00  0.00     0.208 C 
BRANCH  17  18
HETATM   18  C   UNL     1       0.400   6.657 -29.769  1.00  0.00    -0.069 C 
HETATM   19  C   UNL     1       0.623   5.241 -29.318  1.00  0.00     0.044 C 
HETATM   20  C   UNL     1       0.582   7.696 -28.936  1.00  0.00     0.016 C 
ENDBRANCH  17  18
ENDBRANCH  16  17
ENDBRANCH  12  16
ENDBRANCH   4  10
BRANCH   1  21
HETATM   21  C   UNL     1      -6.091  -0.439 -32.954  1.00  0.00     0.014 A 
HETATM   22  C   UNL     1      -7.255   0.079 -33.503  1.00  0.00     0.034 A 
HETATM   23  C   UNL     1      -8.208   1.099 -33.008  1.00  0.00     0.070 C 
HETATM   24  N   UNL     1      -7.436  -0.564 -34.693  1.00  0.00    -0.282 N 
HETATM   25  H   UNL     1      -8.196  -0.454 -35.356  1.00  0.00     0.189 HD
HETATM   26  N   UNL     1      -6.458  -1.423 -34.995  1.00  0.00    -0.179 NA
HETATM   27  C   UNL     1      -5.641  -1.375 -33.937  1.00  0.00     0.061 A 
HETATM   28  C   UNL     1      -4.438  -2.245 -33.920  1.00  0.00     0.073 C 
ENDBRANCH   1  21
TORSDOF 5
ENDMDL
MODEL 4
REMARK VINA RESULT:      -8.0      6.146      8.328
REMARK  5 active torsions:
REMARK  status: ('A' for Active; 'I' for Inactive)
REMARK    1  A    between atoms: C_8  and  C_9 
REMARK       I    between atoms: N_10  and  C_11 
REMARK       I    between atoms: C_11  and  N_12 
REMARK    2  A    between atoms: N_12  and  C_13 
REMARK    3  A    between atoms: C_15  and  O_16 
REMARK    4  A    between atoms: O_16  and  C_17 
REMARK    5  A    between atoms: C_17  and  C_18 
ROOT
HETATM    1  C   UNL     1     -12.316   2.463 -34.359  1.00  0.00     0.126 C 
HETATM    2  N   UNL     1     -11.615   1.374 -33.688  1.00  0.00    -0.325 N 
HETATM    3  C   UNL     1     -10.232   1.272 -33.754  1.00  0.00     0.323 C 
HETATM    4  N   UNL     1      -9.737   0.361 -32.842  1.00  0.00    -0.309 N 
HETATM    5  O   UNL     1      -9.558   1.968 -34.505  1.00  0.00    -0.247 OA
HETATM    6  C   UNL     1     -12.486   0.217 -33.519  1.00  0.00     0.128 C 
HETATM    7  C   UNL     1     -13.654   0.484 -34.454  1.00  0.00     0.022 C 
HETATM    8  C   UNL     1     -13.778   2.000 -34.410  1.00  0.00     0.032 C 
HETATM    9  H   UNL     1     -10.349   0.204 -32.056  1.00  0.00     0.170 HD
ENDROOT
BRANCH   4  10
HETATM   10  C   UNL     1      -8.390  -0.004 -32.671  1.00  0.00     0.039 A 
HETATM   11  C   UNL     1      -7.776  -0.714 -33.708  1.00  0.00     0.066 A 
HETATM   12  C   UNL     1      -6.453  -1.148 -33.595  1.00  0.00     0.071 A 
HETATM   13  C   UNL     1      -5.709  -0.801 -32.468  1.00  0.00     0.037 A 
HETATM   14  C   UNL     1      -6.308  -0.069 -31.440  1.00  0.00     0.005 A 
HETATM   15  C   UNL     1      -7.647   0.318 -31.535  1.00  0.00     0.030 A 
BRANCH  12  16
HETATM   16  O   UNL     1      -6.002  -1.898 -34.646  1.00  0.00    -0.347 OA
BRANCH  16  17
HETATM   17  C   UNL     1      -4.810  -2.652 -34.423  1.00  0.00     0.208 C 
BRANCH  17  18
HETATM   18  C   UNL     1      -5.146  -4.122 -34.527  1.00  0.00    -0.069 C 
HETATM   19  C   UNL     1      -6.406  -4.468 -35.268  1.00  0.00     0.044 C 
HETATM   20  C   UNL     1      -4.361  -5.074 -33.992  1.00  0.00     0.016 C 
ENDBRANCH  17  18
ENDBRANCH  16  17
ENDBRANCH  12  16
ENDBRANCH   4  10
BRANCH   1  21
HETATM   21  C   UNL     1     -12.169   3.766 -33.628  1.00  0.00     0.014 A 
HETATM   22  C   UNL     1     -11.443   4.869 -34.053  1.00  0.00     0.034 A 
HETATM   23  C   UNL     1     -10.623   5.101 -35.264  1.00  0.00     0.070 C 
HETATM   24  N   UNL     1     -11.590   5.820 -33.084  1.00  0.00    -0.282 N 
HETATM   25  H   UNL     1     -11.181   6.748 -33.050  1.00  0.00     0.189 HD
HETATM   26  N   UNL     1     -12.395   5.450 -32.084  1.00  0.00    -0.179 NA
HETATM   27  C   UNL     1     -12.740   4.193 -32.389  1.00  0.00     0.061 A 
HETATM   28  C   UNL     1     -13.625   3.447 -31.458  1.00  0.00     0.073 C 
ENDBRANCH   1  21
TORSDOF 5
ENDMDL
MODEL 5
REMARK VINA RESULT:      -7.9      2.285      8.075
REMARK  5 active torsions:
REMARK  status: ('A' for Active; 'I' for Inactive)
REMARK    1  A    between atoms: C_8  and  C_9 
REMARK       I    between atoms: N_10  and  C_11 
REMARK       I    between atoms: C_11  and  N_12 
REMARK    2  A    between atoms: N_12  and  C_13 
REMARK    3  A    between atoms: C_15  and  O_16 
REMARK    4  A    between atoms: O_16  and  C_17 
REMARK    5  A    between atoms: C_17  and  C_18 
ROOT
HETATM    1  C   UNL     1      -5.568   0.794 -31.668  1.00  0.00     0.126 C 
HETATM    2  N   UNL     1      -5.408   2.171 -32.120  1.00  0.00    -0.325 N 
HETATM    3  C   UNL     1      -4.145   2.726 -32.274  1.00  0.00     0.323 C 
HETATM    4  N   UNL     1      -4.185   3.920 -32.966  1.00  0.00    -0.309 N 
HETATM    5  O   UNL     1      -3.128   2.164 -31.879  1.00  0.00    -0.247 OA
HETATM    6  C   UNL     1      -6.587   2.967 -31.802  1.00  0.00     0.128 C 
HETATM    7  C   UNL     1      -7.347   2.127 -30.788  1.00  0.00     0.022 C 
HETATM    8  C   UNL     1      -7.036   0.706 -31.232  1.00  0.00     0.032 C 
HETATM    9  H   UNL     1      -4.997   4.017 -33.556  1.00  0.00     0.170 HD
ENDROOT
BRANCH   4  10
HETATM   10  C   UNL     1      -3.092   4.753 -33.264  1.00  0.00     0.039 A 
HETATM   11  C   UNL     1      -2.660   5.633 -32.266  1.00  0.00     0.066 A 
HETATM   12  C   UNL     1      -1.607   6.522 -32.500  1.00  0.00     0.071 A 
HETATM   13  C   UNL     1      -0.925   6.475 -33.715  1.00  0.00     0.037 A 
HETATM   14  C   UNL     1      -1.334   5.579 -34.705  1.00  0.00     0.005 A 
HETATM   15  C   UNL     1      -2.420   4.730 -34.486  1.00  0.00     0.030 A 
BRANCH  12  16
HETATM   16  O   UNL     1      -1.340   7.379 -31.468  1.00  0.00    -0.347 OA
BRANCH  16  17
HETATM   17  C   UNL     1      -1.440   6.837 -30.150  1.00  0.00     0.208 C 
BRANCH  17  18
HETATM   18  C   UNL     1      -0.044   6.601 -29.622  1.00  0.00    -0.069 C 
HETATM   19  C   UNL     1       0.511   5.216 -29.796  1.00  0.00     0.044 C 
HETATM   20  C   UNL     1       0.671   7.575 -29.033  1.00  0.00     0.016 C 
ENDBRANCH  17  18
ENDBRANCH  16  17
ENDBRANCH  12  16
ENDBRANCH   4  10
BRANCH   1  21
HETATM   21  C   UNL     1      -5.246  -0.197 -32.749  1.00  0.00     0.014 A 
HETATM   22  C   UNL     1      -4.219  -1.129 -32.729  1.00  0.00     0.034 A 
HETATM   23  C   UNL     1      -3.172  -1.420 -31.723  1.00  0.00     0.070 C 
HETATM   24  N   UNL     1      -4.302  -1.814 -33.907  1.00  0.00    -0.282 N 
HETATM   25  H   UNL     1      -3.700  -2.557 -34.244  1.00  0.00     0.189 HD
HETATM   26  N   UNL     1      -5.332  -1.444 -34.674  1.00  0.00    -0.179 NA
HETATM   27  C   UNL     1      -5.905  -0.445 -33.993  1.00  0.00     0.061 A 
HETATM   28  C   UNL     1      -7.087   0.237 -34.580  1.00  0.00     0.073 C 
ENDBRANCH   1  21
TORSDOF 5
ENDMDL
MODEL 6
REMARK VINA RESULT:      -7.7      5.747      8.639
REMARK  5 active torsions:
REMARK  status: ('A' for Active; 'I' for Inactive)
REMARK    1  A    between atoms: C_8  and  C_9 
REMARK       I    between atoms: N_10  and  C_11 
REMARK       I    between atoms: C_11  and  N_12 
REMARK    2  A    between atoms: N_12  and  C_13 
REMARK    3  A    between atoms: C_15  and  O_16 
REMARK    4  A    between atoms: O_16  and  C_17 
REMARK    5  A    between atoms: C_17  and  C_18 
ROOT
HETATM    1  C   UNL     1     -12.166   4.426 -33.506  1.00  0.00     0.126 C 
HETATM    2  N   UNL     1     -11.041   3.895 -34.266  1.00  0.00    -0.325 N 
HETATM    3  C   UNL     1      -9.994   3.246 -33.625  1.00  0.00     0.323 C 
HETATM    4  N   UNL     1      -9.178   2.577 -34.515  1.00  0.00    -0.309 N 
HETATM    5  O   UNL     1      -9.873   3.241 -32.404  1.00  0.00    -0.247 OA
HETATM    6  C   UNL     1     -10.874   4.611 -35.525  1.00  0.00     0.128 C 
HETATM    7  C   UNL     1     -11.708   5.871 -35.356  1.00  0.00     0.022 C 
HETATM    8  C   UNL     1     -12.855   5.397 -34.475  1.00  0.00     0.032 C 
HETATM    9  H   UNL     1      -9.634   2.341 -35.383  1.00  0.00     0.170 HD
ENDROOT
BRANCH   4  10
HETATM   10  C   UNL     1      -8.015   1.850 -34.202  1.00  0.00     0.039 A 
HETATM   11  C   UNL     1      -7.828   0.622 -34.845  1.00  0.00     0.066 A 
HETATM   12  C   UNL     1      -6.719  -0.177 -34.557  1.00  0.00     0.071 A 
HETATM   13  C   UNL     1      -5.745   0.292 -33.676  1.00  0.00     0.037 A 
HETATM   14  C   UNL     1      -5.912   1.529 -33.051  1.00  0.00     0.005 A 
HETATM   15  C   UNL     1      -7.048   2.301 -33.304  1.00  0.00     0.030 A 
BRANCH  12  16
HETATM   16  O   UNL     1      -6.699  -1.386 -35.197  1.00  0.00    -0.347 OA
BRANCH  16  17
HETATM   17  C   UNL     1      -6.945  -2.536 -34.386  1.00  0.00     0.208 C 
BRANCH  17  18
HETATM   18  C   UNL     1      -5.948  -3.608 -34.762  1.00  0.00    -0.069 C 
HETATM   19  C   UNL     1      -4.532  -3.394 -34.308  1.00  0.00     0.044 C 
HETATM   20  C   UNL     1      -6.304  -4.701 -35.460  1.00  0.00     0.016 C 
ENDBRANCH  17  18
ENDBRANCH  16  17
ENDBRANCH  12  16
ENDBRANCH   4  10
BRANCH   1  21
HETATM   21  C   UNL     1     -13.098   3.344 -33.044  1.00  0.00     0.014 A 
HETATM   22  C   UNL     1     -13.814   3.328 -31.856  1.00  0.00     0.034 A 
HETATM   23  C   UNL     1     -13.877   4.288 -30.731  1.00  0.00     0.070 C 
HETATM   24  N   UNL     1     -14.526   2.163 -31.855  1.00  0.00    -0.282 N 
HETATM   25  H   UNL     1     -15.146   1.808 -31.134  1.00  0.00     0.189 HD
HETATM   26  N   UNL     1     -14.377   1.439 -32.968  1.00  0.00    -0.179 NA
HETATM   27  C   UNL     1     -13.494   2.133 -33.694  1.00  0.00     0.061 A 
HETATM   28  C   UNL     1     -13.065   1.593 -35.010  1.00  0.00     0.073 C 
ENDBRANCH   1  21
TORSDOF 5
ENDMDL
MODEL 7
REMARK VINA RESULT:      -7.6      1.583      2.423
REMARK  5 active torsions:
REMARK  status: ('A' for Active; 'I' for Inactive)
REMARK    1  A    between atoms: C_8  and  C_9 
REMARK       I    between atoms: N_10  and  C_11 
REMARK       I    between atoms: C_11  and  N_12 
REMARK    2  A    between atoms: N_12  and  C_13 
REMARK    3  A    between atoms: C_15  and  O_16 
REMARK    4  A    between atoms: O_16  and  C_17 
REMARK    5  A    between atoms: C_17  and  C_18 
ROOT
HETATM    1  C   UNL     1      -1.683   6.496 -31.108  1.00  0.00     0.126 C 
HETATM    2  N   UNL     1      -3.002   5.877 -31.039  1.00  0.00    -0.325 N 
HETATM    3  C   UNL     1      -3.154   4.509 -31.213  1.00  0.00     0.323 C 
HETATM    4  N   UNL     1      -4.411   4.076 -30.839  1.00  0.00    -0.309 N 
HETATM    5  O   UNL     1      -2.238   3.790 -31.600  1.00  0.00    -0.247 OA
HETATM    6  C   UNL     1      -4.048   6.837 -31.369  1.00  0.00     0.128 C 
HETATM    7  C   UNL     1      -3.308   7.993 -32.021  1.00  0.00     0.022 C 
HETATM    8  C   UNL     1      -1.974   7.992 -31.290  1.00  0.00     0.032 C 
HETATM    9  H   UNL     1      -4.868   4.687 -30.180  1.00  0.00     0.170 HD
ENDROOT
BRANCH   4  10
HETATM   10  C   UNL     1      -4.903   2.761 -30.920  1.00  0.00     0.039 A 
HETATM   11  C   UNL     1      -4.915   2.152 -32.179  1.00  0.00     0.066 A 
HETATM   12  C   UNL     1      -5.426   0.863 -32.347  1.00  0.00     0.071 A 
HETATM   13  C   UNL     1      -5.857   0.143 -31.233  1.00  0.00     0.037 A 
HETATM   14  C   UNL     1      -5.822   0.736 -29.969  1.00  0.00     0.005 A 
HETATM   15  C   UNL     1      -5.359   2.044 -29.814  1.00  0.00     0.030 A 
BRANCH  12  16
HETATM   16  O   UNL     1      -5.451   0.418 -33.640  1.00  0.00    -0.347 OA
BRANCH  16  17
HETATM   17  C   UNL     1      -5.296  -0.989 -33.830  1.00  0.00     0.208 C 
BRANCH  17  18
HETATM   18  C   UNL     1      -6.529  -1.516 -34.527  1.00  0.00    -0.069 C 
HETATM   19  C   UNL     1      -7.444  -0.491 -35.134  1.00  0.00     0.044 C 
HETATM   20  C   UNL     1      -6.795  -2.831 -34.610  1.00  0.00     0.016 C 
ENDBRANCH  17  18
ENDBRANCH  16  17
ENDBRANCH  12  16
ENDBRANCH   4  10
BRANCH   1  21
HETATM   21  C   UNL     1      -0.869   6.232 -29.874  1.00  0.00     0.014 A 
HETATM   22  C   UNL     1      -1.186   6.625 -28.582  1.00  0.00     0.034 A 
HETATM   23  C   UNL     1      -2.332   7.389 -28.038  1.00  0.00     0.070 C 
HETATM   24  N   UNL     1      -0.174   6.172 -27.786  1.00  0.00    -0.282 N 
HETATM   25  H   UNL     1      -0.061   6.293 -26.785  1.00  0.00     0.189 HD
HETATM   26  N   UNL     1       0.754   5.469 -28.442  1.00  0.00    -0.179 NA
HETATM   27  C   UNL     1       0.357   5.514 -29.719  1.00  0.00     0.061 A 
HETATM   28  C   UNL     1       1.190   4.847 -30.752  1.00  0.00     0.073 C 
ENDBRANCH   1  21
TORSDOF 5
ENDMDL
MODEL 8
REMARK VINA RESULT:      -7.6      2.431      8.062
REMARK  5 active torsions:
REMARK  status: ('A' for Active; 'I' for Inactive)
REMARK    1  A    between atoms: C_8  and  C_9 
REMARK       I    between atoms: N_10  and  C_11 
REMARK       I    between atoms: C_11  and  N_12 
REMARK    2  A    between atoms: N_12  and  C_13 
REMARK    3  A    between atoms: C_15  and  O_16 
REMARK    4  A    between atoms: O_16  and  C_17 
REMARK    5  A    between atoms: C_17  and  C_18 
ROOT
HETATM    1  C   UNL     1      -6.449   1.207 -32.923  1.00  0.00     0.126 C 
HETATM    2  N   UNL     1      -5.043   1.523 -32.698  1.00  0.00    -0.325 N 
HETATM    3  C   UNL     1      -4.540   2.780 -33.004  1.00  0.00     0.323 C 
HETATM    4  N   UNL     1      -3.281   2.977 -32.471  1.00  0.00    -0.309 N 
HETATM    5  O   UNL     1      -5.189   3.613 -33.628  1.00  0.00    -0.247 OA
HETATM    6  C   UNL     1      -4.225   0.317 -32.724  1.00  0.00     0.128 C 
HETATM    7  C   UNL     1      -5.124  -0.736 -33.354  1.00  0.00     0.022 C 
HETATM    8  C   UNL     1      -6.507  -0.325 -32.872  1.00  0.00     0.032 C 
HETATM    9  H   UNL     1      -3.085   2.391 -31.674  1.00  0.00     0.170 HD
ENDROOT
BRANCH   4  10
HETATM   10  C   UNL     1      -2.478   4.122 -32.620  1.00  0.00     0.039 A 
HETATM   11  C   UNL     1      -2.045   4.763 -31.455  1.00  0.00     0.066 A 
HETATM   12  C   UNL     1      -1.278   5.930 -31.521  1.00  0.00     0.071 A 
HETATM   13  C   UNL     1      -0.873   6.417 -32.763  1.00  0.00     0.037 A 
HETATM   14  C   UNL     1      -1.281   5.766 -33.929  1.00  0.00     0.005 A 
HETATM   15  C   UNL     1      -2.090   4.630 -33.860  1.00  0.00     0.030 A 
BRANCH  12  16
HETATM   16  O   UNL     1      -0.989   6.496 -30.310  1.00  0.00    -0.347 OA
BRANCH  16  17
HETATM   17  C   UNL     1       0.326   7.036 -30.161  1.00  0.00     0.208 C 
BRANCH  17  18
HETATM   18  C   UNL     1       0.612   7.199 -28.686  1.00  0.00    -0.069 C 
HETATM   19  C   UNL     1       0.244   6.042 -27.802  1.00  0.00     0.044 C 
HETATM   20  C   UNL     1       1.171   8.315 -28.186  1.00  0.00     0.016 C 
ENDBRANCH  17  18
ENDBRANCH  16  17
ENDBRANCH  12  16
ENDBRANCH   4  10
BRANCH   1  21
HETATM   21  C   UNL     1      -7.341   1.834 -31.890  1.00  0.00     0.014 A 
HETATM   22  C   UNL     1      -7.096   1.901 -30.526  1.00  0.00     0.034 A 
HETATM   23  C   UNL     1      -5.973   1.402 -29.701  1.00  0.00     0.070 C 
HETATM   24  N   UNL     1      -8.163   2.554 -29.978  1.00  0.00    -0.282 N 
HETATM   25  H   UNL     1      -8.334   2.766 -29.001  1.00  0.00     0.189 HD
HETATM   26  N   UNL     1      -9.061   2.967 -30.877  1.00  0.00    -0.179 NA
HETATM   27  C   UNL     1      -8.587   2.517 -32.045  1.00  0.00     0.061 A 
HETATM   28  C   UNL     1      -9.367   2.775 -33.283  1.00  0.00     0.073 C 
ENDBRANCH   1  21
TORSDOF 5
ENDMDL
MODEL 9
REMARK VINA RESULT:      -7.5      5.908      7.643
REMARK  5 active torsions:
REMARK  status: ('A' for Active; 'I' for Inactive)
REMARK    1  A    between atoms: C_8  and  C_9 
REMARK       I    between atoms: N_10  and  C_11 
REMARK       I    between atoms: C_11  and  N_12 
REMARK    2  A    between atoms: N_12  and  C_13 
REMARK    3  A    between atoms: C_15  and  O_16 
REMARK    4  A    between atoms: O_16  and  C_17 
REMARK    5  A    between atoms: C_17  and  C_18 
ROOT
HETATM    1  C   UNL     1     -11.678   3.650 -33.827  1.00  0.00     0.126 C 
HETATM    2  N   UNL     1     -11.188   2.324 -33.468  1.00  0.00    -0.325 N 
HETATM    3  C   UNL     1      -9.828   2.047 -33.462  1.00  0.00     0.323 C 
HETATM    4  N   UNL     1      -9.546   0.849 -32.835  1.00  0.00    -0.309 N 
HETATM    5  O   UNL     1      -8.997   2.826 -33.918  1.00  0.00    -0.247 OA
HETATM    6  C   UNL     1     -12.200   1.305 -33.720  1.00  0.00     0.128 C 
HETATM    7  C   UNL     1     -13.219   1.997 -34.611  1.00  0.00     0.022 C 
HETATM    8  C   UNL     1     -13.169   3.437 -34.121  1.00  0.00     0.032 C 
HETATM    9  H   UNL     1     -10.256   0.561 -32.180  1.00  0.00     0.170 HD
ENDROOT
BRANCH   4  10
HETATM   10  C   UNL     1      -8.278   0.260 -32.686  1.00  0.00     0.039 A 
HETATM   11  C   UNL     1      -7.774  -0.469 -33.768  1.00  0.00     0.066 A 
HETATM   12  C   UNL     1      -6.539  -1.118 -33.682  1.00  0.00     0.071 A 
HETATM   13  C   UNL     1      -5.765  -0.973 -32.532  1.00  0.00     0.037 A 
HETATM   14  C   UNL     1      -6.252  -0.224 -31.458  1.00  0.00     0.005 A 
HETATM   15  C   UNL     1      -7.508   0.380 -31.529  1.00  0.00     0.030 A 
BRANCH  12  16
HETATM   16  O   UNL     1      -6.202  -1.859 -34.781  1.00  0.00    -0.347 OA
BRANCH  16  17
HETATM   17  C   UNL     1      -5.040  -2.682 -34.659  1.00  0.00     0.208 C 
BRANCH  17  18
HETATM   18  C   UNL     1      -5.469  -4.129 -34.738  1.00  0.00    -0.069 C 
HETATM   19  C   UNL     1      -4.540  -5.135 -34.120  1.00  0.00     0.044 C 
HETATM   20  C   UNL     1      -6.621  -4.502 -35.321  1.00  0.00     0.016 C 
ENDBRANCH  17  18
ENDBRANCH  16  17
ENDBRANCH  12  16
ENDBRANCH   4  10
BRANCH   1  21
HETATM   21  C   UNL     1     -11.463   4.649 -32.728  1.00  0.00     0.014 A 
HETATM   22  C   UNL     1     -12.127   4.686 -31.511  1.00  0.00     0.034 A 
HETATM   23  C   UNL     1     -13.196   3.831 -30.946  1.00  0.00     0.070 C 
HETATM   24  N   UNL     1     -11.615   5.751 -30.828  1.00  0.00    -0.282 N 
HETATM   25  H   UNL     1     -11.878   6.093 -29.910  1.00  0.00     0.189 HD
HETATM   26  N   UNL     1     -10.632   6.384 -31.475  1.00  0.00    -0.179 NA
HETATM   27  C   UNL     1     -10.541   5.739 -32.644  1.00  0.00     0.061 A 
HETATM   28  C   UNL     1      -9.548   6.205 -33.645  1.00  0.00     0.073 C 
ENDBRANCH   1  21
TORSDOF 5
ENDMDL
MODEL 10
REMARK VINA RESULT:      -7.5      2.587      8.373
REMARK  5 active torsions:
REMARK  status: ('A' for Active; 'I' for Inactive)
REMARK    1  A    between atoms: C_8  and  C_9 
REMARK       I    between atoms: N_10  and  C_11 
REMARK       I    between atoms: C_11  and  N_12 
REMARK    2  A    between atoms: N_12  and  C_13 
REMARK    3  A    between atoms: C_15  and  O_16 
REMARK    4  A    between atoms: O_16  and  C_17 
REMARK    5  A    between atoms: C_17  and  C_18 
ROOT
HETATM    1  C   UNL     1      -5.931   1.324 -31.897  1.00  0.00     0.126 C 
HETATM    2  N   UNL     1      -5.709   2.649 -32.465  1.00  0.00    -0.325 N 
HETATM    3  C   UNL     1      -4.430   3.184 -32.540  1.00  0.00     0.323 C 
HETATM    4  N   UNL     1      -4.384   4.302 -33.348  1.00  0.00    -0.309 N 
HETATM    5  O   UNL     1      -3.467   2.663 -31.986  1.00  0.00    -0.247 OA
HETATM    6  C   UNL     1      -6.905   3.474 -32.353  1.00  0.00     0.128 C 
HETATM    7  C   UNL     1      -7.777   2.742 -31.346  1.00  0.00     0.022 C 
HETATM    8  C   UNL     1      -7.438   1.282 -31.611  1.00  0.00     0.032 C 
HETATM    9  H   UNL     1      -5.129   4.341 -34.027  1.00  0.00     0.170 HD
ENDROOT
BRANCH   4  10
HETATM   10  C   UNL     1      -3.256   5.100 -33.611  1.00  0.00     0.039 A 
HETATM   11  C   UNL     1      -3.180   6.342 -32.972  1.00  0.00     0.066 A 
HETATM   12  C   UNL     1      -2.110   7.209 -33.213  1.00  0.00     0.071 A 
HETATM   13  C   UNL     1      -1.066   6.798 -34.040  1.00  0.00     0.037 A 
HETATM   14  C   UNL     1      -1.123   5.548 -34.660  1.00  0.00     0.005 A 
HETATM   15  C   UNL     1      -2.219   4.707 -34.457  1.00  0.00     0.030 A 
BRANCH  12  16
HETATM   16  O   UNL     1      -2.200   8.420 -32.585  1.00  0.00    -0.347 OA
BRANCH  16  17
HETATM   17  C   UNL     1      -3.026   8.471 -31.420  1.00  0.00     0.208 C 
BRANCH  17  18
HETATM   18  C   UNL     1      -2.180   8.921 -30.252  1.00  0.00    -0.069 C 
HETATM   19  C   UNL     1      -1.241   7.900 -29.675  1.00  0.00     0.044 C 
HETATM   20  C   UNL     1      -2.253  10.168 -29.756  1.00  0.00     0.016 C 
ENDBRANCH  17  18
ENDBRANCH  16  17
ENDBRANCH  12  16
ENDBRANCH   4  10
BRANCH   1  21
HETATM   21  C   UNL     1      -5.511   0.229 -32.834  1.00  0.00     0.014 A 
HETATM   22  C   UNL     1      -6.085  -0.067 -34.061  1.00  0.00     0.034 A 
HETATM   23  C   UNL     1      -7.224   0.540 -34.788  1.00  0.00     0.070 C 
HETATM   24  N   UNL     1      -5.387  -1.127 -34.564  1.00  0.00    -0.282 N 
HETATM   25  H   UNL     1      -5.542  -1.622 -35.436  1.00  0.00     0.189 HD
HETATM   26  N   UNL     1      -4.369  -1.517 -33.792  1.00  0.00    -0.179 NA
HETATM   27  C   UNL     1      -4.443  -0.715 -32.723  1.00  0.00     0.061 A 
HETATM   28  C   UNL     1      -3.460  -0.893 -31.624  1.00  0.00     0.073 C 
ENDBRANCH   1  21
TORSDOF 5
ENDMDL
