MODEL 1
REMARK VINA RESULT:      -9.6      0.000      0.000
REMARK  10 active torsions:
REMARK  status: ('A' for Active; 'I' for Inactive)
REMARK    1  A    between atoms: C_2  and  O_3 
REMARK    2  A    between atoms: O_3  and  C_4 
REMARK    3  A    between atoms: C_4  and  C_5 
REMARK    4  A    between atoms: C_7  and  N_8 
REMARK    5  A    between atoms: N_8  and  C_9 
REMARK    6  A    between atoms: C_9  and  N_10 
REMARK       I    between atoms: N_10  and  C_11 
REMARK    7  A    between atoms: C_11  and  C_12 
REMARK    8  A    between atoms: C_21  and  N_22 
REMARK    9  A    between atoms: N_25  and  C_27 
REMARK   10  A    between atoms: C_27  and  C_28 
ROOT
HETATM    1  C   UNL     1      -8.733   3.396 -33.753  1.00  0.00     0.041 A 
HETATM    2  C   UNL     1      -7.770   2.485 -33.298  1.00  0.00     0.049 A 
HETATM    3  C   UNL     1      -6.445   2.894 -33.091  1.00  0.00     0.062 A 
HETATM    4  C   UNL     1      -6.078   4.249 -33.285  1.00  0.00     0.057 A 
HETATM    5  C   UNL     1      -7.063   5.142 -33.742  1.00  0.00     0.033 A 
HETATM    6  C   UNL     1      -8.374   4.725 -33.978  1.00  0.00     0.020 A 
ENDROOT
BRANCH   3   7
HETATM    7  N   UNL     1      -5.408   1.948 -32.869  1.00  0.00    -0.331 N 
HETATM    8  H   UNL     1      -4.851   1.789 -33.698  1.00  0.00     0.168 HD
BRANCH   7   9
HETATM    9  C   UNL     1      -5.386   0.934 -31.970  1.00  0.00     0.179 C 
HETATM   10  S   UNL     1      -5.444   1.288 -30.338  1.00  0.00    -0.040 SA
BRANCH   9  11
HETATM   11  N   UNL     1      -5.381  -0.367 -32.370  1.00  0.00    -0.299 N 
HETATM   12  C   UNL     1      -4.504  -0.932 -33.296  1.00  0.00     0.258 C 
HETATM   13  O   UNL     1      -3.442  -0.438 -33.659  1.00  0.00    -0.267 OA
HETATM   14  H   UNL     1      -6.287  -0.807 -32.290  1.00  0.00     0.171 HD
BRANCH  12  15
HETATM   15  C   UNL     1      -4.963  -2.233 -33.880  1.00  0.00     0.038 A 
HETATM   16  C   UNL     1      -6.183  -2.332 -34.579  1.00  0.00    -0.046 A 
HETATM   17  C   UNL     1      -7.098  -1.156 -34.779  1.00  0.00     0.049 C 
HETATM   18  C   UNL     1      -6.573  -3.583 -35.088  1.00  0.00     0.007 A 
HETATM   19  C   UNL     1      -5.771  -4.712 -34.915  1.00  0.00     0.001 A 
HETATM   20  C   UNL     1      -4.575  -4.615 -34.214  1.00  0.00     0.001 A 
HETATM   21  C   UNL     1      -4.177  -3.385 -33.687  1.00  0.00     0.017 A 
ENDBRANCH  12  15
ENDBRANCH   9  11
ENDBRANCH   7   9
ENDBRANCH   3   7
BRANCH   4  22
HETATM   22  N   UNL     1      -4.819   4.763 -32.990  1.00  0.00    -0.376 N 
HETATM   23  C   UNL     1      -4.021   5.405 -34.046  1.00  0.00     0.150 C 
HETATM   24  C   UNL     1      -2.526   5.094 -33.821  1.00  0.00     0.255 C 
HETATM   25  N   UNL     1      -2.104   5.460 -32.391  1.00  0.00    -0.064 N 
HETATM   26  H   UNL     1      -2.256   6.471 -32.293  1.00  0.00     0.280 HD
HETATM   27  C   UNL     1      -2.984   4.757 -31.358  1.00  0.00     0.255 C 
HETATM   28  C   UNL     1      -4.476   5.062 -31.600  1.00  0.00     0.150 C 
BRANCH  25  29
HETATM   29  C   UNL     1      -0.641   5.203 -32.135  1.00  0.00     0.273 C 
BRANCH  29  30
HETATM   30  C   UNL     1      -0.165   5.783 -30.833  1.00  0.00    -0.033 A 
HETATM   31  C   UNL     1       0.377   4.951 -29.840  1.00  0.00     0.009 A 
HETATM   32  C   UNL     1       0.798   5.486 -28.622  1.00  0.00     0.001 A 
HETATM   33  C   UNL     1       0.681   6.853 -28.383  1.00  0.00     0.000 A 
HETATM   34  C   UNL     1       0.149   7.689 -29.361  1.00  0.00     0.001 A 
HETATM   35  C   UNL     1      -0.272   7.160 -30.582  1.00  0.00     0.009 A 
ENDBRANCH  29  30
ENDBRANCH  25  29
ENDBRANCH   4  22
BRANCH   1  36
HETATM   36  C   UNL     1     -10.107   2.892 -34.021  1.00  0.00     0.293 C 
HETATM   37  O   UNL     1     -10.768   3.235 -34.986  1.00  0.00    -0.259 OA
BRANCH  36  38
HETATM   38  O   UNL     1     -10.500   2.069 -33.020  1.00  0.00    -0.318 OA
BRANCH  38  39
HETATM   39  C   UNL     1     -10.972   0.771 -33.419  1.00  0.00     0.174 C 
HETATM   40  C   UNL     1     -10.170  -0.306 -32.717  1.00  0.00     0.034 C 
ENDBRANCH  38  39
ENDBRANCH  36  38
ENDBRANCH   1  36
TORSDOF 10
ENDMDL
MODEL 2
REMARK VINA RESULT:      -9.4      2.684      7.958
REMARK  10 active torsions:
REMARK  status: ('A' for Active; 'I' for Inactive)
REMARK    1  A    between atoms: C_2  and  O_3 
REMARK    2  A    between atoms: O_3  and  C_4 
REMARK    3  A    between atoms: C_4  and  C_5 
REMARK    4  A    between atoms: C_7  and  N_8 
REMARK    5  A    between atoms: N_8  and  C_9 
REMARK    6  A    between atoms: C_9  and  N_10 
REMARK       I    between atoms: N_10  and  C_11 
REMARK    7  A    between atoms: C_11  and  C_12 
REMARK    8  A    between atoms: C_21  and  N_22 
REMARK    9  A    between atoms: N_25  and  C_27 
REMARK   10  A    between atoms: C_27  and  C_28 
ROOT
HETATM    1  C   UNL     1      -3.420   4.883 -31.506  1.00  0.00     0.041 A 
HETATM    2  C   UNL     1      -3.438   3.591 -32.050  1.00  0.00     0.049 A 
HETATM    3  C   UNL     1      -4.654   2.929 -32.273  1.00  0.00     0.062 A 
HETATM    4  C   UNL     1      -5.882   3.583 -32.003  1.00  0.00     0.057 A 
HETATM    5  C   UNL     1      -5.836   4.878 -31.458  1.00  0.00     0.033 A 
HETATM    6  C   UNL     1      -4.624   5.522 -31.207  1.00  0.00     0.020 A 
ENDROOT
BRANCH   3   7
HETATM    7  N   UNL     1      -4.691   1.544 -32.589  1.00  0.00    -0.331 N 
HETATM    8  H   UNL     1      -5.012   1.375 -33.533  1.00  0.00     0.168 HD
BRANCH   7   9
HETATM    9  C   UNL     1      -4.859   0.502 -31.740  1.00  0.00     0.179 C 
HETATM   10  S   UNL     1      -5.162   0.804 -30.125  1.00  0.00    -0.040 SA
BRANCH   9  11
HETATM   11  N   UNL     1      -4.848  -0.785 -32.187  1.00  0.00    -0.299 N 
HETATM   12  C   UNL     1      -4.136  -1.259 -33.289  1.00  0.00     0.258 C 
HETATM   13  O   UNL     1      -3.201  -0.680 -33.830  1.00  0.00    -0.267 OA
HETATM   14  H   UNL     1      -5.690  -1.290 -31.950  1.00  0.00     0.171 HD
BRANCH  12  15
HETATM   15  C   UNL     1      -4.616  -2.573 -33.825  1.00  0.00     0.038 A 
HETATM   16  C   UNL     1      -5.817  -2.670 -34.556  1.00  0.00    -0.046 A 
HETATM   17  C   UNL     1      -6.691  -1.480 -34.839  1.00  0.00     0.049 C 
HETATM   18  C   UNL     1      -6.229  -3.933 -35.018  1.00  0.00     0.007 A 
HETATM   19  C   UNL     1      -5.466  -5.074 -34.769  1.00  0.00     0.001 A 
HETATM   20  C   UNL     1      -4.288  -4.977 -34.036  1.00  0.00     0.001 A 
HETATM   21  C   UNL     1      -3.870  -3.736 -33.556  1.00  0.00     0.017 A 
ENDBRANCH  12  15
ENDBRANCH   9  11
ENDBRANCH   7   9
ENDBRANCH   3   7
BRANCH   4  22
HETATM   22  N   UNL     1      -7.130   3.047 -32.305  1.00  0.00    -0.376 N 
HETATM   23  C   UNL     1      -8.147   2.914 -31.252  1.00  0.00     0.150 C 
HETATM   24  C   UNL     1      -8.971   1.631 -31.491  1.00  0.00     0.255 C 
HETATM   25  N   UNL     1      -9.528   1.603 -32.923  1.00  0.00    -0.064 N 
HETATM   26  H   UNL     1     -10.143   2.419 -33.011  1.00  0.00     0.280 HD
HETATM   27  C   UNL     1      -8.409   1.751 -33.953  1.00  0.00     0.255 C 
HETATM   28  C   UNL     1      -7.582   3.027 -33.696  1.00  0.00     0.150 C 
BRANCH  25  29
HETATM   29  C   UNL     1     -10.368   0.380 -33.193  1.00  0.00     0.273 C 
BRANCH  29  30
HETATM   30  C   UNL     1     -11.790   0.716 -33.543  1.00  0.00    -0.033 A 
HETATM   31  C   UNL     1     -12.782  -0.278 -33.513  1.00  0.00     0.009 A 
HETATM   32  C   UNL     1     -14.098   0.028 -33.861  1.00  0.00     0.001 A 
HETATM   33  C   UNL     1     -14.437   1.324 -34.240  1.00  0.00     0.000 A 
HETATM   34  C   UNL     1     -13.464   2.320 -34.268  1.00  0.00     0.001 A 
HETATM   35  C   UNL     1     -12.146   2.020 -33.922  1.00  0.00     0.009 A 
ENDBRANCH  29  30
ENDBRANCH  25  29
ENDBRANCH   4  22
BRANCH   1  36
HETATM   36  C   UNL     1      -2.101   5.510 -31.226  1.00  0.00     0.293 C 
HETATM   37  O   UNL     1      -1.890   6.222 -30.259  1.00  0.00    -0.259 OA
BRANCH  36  38
HETATM   38  O   UNL     1      -1.229   5.215 -32.220  1.00  0.00    -0.318 OA
BRANCH  38  39
HETATM   39  C   UNL     1      -1.130   6.181 -33.280  1.00  0.00     0.174 C 
HETATM   40  C   UNL     1      -1.523   5.541 -34.597  1.00  0.00     0.034 C 
ENDBRANCH  38  39
ENDBRANCH  36  38
ENDBRANCH   1  36
TORSDOF 10
ENDMDL
MODEL 3
REMARK VINA RESULT:      -9.0      1.691      2.371
REMARK  10 active torsions:
REMARK  status: ('A' for Active; 'I' for Inactive)
REMARK    1  A    between atoms: C_2  and  O_3 
REMARK    2  A    between atoms: O_3  and  C_4 
REMARK    3  A    between atoms: C_4  and  C_5 
REMARK    4  A    between atoms: C_7  and  N_8 
REMARK    5  A    between atoms: N_8  and  C_9 
REMARK    6  A    between atoms: C_9  and  N_10 
REMARK       I    between atoms: N_10  and  C_11 
REMARK    7  A    between atoms: C_11  and  C_12 
REMARK    8  A    between atoms: C_21  and  N_22 
REMARK    9  A    between atoms: N_25  and  C_27 
REMARK   10  A    between atoms: C_27  and  C_28 
ROOT
HETATM    1  C   UNL     1     -10.760   3.639 -34.503  1.00  0.00     0.041 A 
HETATM    2  C   UNL     1      -9.914   2.546 -34.268  1.00  0.00     0.049 A 
HETATM    3  C   UNL     1      -8.590   2.746 -33.853  1.00  0.00     0.062 A 
HETATM    4  C   UNL     1      -8.110   4.058 -33.610  1.00  0.00     0.057 A 
HETATM    5  C   UNL     1      -8.978   5.136 -33.854  1.00  0.00     0.033 A 
HETATM    6  C   UNL     1     -10.286   4.935 -34.299  1.00  0.00     0.020 A 
ENDROOT
BRANCH   3   7
HETATM    7  N   UNL     1      -7.651   1.680 -33.845  1.00  0.00    -0.331 N 
HETATM    8  H   UNL     1      -7.300   1.472 -34.770  1.00  0.00     0.168 HD
BRANCH   7   9
HETATM    9  C   UNL     1      -7.565   0.654 -32.964  1.00  0.00     0.179 C 
HETATM   10  S   UNL     1      -8.529   0.666 -31.599  1.00  0.00    -0.040 SA
BRANCH   9  11
HETATM   11  N   UNL     1      -6.757  -0.416 -33.200  1.00  0.00    -0.299 N 
HETATM   12  C   UNL     1      -6.448  -0.944 -34.453  1.00  0.00     0.258 C 
HETATM   13  O   UNL     1      -6.606  -0.367 -35.523  1.00  0.00    -0.267 OA
HETATM   14  H   UNL     1      -6.724  -1.062 -32.423  1.00  0.00     0.171 HD
BRANCH  12  15
HETATM   15  C   UNL     1      -5.911  -2.342 -34.428  1.00  0.00     0.038 A 
HETATM   16  C   UNL     1      -4.600  -2.616 -33.988  1.00  0.00    -0.046 A 
HETATM   17  C   UNL     1      -3.660  -1.536 -33.527  1.00  0.00     0.049 C 
HETATM   18  C   UNL     1      -4.142  -3.945 -34.005  1.00  0.00     0.007 A 
HETATM   19  C   UNL     1      -4.965  -4.984 -34.441  1.00  0.00     0.001 A 
HETATM   20  C   UNL     1      -6.254  -4.710 -34.886  1.00  0.00     0.001 A 
HETATM   21  C   UNL     1      -6.722  -3.396 -34.892  1.00  0.00     0.017 A 
ENDBRANCH  12  15
ENDBRANCH   9  11
ENDBRANCH   7   9
ENDBRANCH   3   7
BRANCH   4  22
HETATM   22  N   UNL     1      -6.852   4.340 -33.085  1.00  0.00    -0.376 N 
HETATM   23  C   UNL     1      -5.898   5.150 -33.856  1.00  0.00     0.150 C 
HETATM   24  C   UNL     1      -4.465   4.635 -33.605  1.00  0.00     0.255 C 
HETATM   25  N   UNL     1      -4.170   4.563 -32.099  1.00  0.00    -0.064 N 
HETATM   26  H   UNL     1      -4.250   5.522 -31.742  1.00  0.00     0.280 HD
HETATM   27  C   UNL     1      -5.208   3.708 -31.373  1.00  0.00     0.255 C 
HETATM   28  C   UNL     1      -6.637   4.222 -31.643  1.00  0.00     0.150 C 
BRANCH  25  29
HETATM   29  C   UNL     1      -2.767   4.094 -31.806  1.00  0.00     0.273 C 
BRANCH  29  30
HETATM   30  C   UNL     1      -1.870   5.201 -31.328  1.00  0.00    -0.033 A 
HETATM   31  C   UNL     1      -0.477   5.027 -31.309  1.00  0.00     0.009 A 
HETATM   32  C   UNL     1       0.355   6.046 -30.844  1.00  0.00     0.001 A 
HETATM   33  C   UNL     1      -0.193   7.244 -30.394  1.00  0.00     0.000 A 
HETATM   34  C   UNL     1      -1.573   7.431 -30.413  1.00  0.00     0.001 A 
HETATM   35  C   UNL     1      -2.410   6.415 -30.878  1.00  0.00     0.009 A 
ENDBRANCH  29  30
ENDBRANCH  25  29
ENDBRANCH   4  22
BRANCH   1  36
HETATM   36  C   UNL     1     -12.133   3.370 -35.008  1.00  0.00     0.293 C 
HETATM   37  O   UNL     1     -12.454   3.506 -36.177  1.00  0.00    -0.259 OA
BRANCH  36  38
HETATM   38  O   UNL     1     -12.943   3.021 -33.980  1.00  0.00    -0.318 OA
BRANCH  38  39
HETATM   39  C   UNL     1     -13.832   1.919 -34.225  1.00  0.00     0.174 C 
HETATM   40  C   UNL     1     -13.095   0.609 -34.023  1.00  0.00     0.034 C 
ENDBRANCH  38  39
ENDBRANCH  36  38
ENDBRANCH   1  36
TORSDOF 10
ENDMDL
MODEL 4
REMARK VINA RESULT:      -8.8      1.555      2.343
REMARK  10 active torsions:
REMARK  status: ('A' for Active; 'I' for Inactive)
REMARK    1  A    between atoms: C_2  and  O_3 
REMARK    2  A    between atoms: O_3  and  C_4 
REMARK    3  A    between atoms: C_4  and  C_5 
REMARK    4  A    between atoms: C_7  and  N_8 
REMARK    5  A    between atoms: N_8  and  C_9 
REMARK    6  A    between atoms: C_9  and  N_10 
REMARK       I    between atoms: N_10  and  C_11 
REMARK    7  A    between atoms: C_11  and  C_12 
REMARK    8  A    between atoms: C_21  and  N_22 
REMARK    9  A    between atoms: N_25  and  C_27 
REMARK   10  A    between atoms: C_27  and  C_28 
ROOT
HETATM    1  C   UNL     1      -9.127   1.183 -32.682  1.00  0.00     0.041 A 
HETATM    2  C   UNL     1      -8.165   0.611 -31.838  1.00  0.00     0.049 A 
HETATM    3  C   UNL     1      -7.039   1.346 -31.440  1.00  0.00     0.062 A 
HETATM    4  C   UNL     1      -6.891   2.698 -31.843  1.00  0.00     0.057 A 
HETATM    5  C   UNL     1      -7.870   3.246 -32.689  1.00  0.00     0.033 A 
HETATM    6  C   UNL     1      -8.973   2.502 -33.110  1.00  0.00     0.020 A 
ENDROOT
BRANCH   3   7
HETATM    7  N   UNL     1      -5.940   0.719 -30.794  1.00  0.00    -0.331 N 
HETATM    8  H   UNL     1      -5.784   1.083 -29.864  1.00  0.00     0.168 HD
BRANCH   7   9
HETATM    9  C   UNL     1      -4.853   0.149 -31.368  1.00  0.00     0.179 C 
HETATM   10  S   UNL     1      -3.365   0.894 -31.217  1.00  0.00    -0.040 SA
BRANCH   9  11
HETATM   11  N   UNL     1      -4.937  -1.048 -32.011  1.00  0.00    -0.299 N 
HETATM   12  C   UNL     1      -4.408  -1.338 -33.269  1.00  0.00     0.258 C 
HETATM   13  O   UNL     1      -3.552  -0.676 -33.846  1.00  0.00    -0.267 OA
HETATM   14  H   UNL     1      -5.746  -1.588 -31.733  1.00  0.00     0.171 HD
BRANCH  12  15
HETATM   15  C   UNL     1      -4.991  -2.549 -33.929  1.00  0.00     0.038 A 
HETATM   16  C   UNL     1      -6.232  -2.494 -34.596  1.00  0.00    -0.046 A 
HETATM   17  C   UNL     1      -7.048  -1.234 -34.683  1.00  0.00     0.049 C 
HETATM   18  C   UNL     1      -6.740  -3.668 -35.180  1.00  0.00     0.007 A 
HETATM   19  C   UNL     1      -6.033  -4.869 -35.114  1.00  0.00     0.001 A 
HETATM   20  C   UNL     1      -4.816  -4.924 -34.444  1.00  0.00     0.001 A 
HETATM   21  C   UNL     1      -4.301  -3.774 -33.844  1.00  0.00     0.017 A 
ENDBRANCH  12  15
ENDBRANCH   9  11
ENDBRANCH   7   9
ENDBRANCH   3   7
BRANCH   4  22
HETATM   22  N   UNL     1      -5.870   3.533 -31.400  1.00  0.00    -0.376 N 
HETATM   23  C   UNL     1      -5.654   3.730 -29.959  1.00  0.00     0.150 C 
HETATM   24  C   UNL     1      -5.203   5.183 -29.700  1.00  0.00     0.255 C 
HETATM   25  N   UNL     1      -3.997   5.542 -30.581  1.00  0.00    -0.064 N 
HETATM   26  H   UNL     1      -3.241   4.902 -30.312  1.00  0.00     0.280 HD
HETATM   27  C   UNL     1      -4.303   5.305 -32.059  1.00  0.00     0.255 C 
HETATM   28  C   UNL     1      -4.767   3.855 -32.305  1.00  0.00     0.150 C 
BRANCH  25  29
HETATM   29  C   UNL     1      -3.501   6.945 -30.339  1.00  0.00     0.273 C 
BRANCH  29  30
HETATM   30  C   UNL     1      -2.015   7.008 -30.123  1.00  0.00    -0.033 A 
HETATM   31  C   UNL     1      -1.132   6.607 -31.139  1.00  0.00     0.009 A 
HETATM   32  C   UNL     1       0.247   6.644 -30.932  1.00  0.00     0.001 A 
HETATM   33  C   UNL     1       0.758   7.080 -29.712  1.00  0.00     0.000 A 
HETATM   34  C   UNL     1      -0.107   7.485 -28.698  1.00  0.00     0.001 A 
HETATM   35  C   UNL     1      -1.487   7.451 -28.901  1.00  0.00     0.009 A 
ENDBRANCH  29  30
ENDBRANCH  25  29
ENDBRANCH   4  22
BRANCH   1  36
HETATM   36  C   UNL     1     -10.266   0.336 -33.127  1.00  0.00     0.293 C 
HETATM   37  O   UNL     1     -10.461  -0.794 -32.712  1.00  0.00    -0.259 OA
BRANCH  36  38
HETATM   38  O   UNL     1     -10.982   0.986 -34.075  1.00  0.00    -0.318 OA
BRANCH  38  39
HETATM   39  C   UNL     1     -12.401   1.057 -33.855  1.00  0.00     0.174 C 
HETATM   40  C   UNL     1     -12.961   2.303 -34.511  1.00  0.00     0.034 C 
ENDBRANCH  38  39
ENDBRANCH  36  38
ENDBRANCH   1  36
TORSDOF 10
ENDMDL
MODEL 5
REMARK VINA RESULT:      -8.8      3.496      8.514
REMARK  10 active torsions:
REMARK  status: ('A' for Active; 'I' for Inactive)
REMARK    1  A    between atoms: C_2  and  O_3 
REMARK    2  A    between atoms: O_3  and  C_4 
REMARK    3  A    between atoms: C_4  and  C_5 
REMARK    4  A    between atoms: C_7  and  N_8 
REMARK    5  A    between atoms: N_8  and  C_9 
REMARK    6  A    between atoms: C_9  and  N_10 
REMARK       I    between atoms: N_10  and  C_11 
REMARK    7  A    between atoms: C_11  and  C_12 
REMARK    8  A    between atoms: C_21  and  N_22 
REMARK    9  A    between atoms: N_25  and  C_27 
REMARK   10  A    between atoms: C_27  and  C_28 
ROOT
HETATM    1  C   UNL     1      -5.202   4.056 -32.875  1.00  0.00     0.041 A 
HETATM    2  C   UNL     1      -5.806   2.827 -32.578  1.00  0.00     0.049 A 
HETATM    3  C   UNL     1      -7.179   2.756 -32.301  1.00  0.00     0.062 A 
HETATM    4  C   UNL     1      -7.983   3.921 -32.376  1.00  0.00     0.057 A 
HETATM    5  C   UNL     1      -7.352   5.141 -32.675  1.00  0.00     0.033 A 
HETATM    6  C   UNL     1      -5.980   5.214 -32.919  1.00  0.00     0.020 A 
ENDROOT
BRANCH   3   7
HETATM    7  N   UNL     1      -7.762   1.577 -31.764  1.00  0.00    -0.331 N 
HETATM    8  H   UNL     1      -7.510   1.433 -30.795  1.00  0.00     0.168 HD
BRANCH   7   9
HETATM    9  C   UNL     1      -8.127   0.453 -32.426  1.00  0.00     0.179 C 
HETATM   10  S   UNL     1      -9.714   0.272 -32.915  1.00  0.00    -0.040 SA
BRANCH   9  11
HETATM   11  N   UNL     1      -7.214  -0.502 -32.757  1.00  0.00    -0.299 N 
HETATM   12  C   UNL     1      -6.742  -0.768 -34.043  1.00  0.00     0.258 C 
HETATM   13  O   UNL     1      -6.840  -0.013 -35.004  1.00  0.00    -0.267 OA
HETATM   14  H   UNL     1      -7.205  -1.278 -32.110  1.00  0.00     0.171 HD
BRANCH  12  15
HETATM   15  C   UNL     1      -6.098  -2.110 -34.207  1.00  0.00     0.038 A 
HETATM   16  C   UNL     1      -4.732  -2.307 -33.920  1.00  0.00    -0.046 A 
HETATM   17  C   UNL     1      -3.837  -1.196 -33.442  1.00  0.00     0.049 C 
HETATM   18  C   UNL     1      -4.175  -3.584 -34.113  1.00  0.00     0.007 A 
HETATM   19  C   UNL     1      -4.954  -4.646 -34.572  1.00  0.00     0.001 A 
HETATM   20  C   UNL     1      -6.299  -4.447 -34.867  1.00  0.00     0.001 A 
HETATM   21  C   UNL     1      -6.866  -3.183 -34.698  1.00  0.00     0.017 A 
ENDBRANCH  12  15
ENDBRANCH   9  11
ENDBRANCH   7   9
ENDBRANCH   3   7
BRANCH   4  22
HETATM   22  N   UNL     1      -9.367   3.921 -32.233  1.00  0.00    -0.376 N 
HETATM   23  C   UNL     1     -10.228   3.784 -33.417  1.00  0.00     0.150 C 
HETATM   24  C   UNL     1     -11.501   4.635 -33.228  1.00  0.00     0.255 C 
HETATM   25  N   UNL     1     -12.189   4.297 -31.897  1.00  0.00    -0.064 N 
HETATM   26  H   UNL     1     -12.451   3.306 -31.949  1.00  0.00     0.280 HD
HETATM   27  C   UNL     1     -11.226   4.460 -30.722  1.00  0.00     0.255 C 
HETATM   28  C   UNL     1      -9.950   3.618 -30.927  1.00  0.00     0.150 C 
BRANCH  25  29
HETATM   29  C   UNL     1     -13.457   5.084 -31.684  1.00  0.00     0.273 C 
BRANCH  29  30
HETATM   30  C   UNL     1     -14.695   4.241 -31.816  1.00  0.00    -0.033 A 
HETATM   31  C   UNL     1     -14.593   2.848 -31.960  1.00  0.00     0.009 A 
HETATM   32  C   UNL     1     -15.740   2.068 -32.105  1.00  0.00     0.001 A 
HETATM   33  C   UNL     1     -16.997   2.668 -32.109  1.00  0.00     0.000 A 
HETATM   34  C   UNL     1     -17.111   4.049 -31.962  1.00  0.00     0.001 A 
HETATM   35  C   UNL     1     -15.966   4.834 -31.815  1.00  0.00     0.009 A 
ENDBRANCH  29  30
ENDBRANCH  25  29
ENDBRANCH   4  22
BRANCH   1  36
HETATM   36  C   UNL     1      -3.731   4.084 -33.093  1.00  0.00     0.293 C 
HETATM   37  O   UNL     1      -2.987   3.180 -32.752  1.00  0.00    -0.259 OA
BRANCH  36  38
HETATM   38  O   UNL     1      -3.370   5.260 -33.659  1.00  0.00    -0.318 OA
BRANCH  38  39
HETATM   39  C   UNL     1      -2.702   5.171 -34.928  1.00  0.00     0.174 C 
HETATM   40  C   UNL     1      -1.236   5.519 -34.762  1.00  0.00     0.034 C 
ENDBRANCH  38  39
ENDBRANCH  36  38
ENDBRANCH   1  36
TORSDOF 10
ENDMDL
MODEL 6
REMARK VINA RESULT:      -8.6      2.639      8.103
REMARK  10 active torsions:
REMARK  status: ('A' for Active; 'I' for Inactive)
REMARK    1  A    between atoms: C_2  and  O_3 
REMARK    2  A    between atoms: O_3  and  C_4 
REMARK    3  A    between atoms: C_4  and  C_5 
REMARK    4  A    between atoms: C_7  and  N_8 
REMARK    5  A    between atoms: N_8  and  C_9 
REMARK    6  A    between atoms: C_9  and  N_10 
REMARK       I    between atoms: N_10  and  C_11 
REMARK    7  A    between atoms: C_11  and  C_12 
REMARK    8  A    between atoms: C_21  and  N_22 
REMARK    9  A    between atoms: N_25  and  C_27 
REMARK   10  A    between atoms: C_27  and  C_28 
ROOT
HETATM    1  C   UNL     1      -4.081   4.648 -33.203  1.00  0.00     0.041 A 
HETATM    2  C   UNL     1      -4.479   3.304 -33.188  1.00  0.00     0.049 A 
HETATM    3  C   UNL     1      -5.836   2.964 -33.089  1.00  0.00     0.062 A 
HETATM    4  C   UNL     1      -6.825   3.980 -33.062  1.00  0.00     0.057 A 
HETATM    5  C   UNL     1      -6.399   5.319 -33.079  1.00  0.00     0.033 A 
HETATM    6  C   UNL     1      -5.046   5.654 -33.144  1.00  0.00     0.020 A 
ENDROOT
BRANCH   3   7
HETATM    7  N   UNL     1      -6.244   1.629 -32.827  1.00  0.00    -0.331 N 
HETATM    8  H   UNL     1      -7.182   1.443 -33.155  1.00  0.00     0.168 HD
BRANCH   7   9
HETATM    9  C   UNL     1      -5.819   0.810 -31.834  1.00  0.00     0.179 C 
HETATM   10  S   UNL     1      -5.861   1.351 -30.255  1.00  0.00    -0.040 SA
BRANCH   9  11
HETATM   11  N   UNL     1      -5.420  -0.466 -32.091  1.00  0.00    -0.299 N 
HETATM   12  C   UNL     1      -4.366  -0.838 -32.927  1.00  0.00     0.258 C 
HETATM   13  O   UNL     1      -3.471  -0.094 -33.312  1.00  0.00    -0.267 OA
HETATM   14  H   UNL     1      -6.166  -1.140 -31.989  1.00  0.00     0.171 HD
BRANCH  12  15
HETATM   15  C   UNL     1      -4.401  -2.265 -33.380  1.00  0.00     0.038 A 
HETATM   16  C   UNL     1      -5.330  -2.706 -34.344  1.00  0.00    -0.046 A 
HETATM   17  C   UNL     1      -6.341  -1.788 -34.972  1.00  0.00     0.049 C 
HETATM   18  C   UNL     1      -5.329  -4.063 -34.715  1.00  0.00     0.007 A 
HETATM   19  C   UNL     1      -4.425  -4.963 -34.151  1.00  0.00     0.001 A 
HETATM   20  C   UNL     1      -3.519  -4.528 -33.191  1.00  0.00     0.001 A 
HETATM   21  C   UNL     1      -3.513  -3.190 -32.796  1.00  0.00     0.017 A 
ENDBRANCH  12  15
ENDBRANCH   9  11
ENDBRANCH   7   9
ENDBRANCH   3   7
BRANCH   4  22
HETATM   22  N   UNL     1      -8.194   3.731 -33.085  1.00  0.00    -0.376 N 
HETATM   23  C   UNL     1      -8.884   3.303 -31.859  1.00  0.00     0.150 C 
HETATM   24  C   UNL     1     -10.003   2.303 -32.220  1.00  0.00     0.255 C 
HETATM   25  N   UNL     1     -10.926   2.888 -33.300  1.00  0.00    -0.064 N 
HETATM   26  H   UNL     1     -11.346   3.733 -32.896  1.00  0.00     0.280 HD
HETATM   27  C   UNL     1     -10.131   3.311 -34.535  1.00  0.00     0.255 C 
HETATM   28  C   UNL     1      -9.006   4.298 -34.161  1.00  0.00     0.150 C 
BRANCH  25  29
HETATM   29  C   UNL     1     -12.055   1.958 -33.663  1.00  0.00     0.273 C 
BRANCH  29  30
HETATM   30  C   UNL     1     -13.371   2.380 -33.072  1.00  0.00    -0.033 A 
HETATM   31  C   UNL     1     -13.462   3.556 -32.311  1.00  0.00     0.009 A 
HETATM   32  C   UNL     1     -14.679   3.937 -31.743  1.00  0.00     0.001 A 
HETATM   33  C   UNL     1     -15.812   3.149 -31.927  1.00  0.00     0.000 A 
HETATM   34  C   UNL     1     -15.735   1.982 -32.685  1.00  0.00     0.001 A 
HETATM   35  C   UNL     1     -14.521   1.597 -33.256  1.00  0.00     0.009 A 
ENDBRANCH  29  30
ENDBRANCH  25  29
ENDBRANCH   4  22
BRANCH   1  36
HETATM   36  C   UNL     1      -2.625   4.951 -33.240  1.00  0.00     0.293 C 
HETATM   37  O   UNL     1      -2.100   5.607 -34.123  1.00  0.00    -0.259 OA
BRANCH  36  38
HETATM   38  O   UNL     1      -2.002   4.347 -32.199  1.00  0.00    -0.318 OA
BRANCH  38  39
HETATM   39  C   UNL     1      -1.037   5.145 -31.494  1.00  0.00     0.174 C 
HETATM   40  C   UNL     1      -1.747   6.199 -30.667  1.00  0.00     0.034 C 
ENDBRANCH  38  39
ENDBRANCH  36  38
ENDBRANCH   1  36
TORSDOF 10
ENDMDL
MODEL 7
REMARK VINA RESULT:      -8.5      3.499      8.367
REMARK  10 active torsions:
REMARK  status: ('A' for Active; 'I' for Inactive)
REMARK    1  A    between atoms: C_2  and  O_3 
REMARK    2  A    between atoms: O_3  and  C_4 
REMARK    3  A    between atoms: C_4  and  C_5 
REMARK    4  A    between atoms: C_7  and  N_8 
REMARK    5  A    between atoms: N_8  and  C_9 
REMARK    6  A    between atoms: C_9  and  N_10 
REMARK       I    between atoms: N_10  and  C_11 
REMARK    7  A    between atoms: C_11  and  C_12 
REMARK    8  A    between atoms: C_21  and  N_22 
REMARK    9  A    between atoms: N_25  and  C_27 
REMARK   10  A    between atoms: C_27  and  C_28 
ROOT
HETATM    1  C   UNL     1      -5.755   6.265 -28.107  1.00  0.00     0.041 A 
HETATM    2  C   UNL     1      -5.250   5.114 -28.726  1.00  0.00     0.049 A 
HETATM    3  C   UNL     1      -6.048   4.370 -29.607  1.00  0.00     0.062 A 
HETATM    4  C   UNL     1      -7.359   4.809 -29.925  1.00  0.00     0.057 A 
HETATM    5  C   UNL     1      -7.841   5.966 -29.289  1.00  0.00     0.033 A 
HETATM    6  C   UNL     1      -7.056   6.686 -28.388  1.00  0.00     0.020 A 
ENDROOT
BRANCH   3   7
HETATM    7  N   UNL     1      -5.650   3.081 -30.052  1.00  0.00    -0.331 N 
HETATM    8  H   UNL     1      -5.527   2.433 -29.286  1.00  0.00     0.168 HD
BRANCH   7   9
HETATM    9  C   UNL     1      -4.963   2.765 -31.176  1.00  0.00     0.179 C 
HETATM   10  S   UNL     1      -3.534   3.563 -31.511  1.00  0.00    -0.040 SA
BRANCH   9  11
HETATM   11  N   UNL     1      -5.380   1.769 -32.005  1.00  0.00    -0.299 N 
HETATM   12  C   UNL     1      -5.797   0.498 -31.607  1.00  0.00     0.258 C 
HETATM   13  O   UNL     1      -6.132   0.187 -30.469  1.00  0.00    -0.267 OA
HETATM   14  H   UNL     1      -4.984   1.837 -32.932  1.00  0.00     0.171 HD
BRANCH  12  15
HETATM   15  C   UNL     1      -5.788  -0.532 -32.694  1.00  0.00     0.038 A 
HETATM   16  C   UNL     1      -4.671  -1.365 -32.904  1.00  0.00    -0.046 A 
HETATM   17  C   UNL     1      -3.424  -1.274 -32.067  1.00  0.00     0.049 C 
HETATM   18  C   UNL     1      -4.710  -2.301 -33.953  1.00  0.00     0.007 A 
HETATM   19  C   UNL     1      -5.834  -2.416 -34.772  1.00  0.00     0.001 A 
HETATM   20  C   UNL     1      -6.929  -1.584 -34.571  1.00  0.00     0.001 A 
HETATM   21  C   UNL     1      -6.904  -0.638 -33.546  1.00  0.00     0.017 A 
ENDBRANCH  12  15
ENDBRANCH   9  11
ENDBRANCH   7   9
ENDBRANCH   3   7
BRANCH   4  22
HETATM   22  N   UNL     1      -8.173   4.199 -30.875  1.00  0.00    -0.376 N 
HETATM   23  C   UNL     1      -9.358   3.441 -30.449  1.00  0.00     0.150 C 
HETATM   24  C   UNL     1      -9.556   2.229 -31.385  1.00  0.00     0.255 C 
HETATM   25  N   UNL     1      -9.579   2.676 -32.854  1.00  0.00    -0.064 N 
HETATM   26  H   UNL     1     -10.379   3.312 -32.952  1.00  0.00     0.280 HD
HETATM   27  C   UNL     1      -8.317   3.460 -33.212  1.00  0.00     0.255 C 
HETATM   28  C   UNL     1      -8.119   4.658 -32.262  1.00  0.00     0.150 C 
BRANCH  25  29
HETATM   29  C   UNL     1      -9.803   1.528 -33.805  1.00  0.00     0.273 C 
BRANCH  29  30
HETATM   30  C   UNL     1     -11.257   1.191 -33.981  1.00  0.00    -0.033 A 
HETATM   31  C   UNL     1     -12.110   2.067 -34.672  1.00  0.00     0.009 A 
HETATM   32  C   UNL     1     -13.465   1.766 -34.816  1.00  0.00     0.001 A 
HETATM   33  C   UNL     1     -13.981   0.593 -34.271  1.00  0.00     0.000 A 
HETATM   34  C   UNL     1     -13.144  -0.286 -33.587  1.00  0.00     0.001 A 
HETATM   35  C   UNL     1     -11.788   0.010 -33.441  1.00  0.00     0.009 A 
ENDBRANCH  29  30
ENDBRANCH  25  29
ENDBRANCH   4  22
BRANCH   1  36
HETATM   36  C   UNL     1      -4.889   6.977 -27.130  1.00  0.00     0.293 C 
HETATM   37  O   UNL     1      -5.325   7.699 -26.249  1.00  0.00    -0.259 OA
BRANCH  36  38
HETATM   38  O   UNL     1      -3.585   6.740 -27.411  1.00  0.00    -0.318 OA
BRANCH  38  39
HETATM   39  C   UNL     1      -2.748   7.901 -27.544  1.00  0.00     0.174 C 
HETATM   40  C   UNL     1      -1.743   7.685 -28.659  1.00  0.00     0.034 C 
ENDBRANCH  38  39
ENDBRANCH  36  38
ENDBRANCH   1  36
TORSDOF 10
ENDMDL
MODEL 8
REMARK VINA RESULT:      -8.4      2.917      8.570
REMARK  10 active torsions:
REMARK  status: ('A' for Active; 'I' for Inactive)
REMARK    1  A    between atoms: C_2  and  O_3 
REMARK    2  A    between atoms: O_3  and  C_4 
REMARK    3  A    between atoms: C_4  and  C_5 
REMARK    4  A    between atoms: C_7  and  N_8 
REMARK    5  A    between atoms: N_8  and  C_9 
REMARK    6  A    between atoms: C_9  and  N_10 
REMARK       I    between atoms: N_10  and  C_11 
REMARK    7  A    between atoms: C_11  and  C_12 
REMARK    8  A    between atoms: C_21  and  N_22 
REMARK    9  A    between atoms: N_25  and  C_27 
REMARK   10  A    between atoms: C_27  and  C_28 
ROOT
HETATM    1  C   UNL     1      -9.041   5.134 -30.336  1.00  0.00     0.041 A 
HETATM    2  C   UNL     1      -7.708   5.201 -30.765  1.00  0.00     0.049 A 
HETATM    3  C   UNL     1      -7.055   4.056 -31.242  1.00  0.00     0.062 A 
HETATM    4  C   UNL     1      -7.756   2.828 -31.351  1.00  0.00     0.057 A 
HETATM    5  C   UNL     1      -9.091   2.788 -30.913  1.00  0.00     0.033 A 
HETATM    6  C   UNL     1      -9.729   3.922 -30.408  1.00  0.00     0.020 A 
ENDROOT
BRANCH   3   7
HETATM    7  N   UNL     1      -5.650   4.042 -31.450  1.00  0.00    -0.331 N 
HETATM    8  H   UNL     1      -5.137   3.912 -30.587  1.00  0.00     0.168 HD
BRANCH   7   9
HETATM    9  C   UNL     1      -4.949   4.647 -32.439  1.00  0.00     0.179 C 
HETATM   10  S   UNL     1      -5.636   4.792 -33.955  1.00  0.00    -0.040 SA
BRANCH   9  11
HETATM   11  N   UNL     1      -3.724   5.194 -32.207  1.00  0.00    -0.299 N 
HETATM   12  C   UNL     1      -2.671   4.577 -31.531  1.00  0.00     0.258 C 
HETATM   13  O   UNL     1      -2.578   3.375 -31.310  1.00  0.00    -0.267 OA
HETATM   14  H   UNL     1      -3.744   6.203 -32.174  1.00  0.00     0.171 HD
BRANCH  12  15
HETATM   15  C   UNL     1      -1.612   5.514 -31.035  1.00  0.00     0.038 A 
HETATM   16  C   UNL     1      -1.913   6.537 -30.112  1.00  0.00    -0.046 A 
HETATM   17  C   UNL     1      -3.300   6.759 -29.575  1.00  0.00     0.049 C 
HETATM   18  C   UNL     1      -0.883   7.400 -29.698  1.00  0.00     0.007 A 
HETATM   19  C   UNL     1       0.418   7.251 -30.178  1.00  0.00     0.001 A 
HETATM   20  C   UNL     1       0.709   6.250 -31.098  1.00  0.00     0.001 A 
HETATM   21  C   UNL     1      -0.301   5.392 -31.535  1.00  0.00     0.017 A 
ENDBRANCH  12  15
ENDBRANCH   9  11
ENDBRANCH   7   9
ENDBRANCH   3   7
BRANCH   4  22
HETATM   22  N   UNL     1      -7.222   1.677 -31.922  1.00  0.00    -0.376 N 
HETATM   23  C   UNL     1      -6.867   0.532 -31.072  1.00  0.00     0.150 C 
HETATM   24  C   UNL     1      -5.607  -0.157 -31.638  1.00  0.00     0.255 C 
HETATM   25  N   UNL     1      -5.796  -0.500 -33.123  1.00  0.00    -0.064 N 
HETATM   26  H   UNL     1      -6.587  -1.152 -33.172  1.00  0.00     0.280 HD
HETATM   27  C   UNL     1      -6.168   0.741 -33.933  1.00  0.00     0.255 C 
HETATM   28  C   UNL     1      -7.418   1.431 -33.350  1.00  0.00     0.150 C 
BRANCH  25  29
HETATM   29  C   UNL     1      -4.601  -1.205 -33.712  1.00  0.00     0.273 C 
BRANCH  29  30
HETATM   30  C   UNL     1      -4.901  -2.619 -34.123  1.00  0.00    -0.033 A 
HETATM   31  C   UNL     1      -6.079  -2.918 -34.828  1.00  0.00     0.009 A 
HETATM   32  C   UNL     1      -6.370  -4.233 -35.190  1.00  0.00     0.001 A 
HETATM   33  C   UNL     1      -5.492  -5.261 -34.853  1.00  0.00     0.000 A 
HETATM   34  C   UNL     1      -4.319  -4.976 -34.159  1.00  0.00     0.001 A 
HETATM   35  C   UNL     1      -4.022  -3.662 -33.795  1.00  0.00     0.009 A 
ENDBRANCH  29  30
ENDBRANCH  25  29
ENDBRANCH   4  22
BRANCH   1  36
HETATM   36  C   UNL     1      -9.662   6.363 -29.775  1.00  0.00     0.293 C 
HETATM   37  O   UNL     1     -10.759   6.774 -30.116  1.00  0.00    -0.259 OA
BRANCH  36  38
HETATM   38  O   UNL     1      -8.812   6.953 -28.901  1.00  0.00    -0.318 OA
BRANCH  38  39
HETATM   39  C   UNL     1      -8.837   8.389 -28.868  1.00  0.00     0.174 C 
HETATM   40  C   UNL     1      -8.000   8.892 -27.708  1.00  0.00     0.034 C 
ENDBRANCH  38  39
ENDBRANCH  36  38
ENDBRANCH   1  36
TORSDOF 10
ENDMDL
MODEL 9
REMARK VINA RESULT:      -8.3      2.247      3.400
REMARK  10 active torsions:
REMARK  status: ('A' for Active; 'I' for Inactive)
REMARK    1  A    between atoms: C_2  and  O_3 
REMARK    2  A    between atoms: O_3  and  C_4 
REMARK    3  A    between atoms: C_4  and  C_5 
REMARK    4  A    between atoms: C_7  and  N_8 
REMARK    5  A    between atoms: N_8  and  C_9 
REMARK    6  A    between atoms: C_9  and  N_10 
REMARK       I    between atoms: N_10  and  C_11 
REMARK    7  A    between atoms: C_11  and  C_12 
REMARK    8  A    between atoms: C_21  and  N_22 
REMARK    9  A    between atoms: N_25  and  C_27 
REMARK   10  A    between atoms: C_27  and  C_28 
ROOT
HETATM    1  C   UNL     1     -11.165   2.758 -34.142  1.00  0.00     0.041 A 
HETATM    2  C   UNL     1     -10.515   2.538 -32.920  1.00  0.00     0.049 A 
HETATM    3  C   UNL     1      -9.387   3.293 -32.567  1.00  0.00     0.062 A 
HETATM    4  C   UNL     1      -8.927   4.329 -33.418  1.00  0.00     0.057 A 
HETATM    5  C   UNL     1      -9.597   4.528 -34.638  1.00  0.00     0.033 A 
HETATM    6  C   UNL     1     -10.699   3.753 -35.002  1.00  0.00     0.020 A 
ENDROOT
BRANCH   3   7
HETATM    7  N   UNL     1      -8.574   2.928 -31.461  1.00  0.00    -0.331 N 
HETATM    8  H   UNL     1      -8.720   3.532 -30.662  1.00  0.00     0.168 HD
BRANCH   7   9
HETATM    9  C   UNL     1      -7.374   2.300 -31.482  1.00  0.00     0.179 C 
HETATM   10  S   UNL     1      -6.144   2.854 -30.497  1.00  0.00    -0.040 SA
BRANCH   9  11
HETATM   11  N   UNL     1      -7.169   1.190 -32.244  1.00  0.00    -0.299 N 
HETATM   12  C   UNL     1      -6.742  -0.053 -31.775  1.00  0.00     0.258 C 
HETATM   13  O   UNL     1      -6.772  -0.417 -30.605  1.00  0.00    -0.267 OA
HETATM   14  H   UNL     1      -6.936   1.408 -33.202  1.00  0.00     0.171 HD
BRANCH  12  15
HETATM   15  C   UNL     1      -6.186  -0.961 -32.828  1.00  0.00     0.038 A 
HETATM   16  C   UNL     1      -4.799  -1.193 -32.938  1.00  0.00    -0.046 A 
HETATM   17  C   UNL     1      -3.796  -0.547 -32.023  1.00  0.00     0.049 C 
HETATM   18  C   UNL     1      -4.332  -2.039 -33.959  1.00  0.00     0.007 A 
HETATM   19  C   UNL     1      -5.217  -2.650 -34.848  1.00  0.00     0.001 A 
HETATM   20  C   UNL     1      -6.583  -2.410 -34.746  1.00  0.00     0.001 A 
HETATM   21  C   UNL     1      -7.066  -1.561 -33.749  1.00  0.00     0.017 A 
ENDBRANCH  12  15
ENDBRANCH   9  11
ENDBRANCH   7   9
ENDBRANCH   3   7
BRANCH   4  22
HETATM   22  N   UNL     1      -7.893   5.201 -33.092  1.00  0.00    -0.376 N 
HETATM   23  C   UNL     1      -6.632   5.160 -33.845  1.00  0.00     0.150 C 
HETATM   24  C   UNL     1      -5.454   5.458 -32.893  1.00  0.00     0.255 C 
HETATM   25  N   UNL     1      -5.695   6.766 -32.124  1.00  0.00    -0.064 N 
HETATM   26  H   UNL     1      -5.756   7.510 -32.828  1.00  0.00     0.280 HD
HETATM   27  C   UNL     1      -7.026   6.727 -31.375  1.00  0.00     0.255 C 
HETATM   28  C   UNL     1      -8.194   6.413 -32.331  1.00  0.00     0.150 C 
BRANCH  25  29
HETATM   29  C   UNL     1      -4.554   7.115 -31.203  1.00  0.00     0.273 C 
BRANCH  29  30
HETATM   30  C   UNL     1      -3.223   6.643 -31.719  1.00  0.00    -0.033 A 
HETATM   31  C   UNL     1      -2.521   7.401 -32.670  1.00  0.00     0.009 A 
HETATM   32  C   UNL     1      -1.297   6.952 -33.166  1.00  0.00     0.001 A 
HETATM   33  C   UNL     1      -0.763   5.746 -32.721  1.00  0.00     0.000 A 
HETATM   34  C   UNL     1      -1.448   4.987 -31.774  1.00  0.00     0.001 A 
HETATM   35  C   UNL     1      -2.672   5.432 -31.274  1.00  0.00     0.009 A 
ENDBRANCH  29  30
ENDBRANCH  25  29
ENDBRANCH   4  22
BRANCH   1  36
HETATM   36  C   UNL     1     -12.313   1.882 -34.497  1.00  0.00     0.293 C 
HETATM   37  O   UNL     1     -12.744   1.770 -35.632  1.00  0.00    -0.259 OA
BRANCH  36  38
HETATM   38  O   UNL     1     -12.813   1.300 -33.380  1.00  0.00    -0.318 OA
BRANCH  38  39
HETATM   39  C   UNL     1     -14.229   1.434 -33.178  1.00  0.00     0.174 C 
HETATM   40  C   UNL     1     -14.513   2.641 -32.306  1.00  0.00     0.034 C 
ENDBRANCH  38  39
ENDBRANCH  36  38
ENDBRANCH   1  36
TORSDOF 10
ENDMDL
MODEL 10
REMARK VINA RESULT:      -8.1     16.438     17.970
REMARK  10 active torsions:
REMARK  status: ('A' for Active; 'I' for Inactive)
REMARK    1  A    between atoms: C_2  and  O_3 
REMARK    2  A    between atoms: O_3  and  C_4 
REMARK    3  A    between atoms: C_4  and  C_5 
REMARK    4  A    between atoms: C_7  and  N_8 
REMARK    5  A    between atoms: N_8  and  C_9 
REMARK    6  A    between atoms: C_9  and  N_10 
REMARK       I    between atoms: N_10  and  C_11 
REMARK    7  A    between atoms: C_11  and  C_12 
REMARK    8  A    between atoms: C_21  and  N_22 
REMARK    9  A    between atoms: N_25  and  C_27 
REMARK   10  A    between atoms: C_27  and  C_28 
ROOT
HETATM    1  C   UNL     1      -8.933 -12.491 -39.865  1.00  0.00     0.041 A 
HETATM    2  C   UNL     1      -8.577 -12.640 -38.518  1.00  0.00     0.049 A 
HETATM    3  C   UNL     1      -7.264 -12.983 -38.161  1.00  0.00     0.062 A 
HETATM    4  C   UNL     1      -6.269 -13.125 -39.160  1.00  0.00     0.057 A 
HETATM    5  C   UNL     1      -6.652 -12.971 -40.503  1.00  0.00     0.033 A 
HETATM    6  C   UNL     1      -7.967 -12.662 -40.857  1.00  0.00     0.020 A 
ENDROOT
BRANCH   3   7
HETATM    7  N   UNL     1      -6.940 -13.376 -36.835  1.00  0.00    -0.331 N 
HETATM    8  H   UNL     1      -6.219 -12.794 -36.429  1.00  0.00     0.168 HD
BRANCH   7   9
HETATM    9  C   UNL     1      -7.051 -14.608 -36.283  1.00  0.00     0.179 C 
HETATM   10  S   UNL     1      -7.664 -15.862 -37.200  1.00  0.00    -0.040 SA
BRANCH   9  11
HETATM   11  N   UNL     1      -6.615 -14.858 -35.017  1.00  0.00    -0.299 N 
HETATM   12  C   UNL     1      -5.467 -14.326 -34.430  1.00  0.00     0.258 C 
HETATM   13  O   UNL     1      -4.852 -13.346 -34.837  1.00  0.00    -0.267 OA
HETATM   14  H   UNL     1      -6.918 -15.756 -34.668  1.00  0.00     0.171 HD
BRANCH  12  15
HETATM   15  C   UNL     1      -4.978 -15.069 -33.225  1.00  0.00     0.038 A 
HETATM   16  C   UNL     1      -3.934 -16.012 -33.319  1.00  0.00    -0.046 A 
HETATM   17  C   UNL     1      -3.252 -16.336 -34.620  1.00  0.00     0.049 C 
HETATM   18  C   UNL     1      -3.530 -16.695 -32.158  1.00  0.00     0.007 A 
HETATM   19  C   UNL     1      -4.141 -16.447 -30.929  1.00  0.00     0.001 A 
HETATM   20  C   UNL     1      -5.179 -15.526 -30.841  1.00  0.00     0.001 A 
HETATM   21  C   UNL     1      -5.606 -14.849 -31.984  1.00  0.00     0.017 A 
ENDBRANCH  12  15
ENDBRANCH   9  11
ENDBRANCH   7   9
ENDBRANCH   3   7
BRANCH   4  22
HETATM   22  N   UNL     1      -4.922 -13.347 -38.888  1.00  0.00    -0.376 N 
HETATM   23  C   UNL     1      -4.320 -14.656 -39.175  1.00  0.00     0.150 C 
HETATM   24  C   UNL     1      -3.262 -14.983 -38.099  1.00  0.00     0.255 C 
HETATM   25  N   UNL     1      -2.253 -13.833 -37.963  1.00  0.00    -0.064 N 
HETATM   26  H   UNL     1      -1.790 -13.744 -38.874  1.00  0.00     0.280 HD
HETATM   27  C   UNL     1      -2.960 -12.511 -37.671  1.00  0.00     0.255 C 
HETATM   28  C   UNL     1      -4.025 -12.201 -38.742  1.00  0.00     0.150 C 
BRANCH  25  29
HETATM   29  C   UNL     1      -1.181 -14.122 -36.944  1.00  0.00     0.273 C 
BRANCH  29  30
HETATM   30  C   UNL     1      -0.015 -14.875 -37.521  1.00  0.00    -0.033 A 
HETATM   31  C   UNL     1       0.650 -14.391 -38.659  1.00  0.00     0.009 A 
HETATM   32  C   UNL     1       1.717 -15.101 -39.210  1.00  0.00     0.001 A 
HETATM   33  C   UNL     1       2.130 -16.299 -38.632  1.00  0.00     0.000 A 
HETATM   34  C   UNL     1       1.482 -16.787 -37.500  1.00  0.00     0.001 A 
HETATM   35  C   UNL     1       0.415 -16.080 -36.945  1.00  0.00     0.009 A 
ENDBRANCH  29  30
ENDBRANCH  25  29
ENDBRANCH   4  22
BRANCH   1  36
HETATM   36  C   UNL     1     -10.354 -12.194 -40.189  1.00  0.00     0.293 C 
HETATM   37  O   UNL     1     -10.736 -11.109 -40.592  1.00  0.00    -0.259 OA
BRANCH  36  38
HETATM   38  O   UNL     1     -11.125 -13.274 -39.915  1.00  0.00    -0.318 OA
BRANCH  38  39
HETATM   39  C   UNL     1     -11.211 -14.266 -40.950  1.00  0.00     0.174 C 
HETATM   40  C   UNL     1     -10.472 -15.519 -40.524  1.00  0.00     0.034 C 
ENDBRANCH  38  39
ENDBRANCH  36  38
ENDBRANCH   1  36
TORSDOF 10
ENDMDL
