MODEL 1
REMARK VINA RESULT:      -9.5      0.000      0.000
REMARK  5 active torsions:
REMARK  status: ('A' for Active; 'I' for Inactive)
REMARK    1  A    between atoms: N_4  and  C_5 
REMARK    2  A    between atoms: C_14  and  C_15 
REMARK       I    between atoms: C_15  and  N_16 
REMARK    3  A    between atoms: N_16  and  N_17 
REMARK    4  A    between atoms: N_17  and  C_18 
REMARK    5  A    between atoms: N_19  and  C_20 
ROOT
HETATM    1  C   UNL     1      -3.949   3.084 -31.464  1.00  0.00     0.277 C 
HETATM    2  N   UNL     1      -4.608   4.139 -30.859  1.00  0.00    -0.263 N 
HETATM    3  O   UNL     1      -2.724   2.979 -31.410  1.00  0.00    -0.265 OA
HETATM    4  H   UNL     1      -5.616   4.258 -30.935  1.00  0.00     0.190 HD
ENDROOT
BRANCH   1   5
HETATM    5  C   UNL     1      -4.804   2.127 -32.154  1.00  0.00     0.077 A 
HETATM    6  S   UNL     1      -4.300   0.470 -32.397  1.00  0.00    -0.064 SA
HETATM    7  C   UNL     1      -5.704   0.134 -33.228  1.00  0.00     0.113 A 
HETATM    8  N   UNL     1      -6.318  -0.902 -33.889  1.00  0.00    -0.226 N 
HETATM    9  C   UNL     1      -6.514   1.193 -33.309  1.00  0.00     0.027 A 
HETATM   10  N   UNL     1      -7.547  -0.472 -34.367  1.00  0.00    -0.171 NA
HETATM   11  C   UNL     1      -7.650   0.821 -34.003  1.00  0.00     0.064 A 
HETATM   12  C   UNL     1      -8.850   1.615 -34.351  1.00  0.00     0.073 C 
HETATM   13  C   UNL     1      -6.058   2.367 -32.719  1.00  0.00     0.041 A 
BRANCH   8  14
HETATM   14  C   UNL     1      -5.884  -2.237 -34.140  1.00  0.00     0.059 A 
HETATM   15  C   UNL     1      -6.811  -3.171 -34.634  1.00  0.00     0.031 A 
HETATM   16  C   UNL     1      -6.422  -4.486 -34.907  1.00  0.00     0.002 A 
HETATM   17  C   UNL     1      -5.106  -4.883 -34.686  1.00  0.00     0.000 A 
HETATM   18  C   UNL     1      -4.181  -3.968 -34.192  1.00  0.00     0.002 A 
HETATM   19  C   UNL     1      -4.565  -2.650 -33.919  1.00  0.00     0.031 A 
ENDBRANCH   8  14
ENDBRANCH   1   5
BRANCH   2  20
HETATM   20  N   UNL     1      -3.888   5.121 -30.166  1.00  0.00    -0.273 N 
HETATM   21  H   UNL     1      -3.622   4.852 -29.219  1.00  0.00     0.189 HD
BRANCH  20  22
HETATM   22  C   UNL     1      -4.071   6.446 -30.456  1.00  0.00     0.191 C 
HETATM   23  N   UNL     1      -3.530   6.943 -31.602  1.00  0.00    -0.331 N 
HETATM   24  H   UNL     1      -3.515   7.960 -31.620  1.00  0.00     0.168 HD
HETATM   25  S   UNL     1      -4.883   7.523 -29.453  1.00  0.00    -0.039 SA
BRANCH  23  26
HETATM   26  C   UNL     1      -2.992   6.336 -32.760  1.00  0.00     0.056 A 
HETATM   27  C   UNL     1      -1.589   6.255 -32.872  1.00  0.00     0.060 A 
HETATM   28 CL   UNL     1      -0.556   6.862 -31.621  1.00  0.00    -0.082 Cl
HETATM   29  C   UNL     1      -0.986   5.671 -33.989  1.00  0.00     0.026 A 
HETATM   30  C   UNL     1      -1.777   5.174 -35.021  1.00  0.00     0.002 A 
HETATM   31  C   UNL     1      -3.163   5.281 -34.942  1.00  0.00     0.002 A 
HETATM   32  C   UNL     1      -3.769   5.868 -33.824  1.00  0.00     0.031 A 
ENDBRANCH  23  26
ENDBRANCH  20  22
ENDBRANCH   2  20
TORSDOF 5
ENDMDL
MODEL 2
REMARK VINA RESULT:      -9.3      2.222      2.958
REMARK  5 active torsions:
REMARK  status: ('A' for Active; 'I' for Inactive)
REMARK    1  A    between atoms: N_4  and  C_5 
REMARK    2  A    between atoms: C_14  and  C_15 
REMARK       I    between atoms: C_15  and  N_16 
REMARK    3  A    between atoms: N_16  and  N_17 
REMARK    4  A    between atoms: N_17  and  C_18 
REMARK    5  A    between atoms: N_19  and  C_20 
ROOT
HETATM    1  C   UNL     1      -3.548   3.072 -32.020  1.00  0.00     0.277 C 
HETATM    2  N   UNL     1      -3.738   4.378 -32.433  1.00  0.00    -0.263 N 
HETATM    3  O   UNL     1      -2.649   2.773 -31.234  1.00  0.00    -0.265 OA
HETATM    4  H   UNL     1      -4.450   4.629 -33.115  1.00  0.00     0.190 HD
ENDROOT
BRANCH   1   5
HETATM    5  C   UNL     1      -4.479   2.099 -32.578  1.00  0.00     0.077 A 
HETATM    6  S   UNL     1      -4.031   0.420 -32.769  1.00  0.00    -0.064 SA
HETATM    7  C   UNL     1      -5.509   0.073 -33.454  1.00  0.00     0.113 A 
HETATM    8  N   UNL     1      -6.199  -0.982 -33.999  1.00  0.00    -0.226 N 
HETATM    9  C   UNL     1      -6.302   1.145 -33.524  1.00  0.00     0.027 A 
HETATM   10  N   UNL     1      -7.457  -0.549 -34.392  1.00  0.00    -0.171 NA
HETATM   11  C   UNL     1      -7.502   0.764 -34.094  1.00  0.00     0.064 A 
HETATM   12  C   UNL     1      -8.712   1.567 -34.381  1.00  0.00     0.073 C 
HETATM   13  C   UNL     1      -5.773   2.339 -33.044  1.00  0.00     0.041 A 
BRANCH   8  14
HETATM   14  C   UNL     1      -5.815  -2.339 -34.211  1.00  0.00     0.059 A 
HETATM   15  C   UNL     1      -6.767  -3.245 -34.710  1.00  0.00     0.031 A 
HETATM   16  C   UNL     1      -6.426  -4.580 -34.945  1.00  0.00     0.002 A 
HETATM   17  C   UNL     1      -5.134  -5.026 -34.681  1.00  0.00     0.000 A 
HETATM   18  C   UNL     1      -4.185  -4.140 -34.181  1.00  0.00     0.002 A 
HETATM   19  C   UNL     1      -4.520  -2.802 -33.945  1.00  0.00     0.031 A 
ENDBRANCH   8  14
ENDBRANCH   1   5
BRANCH   2  20
HETATM   20  N   UNL     1      -2.903   5.400 -31.960  1.00  0.00    -0.273 N 
HETATM   21  H   UNL     1      -3.350   6.030 -31.296  1.00  0.00     0.189 HD
BRANCH  20  22
HETATM   22  C   UNL     1      -1.877   5.868 -32.737  1.00  0.00     0.191 C 
HETATM   23  N   UNL     1      -1.002   6.757 -32.192  1.00  0.00    -0.331 N 
HETATM   24  H   UNL     1      -0.425   7.219 -32.892  1.00  0.00     0.168 HD
HETATM   25  S   UNL     1      -1.656   5.454 -34.350  1.00  0.00    -0.039 SA
BRANCH  23  26
HETATM   26  C   UNL     1      -0.734   7.162 -30.863  1.00  0.00     0.056 A 
HETATM   27  C   UNL     1       0.220   6.428 -30.129  1.00  0.00     0.060 A 
HETATM   28 CL   UNL     1       1.053   5.085 -30.838  1.00  0.00    -0.082 Cl
HETATM   29  C   UNL     1       0.533   6.769 -28.811  1.00  0.00     0.026 A 
HETATM   30  C   UNL     1      -0.115   7.838 -28.199  1.00  0.00     0.002 A 
HETATM   31  C   UNL     1      -1.087   8.548 -28.900  1.00  0.00     0.002 A 
HETATM   32  C   UNL     1      -1.404   8.207 -30.221  1.00  0.00     0.031 A 
ENDBRANCH  23  26
ENDBRANCH  20  22
ENDBRANCH   2  20
TORSDOF 5
ENDMDL
MODEL 3
REMARK VINA RESULT:      -9.2      2.269      3.201
REMARK  5 active torsions:
REMARK  status: ('A' for Active; 'I' for Inactive)
REMARK    1  A    between atoms: N_4  and  C_5 
REMARK    2  A    between atoms: C_14  and  C_15 
REMARK       I    between atoms: C_15  and  N_16 
REMARK    3  A    between atoms: N_16  and  N_17 
REMARK    4  A    between atoms: N_17  and  C_18 
REMARK    5  A    between atoms: N_19  and  C_20 
ROOT
HETATM    1  C   UNL     1      -4.063   3.442 -32.026  1.00  0.00     0.277 C 
HETATM    2  N   UNL     1      -2.826   3.566 -32.633  1.00  0.00    -0.263 N 
HETATM    3  O   UNL     1      -4.397   4.175 -31.095  1.00  0.00    -0.265 OA
HETATM    4  H   UNL     1      -2.524   2.937 -33.374  1.00  0.00     0.190 HD
ENDROOT
BRANCH   1   5
HETATM    5  C   UNL     1      -4.922   2.397 -32.568  1.00  0.00     0.077 A 
HETATM    6  S   UNL     1      -4.348   0.756 -32.757  1.00  0.00    -0.064 SA
HETATM    7  C   UNL     1      -5.803   0.293 -33.423  1.00  0.00     0.113 A 
HETATM    8  N   UNL     1      -6.416  -0.815 -33.956  1.00  0.00    -0.226 N 
HETATM    9  C   UNL     1      -6.677   1.301 -33.489  1.00  0.00     0.027 A 
HETATM   10  N   UNL     1      -7.708  -0.482 -34.335  1.00  0.00    -0.171 NA
HETATM   11  C   UNL     1      -7.851   0.825 -34.042  1.00  0.00     0.064 A 
HETATM   12  C   UNL     1      -9.122   1.531 -34.318  1.00  0.00     0.073 C 
HETATM   13  C   UNL     1      -6.236   2.534 -33.020  1.00  0.00     0.041 A 
BRANCH   8  14
HETATM   14  C   UNL     1      -5.931  -2.140 -34.166  1.00  0.00     0.059 A 
HETATM   15  C   UNL     1      -4.601  -2.438 -33.824  1.00  0.00     0.031 A 
HETATM   16  C   UNL     1      -4.092  -3.728 -34.001  1.00  0.00     0.002 A 
HETATM   17  C   UNL     1      -4.903  -4.732 -34.522  1.00  0.00     0.000 A 
HETATM   18  C   UNL     1      -6.220  -4.446 -34.869  1.00  0.00     0.002 A 
HETATM   19  C   UNL     1      -6.735  -3.157 -34.693  1.00  0.00     0.031 A 
ENDBRANCH   8  14
ENDBRANCH   1   5
BRANCH   2  20
HETATM   20  N   UNL     1      -1.916   4.539 -32.195  1.00  0.00    -0.273 N 
HETATM   21  H   UNL     1      -1.977   4.748 -31.200  1.00  0.00     0.189 HD
BRANCH  20  22
HETATM   22  C   UNL     1      -1.474   5.508 -33.054  1.00  0.00     0.191 C 
HETATM   23  N   UNL     1      -1.082   6.705 -32.538  1.00  0.00    -0.331 N 
HETATM   24  H   UNL     1      -0.992   7.428 -33.249  1.00  0.00     0.168 HD
HETATM   25  S   UNL     1      -1.431   5.334 -34.725  1.00  0.00    -0.039 SA
BRANCH  23  26
HETATM   26  C   UNL     1      -0.775   7.141 -31.229  1.00  0.00     0.056 A 
HETATM   27  C   UNL     1      -1.680   8.017 -30.595  1.00  0.00     0.060 A 
HETATM   28 CL   UNL     1      -3.133   8.528 -31.389  1.00  0.00    -0.082 Cl
HETATM   29  C   UNL     1      -1.442   8.490 -29.303  1.00  0.00     0.026 A 
HETATM   30  C   UNL     1      -0.285   8.110 -28.629  1.00  0.00     0.002 A 
HETATM   31  C   UNL     1       0.637   7.275 -29.256  1.00  0.00     0.002 A 
HETATM   32  C   UNL     1       0.400   6.801 -30.552  1.00  0.00     0.031 A 
ENDBRANCH  23  26
ENDBRANCH  20  22
ENDBRANCH   2  20
TORSDOF 5
ENDMDL
MODEL 4
REMARK VINA RESULT:      -8.9      4.493      7.230
REMARK  5 active torsions:
REMARK  status: ('A' for Active; 'I' for Inactive)
REMARK    1  A    between atoms: N_4  and  C_5 
REMARK    2  A    between atoms: C_14  and  C_15 
REMARK       I    between atoms: C_15  and  N_16 
REMARK    3  A    between atoms: N_16  and  N_17 
REMARK    4  A    between atoms: N_17  and  C_18 
REMARK    5  A    between atoms: N_19  and  C_20 
ROOT
HETATM    1  C   UNL     1      -8.937   3.226 -30.712  1.00  0.00     0.277 C 
HETATM    2  N   UNL     1     -10.163   2.839 -31.220  1.00  0.00    -0.263 N 
HETATM    3  O   UNL     1      -8.849   4.089 -29.838  1.00  0.00    -0.265 OA
HETATM    4  H   UNL     1     -10.243   2.158 -31.973  1.00  0.00     0.190 HD
ENDROOT
BRANCH   1   5
HETATM    5  C   UNL     1      -7.781   2.545 -31.281  1.00  0.00     0.077 A 
HETATM    6  S   UNL     1      -7.950   1.028 -32.135  1.00  0.00    -0.064 SA
HETATM    7  C   UNL     1      -6.304   0.943 -32.370  1.00  0.00     0.113 A 
HETATM    8  N   UNL     1      -5.358   0.117 -32.925  1.00  0.00    -0.226 N 
HETATM    9  C   UNL     1      -5.661   1.994 -31.855  1.00  0.00     0.027 A 
HETATM   10  N   UNL     1      -4.104   0.689 -32.767  1.00  0.00    -0.171 NA
HETATM   11  C   UNL     1      -4.309   1.844 -32.104  1.00  0.00     0.064 A 
HETATM   12  C   UNL     1      -3.177   2.731 -31.754  1.00  0.00     0.073 C 
HETATM   13  C   UNL     1      -6.446   2.947 -31.213  1.00  0.00     0.041 A 
BRANCH   8  14
HETATM   14  C   UNL     1      -5.486  -1.149 -33.570  1.00  0.00     0.059 A 
HETATM   15  C   UNL     1      -4.348  -1.964 -33.701  1.00  0.00     0.031 A 
HETATM   16  C   UNL     1      -4.435  -3.217 -34.313  1.00  0.00     0.002 A 
HETATM   17  C   UNL     1      -5.656  -3.669 -34.804  1.00  0.00     0.000 A 
HETATM   18  C   UNL     1      -6.789  -2.869 -34.686  1.00  0.00     0.002 A 
HETATM   19  C   UNL     1      -6.708  -1.614 -34.072  1.00  0.00     0.031 A 
ENDBRANCH   8  14
ENDBRANCH   1   5
BRANCH   2  20
HETATM   20  N   UNL     1     -11.345   3.426 -30.747  1.00  0.00    -0.273 N 
HETATM   21  H   UNL     1     -11.939   2.794 -30.212  1.00  0.00     0.189 HD
BRANCH  20  22
HETATM   22  C   UNL     1     -11.920   4.466 -31.426  1.00  0.00     0.191 C 
HETATM   23  N   UNL     1     -12.658   4.190 -32.536  1.00  0.00    -0.331 N 
HETATM   24  H   UNL     1     -12.848   5.018 -33.097  1.00  0.00     0.168 HD
HETATM   25  S   UNL     1     -11.729   6.082 -31.006  1.00  0.00    -0.039 SA
BRANCH  23  26
HETATM   26  C   UNL     1     -13.210   2.998 -33.059  1.00  0.00     0.056 A 
HETATM   27  C   UNL     1     -12.514   2.350 -34.101  1.00  0.00     0.060 A 
HETATM   28 CL   UNL     1     -11.020   2.983 -34.707  1.00  0.00    -0.082 Cl
HETATM   29  C   UNL     1     -13.001   1.170 -34.668  1.00  0.00     0.026 A 
HETATM   30  C   UNL     1     -14.200   0.627 -34.216  1.00  0.00     0.002 A 
HETATM   31  C   UNL     1     -14.917   1.277 -33.214  1.00  0.00     0.002 A 
HETATM   32  C   UNL     1     -14.432   2.461 -32.645  1.00  0.00     0.031 A 
ENDBRANCH  23  26
ENDBRANCH  20  22
ENDBRANCH   2  20
TORSDOF 5
ENDMDL
MODEL 5
REMARK VINA RESULT:      -8.9      2.071      2.847
REMARK  5 active torsions:
REMARK  status: ('A' for Active; 'I' for Inactive)
REMARK    1  A    between atoms: N_4  and  C_5 
REMARK    2  A    between atoms: C_14  and  C_15 
REMARK       I    between atoms: C_15  and  N_16 
REMARK    3  A    between atoms: N_16  and  N_17 
REMARK    4  A    between atoms: N_17  and  C_18 
REMARK    5  A    between atoms: N_19  and  C_20 
ROOT
HETATM    1  C   UNL     1      -3.843   3.057 -31.543  1.00  0.00     0.277 C 
HETATM    2  N   UNL     1      -4.452   4.221 -31.111  1.00  0.00    -0.263 N 
HETATM    3  O   UNL     1      -2.643   2.853 -31.356  1.00  0.00    -0.265 OA
HETATM    4  H   UNL     1      -5.433   4.417 -31.299  1.00  0.00     0.190 HD
ENDROOT
BRANCH   1   5
HETATM    5  C   UNL     1      -4.718   2.109 -32.221  1.00  0.00     0.077 A 
HETATM    6  S   UNL     1      -4.242   0.443 -32.457  1.00  0.00    -0.064 SA
HETATM    7  C   UNL     1      -5.658   0.123 -33.275  1.00  0.00     0.113 A 
HETATM    8  N   UNL     1      -6.293  -0.906 -33.925  1.00  0.00    -0.226 N 
HETATM    9  C   UNL     1      -6.452   1.195 -33.357  1.00  0.00     0.027 A 
HETATM   10  N   UNL     1      -7.519  -0.460 -34.396  1.00  0.00    -0.171 NA
HETATM   11  C   UNL     1      -7.599   0.837 -34.039  1.00  0.00     0.064 A 
HETATM   12  C   UNL     1      -8.789   1.647 -34.382  1.00  0.00     0.073 C 
HETATM   13  C   UNL     1      -5.973   2.365 -32.777  1.00  0.00     0.041 A 
BRANCH   8  14
HETATM   14  C   UNL     1      -5.882  -2.249 -34.172  1.00  0.00     0.059 A 
HETATM   15  C   UNL     1      -6.822  -3.167 -34.670  1.00  0.00     0.031 A 
HETATM   16  C   UNL     1      -6.455  -4.489 -34.938  1.00  0.00     0.002 A 
HETATM   17  C   UNL     1      -5.149  -4.910 -34.709  1.00  0.00     0.000 A 
HETATM   18  C   UNL     1      -4.210  -4.011 -34.211  1.00  0.00     0.002 A 
HETATM   19  C   UNL     1      -4.571  -2.686 -33.942  1.00  0.00     0.031 A 
ENDBRANCH   8  14
ENDBRANCH   1   5
BRANCH   2  20
HETATM   20  N   UNL     1      -3.708   5.206 -30.446  1.00  0.00    -0.273 N 
HETATM   21  H   UNL     1      -3.274   4.886 -29.581  1.00  0.00     0.189 HD
BRANCH  20  22
HETATM   22  C   UNL     1      -4.037   6.528 -30.578  1.00  0.00     0.191 C 
HETATM   23  N   UNL     1      -3.202   7.462 -30.048  1.00  0.00    -0.331 N 
HETATM   24  H   UNL     1      -3.631   8.383 -29.989  1.00  0.00     0.168 HD
HETATM   25  S   UNL     1      -5.444   7.076 -31.315  1.00  0.00    -0.039 SA
BRANCH  23  26
HETATM   26  C   UNL     1      -1.872   7.412 -29.568  1.00  0.00     0.056 A 
HETATM   27  C   UNL     1      -1.663   7.572 -28.183  1.00  0.00     0.060 A 
HETATM   28 CL   UNL     1      -2.994   7.803 -27.100  1.00  0.00    -0.082 Cl
HETATM   29  C   UNL     1      -0.377   7.536 -27.639  1.00  0.00     0.026 A 
HETATM   30  C   UNL     1       0.723   7.357 -28.473  1.00  0.00     0.002 A 
HETATM   31  C   UNL     1       0.534   7.236 -29.847  1.00  0.00     0.002 A 
HETATM   32  C   UNL     1      -0.754   7.273 -30.395  1.00  0.00     0.031 A 
ENDBRANCH  23  26
ENDBRANCH  20  22
ENDBRANCH   2  20
TORSDOF 5
ENDMDL
MODEL 6
REMARK VINA RESULT:      -8.6      1.671      2.055
REMARK  5 active torsions:
REMARK  status: ('A' for Active; 'I' for Inactive)
REMARK    1  A    between atoms: N_4  and  C_5 
REMARK    2  A    between atoms: C_14  and  C_15 
REMARK       I    between atoms: C_15  and  N_16 
REMARK    3  A    between atoms: N_16  and  N_17 
REMARK    4  A    between atoms: N_17  and  C_18 
REMARK    5  A    between atoms: N_19  and  C_20 
ROOT
HETATM    1  C   UNL     1      -6.160   4.799 -32.432  1.00  0.00     0.277 C 
HETATM    2  N   UNL     1      -5.796   5.057 -31.124  1.00  0.00    -0.263 N 
HETATM    3  O   UNL     1      -6.054   5.657 -33.309  1.00  0.00    -0.265 OA
HETATM    4  H   UNL     1      -5.920   4.369 -30.385  1.00  0.00     0.190 HD
ENDROOT
BRANCH   1   5
HETATM    5  C   UNL     1      -6.666   3.456 -32.687  1.00  0.00     0.077 A 
HETATM    6  S   UNL     1      -5.581   2.111 -32.949  1.00  0.00    -0.064 SA
HETATM    7  C   UNL     1      -6.867   1.082 -33.192  1.00  0.00     0.113 A 
HETATM    8  N   UNL     1      -7.126  -0.232 -33.499  1.00  0.00    -0.226 N 
HETATM    9  C   UNL     1      -8.045   1.701 -33.071  1.00  0.00     0.027 A 
HETATM   10  N   UNL     1      -8.499  -0.428 -33.543  1.00  0.00    -0.171 NA
HETATM   11  C   UNL     1      -9.049   0.774 -33.279  1.00  0.00     0.064 A 
HETATM   12  C   UNL     1     -10.519   0.945 -33.244  1.00  0.00     0.073 C 
HETATM   13  C   UNL     1      -8.002   3.062 -32.786  1.00  0.00     0.041 A 
BRANCH   8  14
HETATM   14  C   UNL     1      -6.243  -1.318 -33.772  1.00  0.00     0.059 A 
HETATM   15  C   UNL     1      -4.984  -1.343 -33.148  1.00  0.00     0.031 A 
HETATM   16  C   UNL     1      -4.095  -2.398 -33.378  1.00  0.00     0.002 A 
HETATM   17  C   UNL     1      -4.452  -3.436 -34.233  1.00  0.00     0.000 A 
HETATM   18  C   UNL     1      -5.695  -3.419 -34.861  1.00  0.00     0.002 A 
HETATM   19  C   UNL     1      -6.588  -2.366 -34.634  1.00  0.00     0.031 A 
ENDBRANCH   8  14
ENDBRANCH   1   5
BRANCH   2  20
HETATM   20  N   UNL     1      -5.294   6.316 -30.763  1.00  0.00    -0.273 N 
HETATM   21  H   UNL     1      -5.458   7.044 -31.456  1.00  0.00     0.189 HD
BRANCH  20  22
HETATM   22  C   UNL     1      -4.209   6.416 -29.935  1.00  0.00     0.191 C 
HETATM   23  N   UNL     1      -2.979   6.114 -30.435  1.00  0.00    -0.331 N 
HETATM   24  H   UNL     1      -2.279   5.992 -29.707  1.00  0.00     0.168 HD
HETATM   25  S   UNL     1      -4.301   6.841 -28.312  1.00  0.00    -0.039 SA
BRANCH  23  26
HETATM   26  C   UNL     1      -2.485   5.939 -31.748  1.00  0.00     0.056 A 
HETATM   27  C   UNL     1      -2.040   7.081 -32.445  1.00  0.00     0.060 A 
HETATM   28 CL   UNL     1      -2.081   8.648 -31.708  1.00  0.00    -0.082 Cl
HETATM   29  C   UNL     1      -1.541   6.984 -33.746  1.00  0.00     0.026 A 
HETATM   30  C   UNL     1      -1.495   5.746 -34.379  1.00  0.00     0.002 A 
HETATM   31  C   UNL     1      -1.965   4.614 -33.717  1.00  0.00     0.002 A 
HETATM   32  C   UNL     1      -2.467   4.709 -32.414  1.00  0.00     0.031 A 
ENDBRANCH  23  26
ENDBRANCH  20  22
ENDBRANCH   2  20
TORSDOF 5
ENDMDL
MODEL 7
REMARK VINA RESULT:      -8.6      4.670      7.384
REMARK  5 active torsions:
REMARK  status: ('A' for Active; 'I' for Inactive)
REMARK    1  A    between atoms: N_4  and  C_5 
REMARK    2  A    between atoms: C_14  and  C_15 
REMARK       I    between atoms: C_15  and  N_16 
REMARK    3  A    between atoms: N_16  and  N_17 
REMARK    4  A    between atoms: N_17  and  C_18 
REMARK    5  A    between atoms: N_19  and  C_20 
ROOT
HETATM    1  C   UNL     1      -9.162   1.700 -32.207  1.00  0.00     0.277 C 
HETATM    2  N   UNL     1      -9.374   2.938 -31.630  1.00  0.00    -0.263 N 
HETATM    3  O   UNL     1     -10.102   0.996 -32.578  1.00  0.00    -0.265 OA
HETATM    4  H   UNL     1      -8.606   3.509 -31.282  1.00  0.00     0.190 HD
ENDROOT
BRANCH   1   5
HETATM    5  C   UNL     1      -7.766   1.304 -32.342  1.00  0.00     0.077 A 
HETATM    6  S   UNL     1      -7.320  -0.352 -32.684  1.00  0.00    -0.064 SA
HETATM    7  C   UNL     1      -5.702   0.039 -32.621  1.00  0.00     0.113 A 
HETATM    8  N   UNL     1      -4.468  -0.552 -32.730  1.00  0.00    -0.226 N 
HETATM    9  C   UNL     1      -5.501   1.336 -32.373  1.00  0.00     0.027 A 
HETATM   10  N   UNL     1      -3.484   0.413 -32.569  1.00  0.00    -0.171 NA
HETATM   11  C   UNL     1      -4.139   1.570 -32.348  1.00  0.00     0.064 A 
HETATM   12  C   UNL     1      -3.398   2.832 -32.127  1.00  0.00     0.073 C 
HETATM   13  C   UNL     1      -6.640   2.117 -32.199  1.00  0.00     0.041 A 
BRANCH   8  14
HETATM   14  C   UNL     1      -4.100  -1.913 -32.950  1.00  0.00     0.059 A 
HETATM   15  C   UNL     1      -3.284  -2.557 -32.005  1.00  0.00     0.031 A 
HETATM   16  C   UNL     1      -2.913  -3.894 -32.177  1.00  0.00     0.002 A 
HETATM   17  C   UNL     1      -3.351  -4.600 -33.293  1.00  0.00     0.000 A 
HETATM   18  C   UNL     1      -4.156  -3.970 -34.239  1.00  0.00     0.002 A 
HETATM   19  C   UNL     1      -4.530  -2.633 -34.071  1.00  0.00     0.031 A 
ENDBRANCH   8  14
ENDBRANCH   1   5
BRANCH   2  20
HETATM   20  N   UNL     1     -10.677   3.424 -31.451  1.00  0.00    -0.273 N 
HETATM   21  H   UNL     1     -11.342   2.721 -31.129  1.00  0.00     0.189 HD
BRANCH  20  22
HETATM   22  C   UNL     1     -11.130   4.480 -32.194  1.00  0.00     0.191 C 
HETATM   23  N   UNL     1     -12.067   4.246 -33.153  1.00  0.00    -0.331 N 
HETATM   24  H   UNL     1     -12.171   5.027 -33.798  1.00  0.00     0.168 HD
HETATM   25  S   UNL     1     -10.561   6.053 -32.035  1.00  0.00    -0.039 SA
BRANCH  23  26
HETATM   26  C   UNL     1     -12.917   3.150 -33.430  1.00  0.00     0.056 A 
HETATM   27  C   UNL     1     -14.029   2.948 -32.588  1.00  0.00     0.060 A 
HETATM   28 CL   UNL     1     -14.356   4.020 -31.267  1.00  0.00    -0.082 Cl
HETATM   29  C   UNL     1     -14.910   1.885 -32.799  1.00  0.00     0.026 A 
HETATM   30  C   UNL     1     -14.684   0.995 -33.846  1.00  0.00     0.002 A 
HETATM   31  C   UNL     1     -13.568   1.161 -34.663  1.00  0.00     0.002 A 
HETATM   32  C   UNL     1     -12.683   2.225 -34.451  1.00  0.00     0.031 A 
ENDBRANCH  23  26
ENDBRANCH  20  22
ENDBRANCH   2  20
TORSDOF 5
ENDMDL
MODEL 8
REMARK VINA RESULT:      -8.4      2.705      4.738
REMARK  5 active torsions:
REMARK  status: ('A' for Active; 'I' for Inactive)
REMARK    1  A    between atoms: N_4  and  C_5 
REMARK    2  A    between atoms: C_14  and  C_15 
REMARK       I    between atoms: C_15  and  N_16 
REMARK    3  A    between atoms: N_16  and  N_17 
REMARK    4  A    between atoms: N_17  and  C_18 
REMARK    5  A    between atoms: N_19  and  C_20 
ROOT
HETATM    1  C   UNL     1      -6.088   5.363 -32.752  1.00  0.00     0.277 C 
HETATM    2  N   UNL     1      -6.071   5.550 -31.382  1.00  0.00    -0.263 N 
HETATM    3  O   UNL     1      -5.508   6.140 -33.512  1.00  0.00    -0.265 OA
HETATM    4  H   UNL     1      -6.583   4.938 -30.749  1.00  0.00     0.190 HD
ENDROOT
BRANCH   1   5
HETATM    5  C   UNL     1      -6.828   4.196 -33.215  1.00  0.00     0.077 A 
HETATM    6  S   UNL     1      -8.571   4.220 -33.348  1.00  0.00    -0.064 SA
HETATM    7  C   UNL     1      -8.585   2.630 -33.843  1.00  0.00     0.113 A 
HETATM    8  N   UNL     1      -9.470   1.641 -34.197  1.00  0.00    -0.226 N 
HETATM    9  C   UNL     1      -7.357   2.110 -33.921  1.00  0.00     0.027 A 
HETATM   10  N   UNL     1      -8.763   0.493 -34.524  1.00  0.00    -0.171 NA
HETATM   11  C   UNL     1      -7.463   0.799 -34.346  1.00  0.00     0.064 A 
HETATM   12  C   UNL     1      -6.404  -0.203 -34.602  1.00  0.00     0.073 C 
HETATM   13  C   UNL     1      -6.305   2.952 -33.572  1.00  0.00     0.041 A 
BRANCH   8  14
HETATM   14  C   UNL     1     -10.895   1.639 -34.249  1.00  0.00     0.059 A 
HETATM   15  C   UNL     1     -11.549   2.635 -34.995  1.00  0.00     0.031 A 
HETATM   16  C   UNL     1     -12.944   2.660 -35.083  1.00  0.00     0.002 A 
HETATM   17  C   UNL     1     -13.700   1.693 -34.427  1.00  0.00     0.000 A 
HETATM   18  C   UNL     1     -13.064   0.704 -33.682  1.00  0.00     0.002 A 
HETATM   19  C   UNL     1     -11.667   0.675 -33.591  1.00  0.00     0.031 A 
ENDBRANCH   8  14
ENDBRANCH   1   5
BRANCH   2  20
HETATM   20  N   UNL     1      -5.389   6.640 -30.823  1.00  0.00    -0.273 N 
HETATM   21  H   UNL     1      -5.332   7.453 -31.435  1.00  0.00     0.189 HD
BRANCH  20  22
HETATM   22  C   UNL     1      -4.409   6.436 -29.890  1.00  0.00     0.191 C 
HETATM   23  N   UNL     1      -3.174   6.057 -30.316  1.00  0.00    -0.331 N 
HETATM   24  H   UNL     1      -2.588   5.710 -29.559  1.00  0.00     0.168 HD
HETATM   25  S   UNL     1      -4.647   6.576 -28.232  1.00  0.00    -0.039 SA
BRANCH  23  26
HETATM   26  C   UNL     1      -2.547   6.048 -31.583  1.00  0.00     0.056 A 
HETATM   27  C   UNL     1      -2.470   4.822 -32.274  1.00  0.00     0.060 A 
HETATM   28 CL   UNL     1      -3.140   3.374 -31.600  1.00  0.00    -0.082 Cl
HETATM   29  C   UNL     1      -1.863   4.738 -33.529  1.00  0.00     0.026 A 
HETATM   30  C   UNL     1      -1.306   5.876 -34.107  1.00  0.00     0.002 A 
HETATM   31  C   UNL     1      -1.342   7.086 -33.419  1.00  0.00     0.002 A 
HETATM   32  C   UNL     1      -1.948   7.172 -32.160  1.00  0.00     0.031 A 
ENDBRANCH  23  26
ENDBRANCH  20  22
ENDBRANCH   2  20
TORSDOF 5
ENDMDL
MODEL 9
REMARK VINA RESULT:      -8.4      1.716      3.642
REMARK  5 active torsions:
REMARK  status: ('A' for Active; 'I' for Inactive)
REMARK    1  A    between atoms: N_4  and  C_5 
REMARK    2  A    between atoms: C_14  and  C_15 
REMARK       I    between atoms: C_15  and  N_16 
REMARK    3  A    between atoms: N_16  and  N_17 
REMARK    4  A    between atoms: N_17  and  C_18 
REMARK    5  A    between atoms: N_19  and  C_20 
ROOT
HETATM    1  C   UNL     1      -3.477   3.467 -31.286  1.00  0.00     0.277 C 
HETATM    2  N   UNL     1      -4.132   4.505 -30.650  1.00  0.00    -0.263 N 
HETATM    3  O   UNL     1      -2.247   3.428 -31.350  1.00  0.00    -0.265 OA
HETATM    4  H   UNL     1      -5.148   4.568 -30.630  1.00  0.00     0.190 HD
ENDROOT
BRANCH   1   5
HETATM    5  C   UNL     1      -4.339   2.442 -31.861  1.00  0.00     0.077 A 
HETATM    6  S   UNL     1      -6.030   2.752 -32.181  1.00  0.00    -0.064 SA
HETATM    7  C   UNL     1      -6.244   1.192 -32.722  1.00  0.00     0.113 A 
HETATM    8  N   UNL     1      -7.232   0.366 -33.199  1.00  0.00    -0.226 N 
HETATM    9  C   UNL     1      -5.115   0.479 -32.682  1.00  0.00     0.027 A 
HETATM   10  N   UNL     1      -6.688  -0.878 -33.482  1.00  0.00    -0.171 NA
HETATM   11  C   UNL     1      -5.384  -0.791 -33.155  1.00  0.00     0.064 A 
HETATM   12  C   UNL     1      -4.479  -1.950 -33.325  1.00  0.00     0.073 C 
HETATM   13  C   UNL     1      -3.987   1.133 -32.196  1.00  0.00     0.041 A 
BRANCH   8  14
HETATM   14  C   UNL     1      -8.624   0.598 -33.405  1.00  0.00     0.059 A 
HETATM   15  C   UNL     1      -9.554  -0.269 -32.806  1.00  0.00     0.031 A 
HETATM   16  C   UNL     1     -10.927  -0.068 -32.972  1.00  0.00     0.002 A 
HETATM   17  C   UNL     1     -11.387   0.999 -33.739  1.00  0.00     0.000 A 
HETATM   18  C   UNL     1     -10.475   1.861 -34.342  1.00  0.00     0.002 A 
HETATM   19  C   UNL     1      -9.099   1.664 -34.178  1.00  0.00     0.031 A 
ENDBRANCH   8  14
ENDBRANCH   1   5
BRANCH   2  20
HETATM   20  N   UNL     1      -3.404   5.547 -30.059  1.00  0.00    -0.273 N 
HETATM   21  H   UNL     1      -3.084   5.346 -29.112  1.00  0.00     0.189 HD
BRANCH  20  22
HETATM   22  C   UNL     1      -3.637   6.846 -30.422  1.00  0.00     0.191 C 
HETATM   23  N   UNL     1      -3.202   7.269 -31.640  1.00  0.00    -0.331 N 
HETATM   24  H   UNL     1      -3.210   8.283 -31.729  1.00  0.00     0.168 HD
HETATM   25  S   UNL     1      -4.387   7.978 -29.432  1.00  0.00    -0.039 SA
BRANCH  23  26
HETATM   26  C   UNL     1      -2.748   6.591 -32.795  1.00  0.00     0.056 A 
HETATM   27  C   UNL     1      -3.713   6.007 -33.641  1.00  0.00     0.060 A 
HETATM   28 CL   UNL     1      -5.404   6.133 -33.287  1.00  0.00    -0.082 Cl
HETATM   29  C   UNL     1      -3.338   5.320 -34.798  1.00  0.00     0.026 A 
HETATM   30  C   UNL     1      -1.990   5.189 -35.119  1.00  0.00     0.002 A 
HETATM   31  C   UNL     1      -1.024   5.728 -34.273  1.00  0.00     0.002 A 
HETATM   32  C   UNL     1      -1.398   6.416 -33.112  1.00  0.00     0.031 A 
ENDBRANCH  23  26
ENDBRANCH  20  22
ENDBRANCH   2  20
TORSDOF 5
ENDMDL
MODEL 10
REMARK VINA RESULT:      -8.3      3.417      8.861
REMARK  5 active torsions:
REMARK  status: ('A' for Active; 'I' for Inactive)
REMARK    1  A    between atoms: N_4  and  C_5 
REMARK    2  A    between atoms: C_14  and  C_15 
REMARK       I    between atoms: C_15  and  N_16 
REMARK    3  A    between atoms: N_16  and  N_17 
REMARK    4  A    between atoms: N_17  and  C_18 
REMARK    5  A    between atoms: N_19  and  C_20 
ROOT
HETATM    1  C   UNL     1      -6.520   1.173 -31.278  1.00  0.00     0.277 C 
HETATM    2  N   UNL     1      -6.099   0.670 -32.495  1.00  0.00    -0.263 N 
HETATM    3  O   UNL     1      -7.291   0.541 -30.555  1.00  0.00    -0.265 OA
HETATM    4  H   UNL     1      -5.496   1.203 -33.118  1.00  0.00     0.190 HD
ENDROOT
BRANCH   1   5
HETATM    5  C   UNL     1      -5.987   2.482 -30.924  1.00  0.00     0.077 A 
HETATM    6  S   UNL     1      -4.568   3.129 -31.715  1.00  0.00    -0.064 SA
HETATM    7  C   UNL     1      -4.622   4.494 -30.763  1.00  0.00     0.113 A 
HETATM    8  N   UNL     1      -3.930   5.661 -30.548  1.00  0.00    -0.226 N 
HETATM    9  C   UNL     1      -5.650   4.479 -29.909  1.00  0.00     0.027 A 
HETATM   10  N   UNL     1      -4.565   6.391 -29.555  1.00  0.00    -0.171 NA
HETATM   11  C   UNL     1      -5.621   5.647 -29.171  1.00  0.00     0.064 A 
HETATM   12  C   UNL     1      -6.538   6.119 -28.110  1.00  0.00     0.073 C 
HETATM   13  C   UNL     1      -6.469   3.355 -29.947  1.00  0.00     0.041 A 
BRANCH   8  14
HETATM   14  C   UNL     1      -2.739   6.164 -31.150  1.00  0.00     0.059 A 
HETATM   15  C   UNL     1      -2.810   7.339 -31.919  1.00  0.00     0.031 A 
HETATM   16  C   UNL     1      -1.663   7.872 -32.513  1.00  0.00     0.002 A 
HETATM   17  C   UNL     1      -0.435   7.239 -32.350  1.00  0.00     0.000 A 
HETATM   18  C   UNL     1      -0.354   6.072 -31.596  1.00  0.00     0.002 A 
HETATM   19  C   UNL     1      -1.498   5.534 -30.997  1.00  0.00     0.031 A 
ENDBRANCH   8  14
ENDBRANCH   1   5
BRANCH   2  20
HETATM   20  N   UNL     1      -6.547  -0.582 -32.938  1.00  0.00    -0.273 N 
HETATM   21  H   UNL     1      -6.309  -1.353 -32.315  1.00  0.00     0.189 HD
BRANCH  20  22
HETATM   22  C   UNL     1      -6.699  -0.828 -34.276  1.00  0.00     0.191 C 
HETATM   23  N   UNL     1      -5.926  -1.788 -34.853  1.00  0.00    -0.331 N 
HETATM   24  H   UNL     1      -5.938  -1.743 -35.870  1.00  0.00     0.168 HD
HETATM   25  S   UNL     1      -7.751   0.022 -35.273  1.00  0.00    -0.039 SA
BRANCH  23  26
HETATM   26  C   UNL     1      -5.119  -2.826 -34.330  1.00  0.00     0.056 A 
HETATM   27  C   UNL     1      -5.433  -4.152 -34.691  1.00  0.00     0.060 A 
HETATM   28 CL   UNL     1      -6.753  -4.499 -35.758  1.00  0.00    -0.082 Cl
HETATM   29  C   UNL     1      -4.681  -5.227 -34.211  1.00  0.00     0.026 A 
HETATM   30  C   UNL     1      -3.615  -4.996 -33.347  1.00  0.00     0.002 A 
HETATM   31  C   UNL     1      -3.317  -3.694 -32.952  1.00  0.00     0.002 A 
HETATM   32  C   UNL     1      -4.070  -2.615 -33.431  1.00  0.00     0.031 A 
ENDBRANCH  23  26
ENDBRANCH  20  22
ENDBRANCH   2  20
TORSDOF 5
ENDMDL
