MODEL 1
REMARK VINA RESULT:      -9.4      0.000      0.000
REMARK  4 active torsions:
REMARK  status: ('A' for Active; 'I' for Inactive)
REMARK    1  A    between atoms: C_2  and  C_3 
REMARK    2  A    between atoms: C_4  and  C_5 
REMARK       I    between atoms: C_5  and  N_6 
REMARK    3  A    between atoms: N_6  and  C_7 
REMARK    4  A    between atoms: C_14  and  C_15 
REMARK       I    between atoms: C_15  and  N_16 
ROOT
HETATM    1  C   UNL     1     -11.243   1.742 -33.909  1.00  0.00     0.035 A 
HETATM    2  C   UNL     1     -11.684   2.589 -32.884  1.00  0.00     0.046 A 
HETATM    3  C   UNL     1     -13.066   2.814 -32.707  1.00  0.00     0.030 A 
HETATM    4  C   UNL     1     -13.962   2.179 -33.557  1.00  0.00     0.063 A 
HETATM    5  N   UNL     1     -15.201   2.573 -33.135  1.00  0.00    -0.277 N 
HETATM    6  H   UNL     1     -16.097   2.298 -33.523  1.00  0.00     0.189 HD
HETATM    7  N   UNL     1     -15.193   3.421 -32.094  1.00  0.00    -0.168 NA
HETATM    8  C   UNL     1     -13.878   3.583 -31.818  1.00  0.00     0.156 A 
HETATM    9  C   UNL     1     -13.560   1.334 -34.593  1.00  0.00     0.034 A 
HETATM   10  C   UNL     1     -12.182   1.135 -34.755  1.00  0.00     0.032 A 
ENDROOT
BRANCH   1  11
HETATM   11  N   UNL     1      -9.883   1.443 -34.149  1.00  0.00    -0.327 N 
HETATM   12  C   UNL     1      -9.082   0.595 -33.417  1.00  0.00     0.227 C 
HETATM   13  O   UNL     1      -9.374  -0.013 -32.400  1.00  0.00    -0.273 OA
HETATM   14  H   UNL     1      -9.473   1.859 -34.971  1.00  0.00     0.169 HD
BRANCH  12  15
HETATM   15  C   UNL     1      -7.710   0.394 -33.962  1.00  0.00     0.087 A 
HETATM   16  C   UNL     1      -7.543  -0.791 -34.909  1.00  0.00     0.032 A 
HETATM   17  C   UNL     1      -7.241   0.608 -35.375  1.00  0.00     0.025 A 
BRANCH  16  18
HETATM   18  C   UNL     1      -6.478  -1.808 -34.595  1.00  0.00    -0.053 A 
HETATM   19  C   UNL     1      -6.681  -3.161 -34.922  1.00  0.00     0.009 A 
HETATM   20  C   UNL     1      -5.697  -4.125 -34.689  1.00  0.00     0.024 A 
HETATM   21  C   UNL     1      -4.487  -3.747 -34.119  1.00  0.00     0.034 A 
HETATM   22  C   UNL     1      -4.257  -2.415 -33.783  1.00  0.00     0.024 A 
HETATM   23 CL   UNL     1      -3.267  -4.925 -33.835  1.00  0.00    -0.084 Cl
HETATM   24  C   UNL     1      -5.245  -1.455 -34.025  1.00  0.00     0.009 A 
ENDBRANCH  16  18
ENDBRANCH  12  15
ENDBRANCH   1  11
BRANCH   8  25
HETATM   25  C   UNL     1     -13.430   4.459 -30.727  1.00  0.00     0.270 C 
HETATM   26  N   UNL     1     -12.666   3.828 -29.783  1.00  0.00    -0.365 N 
HETATM   27  H   UNL     1     -12.476   2.839 -29.892  1.00  0.00     0.159 HD
HETATM   28  H   UNL     1     -12.324   4.349 -28.990  1.00  0.00     0.159 HD
HETATM   29  O   UNL     1     -13.697   5.651 -30.632  1.00  0.00    -0.266 OA
ENDBRANCH   8  25
TORSDOF 4
ENDMDL
MODEL 2
REMARK VINA RESULT:      -9.0      6.614      9.092
REMARK  4 active torsions:
REMARK  status: ('A' for Active; 'I' for Inactive)
REMARK    1  A    between atoms: C_2  and  C_3 
REMARK    2  A    between atoms: C_4  and  C_5 
REMARK       I    between atoms: C_5  and  N_6 
REMARK    3  A    between atoms: N_6  and  C_7 
REMARK    4  A    between atoms: C_14  and  C_15 
REMARK       I    between atoms: C_15  and  N_16 
ROOT
HETATM    1  C   UNL     1      -3.522   4.003 -32.838  1.00  0.00     0.035 A 
HETATM    2  C   UNL     1      -2.491   4.162 -31.903  1.00  0.00     0.046 A 
HETATM    3  C   UNL     1      -1.593   5.244 -32.028  1.00  0.00     0.030 A 
HETATM    4  C   UNL     1      -1.760   6.134 -33.081  1.00  0.00     0.063 A 
HETATM    5  N   UNL     1      -0.768   7.063 -32.930  1.00  0.00    -0.277 N 
HETATM    6  H   UNL     1      -0.588   7.869 -33.517  1.00  0.00     0.189 HD
HETATM    7  N   UNL     1       0.041   6.848 -31.879  1.00  0.00    -0.168 NA
HETATM    8  C   UNL     1      -0.455   5.725 -31.312  1.00  0.00     0.156 A 
HETATM    9  C   UNL     1      -2.771   6.004 -34.035  1.00  0.00     0.034 A 
HETATM   10  C   UNL     1      -3.643   4.916 -33.895  1.00  0.00     0.032 A 
ENDROOT
BRANCH   1  11
HETATM   11  N   UNL     1      -4.478   2.964 -32.781  1.00  0.00    -0.327 N 
HETATM   12  C   UNL     1      -5.506   2.834 -31.873  1.00  0.00     0.227 C 
HETATM   13  O   UNL     1      -5.753   3.556 -30.920  1.00  0.00    -0.273 OA
HETATM   14  H   UNL     1      -4.430   2.273 -33.513  1.00  0.00     0.169 HD
BRANCH  12  15
HETATM   15  C   UNL     1      -6.424   1.686 -32.116  1.00  0.00     0.087 A 
HETATM   16  C   UNL     1      -5.885   0.315 -31.719  1.00  0.00     0.032 A 
HETATM   17  C   UNL     1      -7.143   0.853 -31.091  1.00  0.00     0.025 A 
BRANCH  16  18
HETATM   18  C   UNL     1      -5.877  -0.774 -32.759  1.00  0.00    -0.053 A 
HETATM   19  C   UNL     1      -4.678  -1.445 -33.063  1.00  0.00     0.009 A 
HETATM   20  C   UNL     1      -4.641  -2.492 -33.988  1.00  0.00     0.024 A 
HETATM   21  C   UNL     1      -5.811  -2.885 -34.627  1.00  0.00     0.034 A 
HETATM   22  C   UNL     1      -7.013  -2.240 -34.346  1.00  0.00     0.024 A 
HETATM   23 CL   UNL     1      -5.778  -4.178 -35.760  1.00  0.00    -0.084 Cl
HETATM   24  C   UNL     1      -7.043  -1.196 -33.415  1.00  0.00     0.009 A 
ENDBRANCH  16  18
ENDBRANCH  12  15
ENDBRANCH   1  11
BRANCH   8  25
HETATM   25  C   UNL     1       0.162   5.139 -30.114  1.00  0.00     0.270 C 
HETATM   26  N   UNL     1      -0.343   5.617 -28.935  1.00  0.00    -0.365 N 
HETATM   27  H   UNL     1      -1.073   6.320 -28.968  1.00  0.00     0.159 HD
HETATM   28  H   UNL     1       0.030   5.281 -28.060  1.00  0.00     0.159 HD
HETATM   29  O   UNL     1       1.053   4.298 -30.125  1.00  0.00    -0.266 OA
ENDBRANCH   8  25
TORSDOF 4
ENDMDL
MODEL 3
REMARK VINA RESULT:      -8.9      1.686      2.682
REMARK  4 active torsions:
REMARK  status: ('A' for Active; 'I' for Inactive)
REMARK    1  A    between atoms: C_2  and  C_3 
REMARK    2  A    between atoms: C_4  and  C_5 
REMARK       I    between atoms: C_5  and  N_6 
REMARK    3  A    between atoms: N_6  and  C_7 
REMARK    4  A    between atoms: C_14  and  C_15 
REMARK       I    between atoms: C_15  and  N_16 
ROOT
HETATM    1  C   UNL     1     -10.429   2.280 -33.297  1.00  0.00     0.035 A 
HETATM    2  C   UNL     1     -11.640   1.637 -33.584  1.00  0.00     0.046 A 
HETATM    3  C   UNL     1     -12.854   2.191 -33.124  1.00  0.00     0.030 A 
HETATM    4  C   UNL     1     -12.816   3.375 -32.396  1.00  0.00     0.063 A 
HETATM    5  N   UNL     1     -14.121   3.663 -32.110  1.00  0.00    -0.277 N 
HETATM    6  H   UNL     1     -14.473   4.463 -31.595  1.00  0.00     0.189 HD
HETATM    7  N   UNL     1     -15.006   2.765 -32.572  1.00  0.00    -0.168 NA
HETATM    8  C   UNL     1     -14.237   1.846 -33.200  1.00  0.00     0.156 A 
HETATM    9  C   UNL     1     -11.629   4.040 -32.087  1.00  0.00     0.034 A 
HETATM   10  C   UNL     1     -10.437   3.463 -32.546  1.00  0.00     0.032 A 
ENDROOT
BRANCH   1  11
HETATM   11  N   UNL     1      -9.170   1.810 -33.733  1.00  0.00    -0.327 N 
HETATM   12  C   UNL     1      -8.372   0.879 -33.107  1.00  0.00     0.227 C 
HETATM   13  O   UNL     1      -8.572   0.327 -32.037  1.00  0.00    -0.273 OA
HETATM   14  H   UNL     1      -8.848   2.159 -34.622  1.00  0.00     0.169 HD
BRANCH  12  15
HETATM   15  C   UNL     1      -7.138   0.500 -33.850  1.00  0.00     0.087 A 
HETATM   16  C   UNL     1      -7.268  -0.708 -34.773  1.00  0.00     0.032 A 
HETATM   17  C   UNL     1      -6.874   0.637 -35.324  1.00  0.00     0.025 A 
BRANCH  16  18
HETATM   18  C   UNL     1      -6.299  -1.847 -34.595  1.00  0.00    -0.053 A 
HETATM   19  C   UNL     1      -5.026  -1.607 -34.047  1.00  0.00     0.009 A 
HETATM   20  C   UNL     1      -4.119  -2.646 -33.823  1.00  0.00     0.024 A 
HETATM   21  C   UNL     1      -4.475  -3.950 -34.147  1.00  0.00     0.034 A 
HETATM   22  C   UNL     1      -5.728  -4.219 -34.691  1.00  0.00     0.024 A 
HETATM   23 CL   UNL     1      -3.369  -5.236 -33.868  1.00  0.00    -0.084 Cl
HETATM   24  C   UNL     1      -6.633  -3.174 -34.908  1.00  0.00     0.009 A 
ENDBRANCH  16  18
ENDBRANCH  12  15
ENDBRANCH   1  11
BRANCH   8  25
HETATM   25  C   UNL     1     -14.832   0.670 -33.850  1.00  0.00     0.270 C 
HETATM   26  N   UNL     1     -14.235  -0.515 -33.517  1.00  0.00    -0.365 N 
HETATM   27  H   UNL     1     -13.449  -0.500 -32.877  1.00  0.00     0.159 HD
HETATM   28  H   UNL     1     -14.569  -1.374 -33.926  1.00  0.00     0.159 HD
HETATM   29  O   UNL     1     -15.778   0.705 -34.629  1.00  0.00    -0.266 OA
ENDBRANCH   8  25
TORSDOF 4
ENDMDL
MODEL 4
REMARK VINA RESULT:      -8.8      6.689      8.622
REMARK  4 active torsions:
REMARK  status: ('A' for Active; 'I' for Inactive)
REMARK    1  A    between atoms: C_2  and  C_3 
REMARK    2  A    between atoms: C_4  and  C_5 
REMARK       I    between atoms: C_5  and  N_6 
REMARK    3  A    between atoms: N_6  and  C_7 
REMARK    4  A    between atoms: C_14  and  C_15 
REMARK       I    between atoms: C_15  and  N_16 
ROOT
HETATM    1  C   UNL     1      -2.735   4.068 -32.367  1.00  0.00     0.035 A 
HETATM    2  C   UNL     1      -2.846   5.146 -31.479  1.00  0.00     0.046 A 
HETATM    3  C   UNL     1      -2.454   6.437 -31.892  1.00  0.00     0.030 A 
HETATM    4  C   UNL     1      -1.969   6.609 -33.183  1.00  0.00     0.063 A 
HETATM    5  N   UNL     1      -1.693   7.943 -33.290  1.00  0.00    -0.277 N 
HETATM    6  H   UNL     1      -1.327   8.431 -34.100  1.00  0.00     0.189 HD
HETATM    7  N   UNL     1      -1.940   8.655 -32.178  1.00  0.00    -0.168 NA
HETATM    8  C   UNL     1      -2.410   7.737 -31.302  1.00  0.00     0.156 A 
HETATM    9  C   UNL     1      -1.838   5.558 -34.092  1.00  0.00     0.034 A 
HETATM   10  C   UNL     1      -2.225   4.284 -33.654  1.00  0.00     0.032 A 
ENDROOT
BRANCH   1  11
HETATM   11  N   UNL     1      -3.121   2.747 -32.048  1.00  0.00    -0.327 N 
HETATM   12  C   UNL     1      -4.371   2.190 -32.202  1.00  0.00     0.227 C 
HETATM   13  O   UNL     1      -5.389   2.742 -32.589  1.00  0.00    -0.273 OA
HETATM   14  H   UNL     1      -2.390   2.136 -31.718  1.00  0.00     0.169 HD
BRANCH  12  15
HETATM   15  C   UNL     1      -4.464   0.740 -31.874  1.00  0.00     0.087 A 
HETATM   16  C   UNL     1      -3.708  -0.198 -32.811  1.00  0.00     0.032 A 
HETATM   17  C   UNL     1      -3.376  -0.153 -31.344  1.00  0.00     0.025 A 
BRANCH  16  18
HETATM   18  C   UNL     1      -4.471  -1.325 -33.456  1.00  0.00    -0.053 A 
HETATM   19  C   UNL     1      -5.731  -1.081 -34.033  1.00  0.00     0.009 A 
HETATM   20  C   UNL     1      -6.446  -2.092 -34.681  1.00  0.00     0.024 A 
HETATM   21  C   UNL     1      -5.908  -3.371 -34.760  1.00  0.00     0.034 A 
HETATM   22  C   UNL     1      -4.663  -3.643 -34.198  1.00  0.00     0.024 A 
HETATM   23 CL   UNL     1      -6.777  -4.619 -35.562  1.00  0.00    -0.084 Cl
HETATM   24  C   UNL     1      -3.950  -2.625 -33.555  1.00  0.00     0.009 A 
ENDBRANCH  16  18
ENDBRANCH  12  15
ENDBRANCH   1  11
BRANCH   8  25
HETATM   25  C   UNL     1      -2.799   8.115 -29.937  1.00  0.00     0.270 C 
HETATM   26  N   UNL     1      -2.017   7.563 -28.960  1.00  0.00    -0.365 N 
HETATM   27  H   UNL     1      -1.259   6.948 -29.233  1.00  0.00     0.159 HD
HETATM   28  H   UNL     1      -2.220   7.756 -27.991  1.00  0.00     0.159 HD
HETATM   29  O   UNL     1      -3.736   8.854 -29.656  1.00  0.00    -0.266 OA
ENDBRANCH   8  25
TORSDOF 4
ENDMDL
MODEL 5
REMARK VINA RESULT:      -8.8      6.479      8.258
REMARK  4 active torsions:
REMARK  status: ('A' for Active; 'I' for Inactive)
REMARK    1  A    between atoms: C_2  and  C_3 
REMARK    2  A    between atoms: C_4  and  C_5 
REMARK       I    between atoms: C_5  and  N_6 
REMARK    3  A    between atoms: N_6  and  C_7 
REMARK    4  A    between atoms: C_14  and  C_15 
REMARK       I    between atoms: C_15  and  N_16 
ROOT
HETATM    1  C   UNL     1      -4.429   4.388 -30.803  1.00  0.00     0.035 A 
HETATM    2  C   UNL     1      -3.478   5.137 -31.508  1.00  0.00     0.046 A 
HETATM    3  C   UNL     1      -3.495   6.546 -31.426  1.00  0.00     0.030 A 
HETATM    4  C   UNL     1      -4.459   7.159 -30.635  1.00  0.00     0.063 A 
HETATM    5  N   UNL     1      -4.214   8.500 -30.743  1.00  0.00    -0.277 N 
HETATM    6  H   UNL     1      -4.721   9.254 -30.292  1.00  0.00     0.189 HD
HETATM    7  N   UNL     1      -3.185   8.817 -31.545  1.00  0.00    -0.168 NA
HETATM    8  C   UNL     1      -2.730   7.618 -31.978  1.00  0.00     0.156 A 
HETATM    9  C   UNL     1      -5.426   6.447 -29.924  1.00  0.00     0.034 A 
HETATM   10  C   UNL     1      -5.394   5.050 -30.030  1.00  0.00     0.032 A 
ENDROOT
BRANCH   1  11
HETATM   11  N   UNL     1      -4.476   2.976 -30.810  1.00  0.00    -0.327 N 
HETATM   12  C   UNL     1      -5.249   2.178 -31.623  1.00  0.00     0.227 C 
HETATM   13  O   UNL     1      -6.074   2.534 -32.449  1.00  0.00    -0.273 OA
HETATM   14  H   UNL     1      -3.840   2.506 -30.185  1.00  0.00     0.169 HD
BRANCH  12  15
HETATM   15  C   UNL     1      -5.019   0.714 -31.477  1.00  0.00     0.087 A 
HETATM   16  C   UNL     1      -4.209   0.058 -32.593  1.00  0.00     0.032 A 
HETATM   17  C   UNL     1      -3.724   0.013 -31.169  1.00  0.00     0.025 A 
BRANCH  16  18
HETATM   18  C   UNL     1      -4.807  -1.127 -33.304  1.00  0.00    -0.053 A 
HETATM   19  C   UNL     1      -6.091  -1.031 -33.872  1.00  0.00     0.009 A 
HETATM   20  C   UNL     1      -6.658  -2.093 -34.580  1.00  0.00     0.024 A 
HETATM   21  C   UNL     1      -5.946  -3.277 -34.728  1.00  0.00     0.034 A 
HETATM   22  C   UNL     1      -4.673  -3.403 -34.176  1.00  0.00     0.024 A 
HETATM   23 CL   UNL     1      -6.632  -4.588 -35.604  1.00  0.00    -0.084 Cl
HETATM   24  C   UNL     1      -4.109  -2.333 -33.474  1.00  0.00     0.009 A 
ENDBRANCH  16  18
ENDBRANCH  12  15
ENDBRANCH   1  11
BRANCH   8  25
HETATM   25  C   UNL     1      -1.591   7.523 -32.900  1.00  0.00     0.270 C 
HETATM   26  N   UNL     1      -0.429   7.103 -32.312  1.00  0.00    -0.365 N 
HETATM   27  H   UNL     1      -0.432   6.903 -31.318  1.00  0.00     0.159 HD
HETATM   28  H   UNL     1       0.409   7.021 -32.867  1.00  0.00     0.159 HD
HETATM   29  O   UNL     1      -1.634   7.790 -34.096  1.00  0.00    -0.266 OA
ENDBRANCH   8  25
TORSDOF 4
ENDMDL
MODEL 6
REMARK VINA RESULT:      -8.7      5.721      7.695
REMARK  4 active torsions:
REMARK  status: ('A' for Active; 'I' for Inactive)
REMARK    1  A    between atoms: C_2  and  C_3 
REMARK    2  A    between atoms: C_4  and  C_5 
REMARK       I    between atoms: C_5  and  N_6 
REMARK    3  A    between atoms: N_6  and  C_7 
REMARK    4  A    between atoms: C_14  and  C_15 
REMARK       I    between atoms: C_15  and  N_16 
ROOT
HETATM    1  C   UNL     1      -5.059   3.727 -32.426  1.00  0.00     0.035 A 
HETATM    2  C   UNL     1      -4.043   4.604 -32.828  1.00  0.00     0.046 A 
HETATM    3  C   UNL     1      -3.691   5.693 -32.002  1.00  0.00     0.030 A 
HETATM    4  C   UNL     1      -4.363   5.866 -30.798  1.00  0.00     0.063 A 
HETATM    5  N   UNL     1      -3.800   6.973 -30.227  1.00  0.00    -0.277 N 
HETATM    6  H   UNL     1      -4.039   7.391 -29.335  1.00  0.00     0.189 HD
HETATM    7  N   UNL     1      -2.831   7.547 -30.958  1.00  0.00    -0.168 NA
HETATM    8  C   UNL     1      -2.753   6.768 -32.062  1.00  0.00     0.156 A 
HETATM    9  C   UNL     1      -5.384   5.017 -30.369  1.00  0.00     0.034 A 
HETATM   10  C   UNL     1      -5.722   3.949 -31.211  1.00  0.00     0.032 A 
ENDROOT
BRANCH   1  11
HETATM   11  N   UNL     1      -5.464   2.601 -33.176  1.00  0.00    -0.327 N 
HETATM   12  C   UNL     1      -6.632   2.459 -33.891  1.00  0.00     0.227 C 
HETATM   13  O   UNL     1      -7.558   3.251 -33.969  1.00  0.00    -0.273 OA
HETATM   14  H   UNL     1      -4.804   1.841 -33.231  1.00  0.00     0.169 HD
BRANCH  12  15
HETATM   15  C   UNL     1      -6.749   1.195 -34.671  1.00  0.00     0.087 A 
HETATM   16  C   UNL     1      -7.092  -0.052 -33.861  1.00  0.00     0.032 A 
HETATM   17  C   UNL     1      -7.997   0.412 -34.970  1.00  0.00     0.025 A 
BRANCH  16  18
HETATM   18  C   UNL     1      -6.183  -1.246 -33.976  1.00  0.00    -0.053 A 
HETATM   19  C   UNL     1      -4.936  -1.246 -33.323  1.00  0.00     0.009 A 
HETATM   20  C   UNL     1      -4.087  -2.355 -33.368  1.00  0.00     0.024 A 
HETATM   21  C   UNL     1      -4.475  -3.488 -34.073  1.00  0.00     0.034 A 
HETATM   22  C   UNL     1      -5.703  -3.519 -34.730  1.00  0.00     0.024 A 
HETATM   23 CL   UNL     1      -3.441  -4.861 -34.128  1.00  0.00    -0.084 Cl
HETATM   24  C   UNL     1      -6.550  -2.407 -34.675  1.00  0.00     0.009 A 
ENDBRANCH  16  18
ENDBRANCH  12  15
ENDBRANCH   1  11
BRANCH   8  25
HETATM   25  C   UNL     1      -1.797   7.064 -33.138  1.00  0.00     0.270 C 
HETATM   26  N   UNL     1      -0.916   6.050 -33.397  1.00  0.00    -0.365 N 
HETATM   27  H   UNL     1      -0.974   5.202 -32.845  1.00  0.00     0.159 HD
HETATM   28  H   UNL     1      -0.214   6.170 -34.111  1.00  0.00     0.159 HD
HETATM   29  O   UNL     1      -1.756   8.113 -33.769  1.00  0.00    -0.266 OA
ENDBRANCH   8  25
TORSDOF 4
ENDMDL
MODEL 7
REMARK VINA RESULT:      -8.5      4.433      9.571
REMARK  4 active torsions:
REMARK  status: ('A' for Active; 'I' for Inactive)
REMARK    1  A    between atoms: C_2  and  C_3 
REMARK    2  A    between atoms: C_4  and  C_5 
REMARK       I    between atoms: C_5  and  N_6 
REMARK    3  A    between atoms: N_6  and  C_7 
REMARK    4  A    between atoms: C_14  and  C_15 
REMARK       I    between atoms: C_15  and  N_16 
ROOT
HETATM    1  C   UNL     1      -7.610   0.059 -34.332  1.00  0.00     0.035 A 
HETATM    2  C   UNL     1      -7.272  -1.281 -34.560  1.00  0.00     0.046 A 
HETATM    3  C   UNL     1      -5.978  -1.742 -34.237  1.00  0.00     0.030 A 
HETATM    4  C   UNL     1      -5.066  -0.848 -33.689  1.00  0.00     0.063 A 
HETATM    5  N   UNL     1      -3.931  -1.578 -33.474  1.00  0.00    -0.277 N 
HETATM    6  H   UNL     1      -3.058  -1.250 -33.076  1.00  0.00     0.189 HD
HETATM    7  N   UNL     1      -4.015  -2.865 -33.846  1.00  0.00    -0.168 NA
HETATM    8  C   UNL     1      -5.276  -2.982 -34.323  1.00  0.00     0.156 A 
HETATM    9  C   UNL     1      -5.365   0.495 -33.453  1.00  0.00     0.034 A 
HETATM   10  C   UNL     1      -6.654   0.930 -33.792  1.00  0.00     0.032 A 
ENDROOT
BRANCH   1  11
HETATM   11  N   UNL     1      -8.885   0.603 -34.605  1.00  0.00    -0.327 N 
HETATM   12  C   UNL     1      -9.950   0.692 -33.737  1.00  0.00     0.227 C 
HETATM   13  O   UNL     1     -10.015   0.273 -32.592  1.00  0.00    -0.273 OA
HETATM   14  H   UNL     1      -9.009   1.013 -35.518  1.00  0.00     0.169 HD
BRANCH  12  15
HETATM   15  C   UNL     1     -11.144   1.407 -34.269  1.00  0.00     0.087 A 
HETATM   16  C   UNL     1     -11.669   2.550 -33.405  1.00  0.00     0.032 A 
HETATM   17  C   UNL     1     -11.209   2.807 -34.814  1.00  0.00     0.025 A 
BRANCH  16  18
HETATM   18  C   UNL     1     -13.118   2.524 -32.997  1.00  0.00    -0.053 A 
HETATM   19  C   UNL     1     -13.641   3.557 -32.197  1.00  0.00     0.009 A 
HETATM   20  C   UNL     1     -14.991   3.592 -31.838  1.00  0.00     0.024 A 
HETATM   21  C   UNL     1     -15.844   2.586 -32.277  1.00  0.00     0.034 A 
HETATM   22  C   UNL     1     -15.356   1.550 -33.070  1.00  0.00     0.024 A 
HETATM   23 CL   UNL     1     -17.509   2.624 -31.848  1.00  0.00    -0.084 Cl
HETATM   24  C   UNL     1     -14.004   1.525 -33.430  1.00  0.00     0.009 A 
ENDBRANCH  16  18
ENDBRANCH  12  15
ENDBRANCH   1  11
BRANCH   8  25
HETATM   25  C   UNL     1      -5.777  -4.260 -34.847  1.00  0.00     0.270 C 
HETATM   26  N   UNL     1      -4.962  -5.329 -34.587  1.00  0.00    -0.365 N 
HETATM   27  H   UNL     1      -4.100  -5.170 -34.079  1.00  0.00     0.159 HD
HETATM   28  H   UNL     1      -5.221  -6.245 -34.921  1.00  0.00     0.159 HD
HETATM   29  O   UNL     1      -6.824  -4.400 -35.469  1.00  0.00    -0.266 OA
ENDBRANCH   8  25
TORSDOF 4
ENDMDL
MODEL 8
REMARK VINA RESULT:      -8.4      6.890      9.622
REMARK  4 active torsions:
REMARK  status: ('A' for Active; 'I' for Inactive)
REMARK    1  A    between atoms: C_2  and  C_3 
REMARK    2  A    between atoms: C_4  and  C_5 
REMARK       I    between atoms: C_5  and  N_6 
REMARK    3  A    between atoms: N_6  and  C_7 
REMARK    4  A    between atoms: C_14  and  C_15 
REMARK       I    between atoms: C_15  and  N_16 
ROOT
HETATM    1  C   UNL     1      -3.658   3.935 -32.615  1.00  0.00     0.035 A 
HETATM    2  C   UNL     1      -2.602   4.113 -31.712  1.00  0.00     0.046 A 
HETATM    3  C   UNL     1      -1.685   5.168 -31.907  1.00  0.00     0.030 A 
HETATM    4  C   UNL     1      -1.858   6.013 -32.997  1.00  0.00     0.063 A 
HETATM    5  N   UNL     1      -0.843   6.925 -32.910  1.00  0.00    -0.277 N 
HETATM    6  H   UNL     1      -0.660   7.700 -33.538  1.00  0.00     0.189 HD
HETATM    7  N   UNL     1      -0.014   6.741 -31.870  1.00  0.00    -0.168 NA
HETATM    8  C   UNL     1      -0.520   5.655 -31.240  1.00  0.00     0.156 A 
HETATM    9  C   UNL     1      -2.894   5.862 -33.919  1.00  0.00     0.034 A 
HETATM   10  C   UNL     1      -3.785   4.801 -33.709  1.00  0.00     0.032 A 
ENDROOT
BRANCH   1  11
HETATM   11  N   UNL     1      -4.634   2.921 -32.488  1.00  0.00    -0.327 N 
HETATM   12  C   UNL     1      -4.417   1.561 -32.462  1.00  0.00     0.227 C 
HETATM   13  O   UNL     1      -3.355   0.975 -32.597  1.00  0.00    -0.273 OA
HETATM   14  H   UNL     1      -5.584   3.231 -32.354  1.00  0.00     0.169 HD
BRANCH  12  15
HETATM   15  C   UNL     1      -5.629   0.731 -32.217  1.00  0.00     0.087 A 
HETATM   16  C   UNL     1      -6.393   0.292 -33.463  1.00  0.00     0.032 A 
HETATM   17  C   UNL     1      -5.818  -0.730 -32.520  1.00  0.00     0.025 A 
BRANCH  16  18
HETATM   18  C   UNL     1      -7.862   0.612 -33.546  1.00  0.00    -0.053 A 
HETATM   19  C   UNL     1      -8.802  -0.242 -32.942  1.00  0.00     0.009 A 
HETATM   20  C   UNL     1     -10.168   0.047 -32.957  1.00  0.00     0.024 A 
HETATM   21  C   UNL     1     -10.619   1.203 -33.584  1.00  0.00     0.034 A 
HETATM   22  C   UNL     1      -9.712   2.068 -34.193  1.00  0.00     0.024 A 
HETATM   23 CL   UNL     1     -12.298   1.571 -33.602  1.00  0.00    -0.084 Cl
HETATM   24  C   UNL     1      -8.345   1.774 -34.168  1.00  0.00     0.009 A 
ENDBRANCH  16  18
ENDBRANCH  12  15
ENDBRANCH   1  11
BRANCH   8  25
HETATM   25  C   UNL     1       0.113   5.112 -30.031  1.00  0.00     0.270 C 
HETATM   26  N   UNL     1      -0.350   5.657 -28.864  1.00  0.00    -0.365 N 
HETATM   27  H   UNL     1      -1.063   6.376 -28.913  1.00  0.00     0.159 HD
HETATM   28  H   UNL     1       0.037   5.353 -27.984  1.00  0.00     0.159 HD
HETATM   29  O   UNL     1       0.983   4.249 -30.024  1.00  0.00    -0.266 OA
ENDBRANCH   8  25
TORSDOF 4
ENDMDL
MODEL 9
REMARK VINA RESULT:      -8.4      2.612      3.477
REMARK  4 active torsions:
REMARK  status: ('A' for Active; 'I' for Inactive)
REMARK    1  A    between atoms: C_2  and  C_3 
REMARK    2  A    between atoms: C_4  and  C_5 
REMARK       I    between atoms: C_5  and  N_6 
REMARK    3  A    between atoms: N_6  and  C_7 
REMARK    4  A    between atoms: C_14  and  C_15 
REMARK       I    between atoms: C_15  and  N_16 
ROOT
HETATM    1  C   UNL     1      -9.034   1.758 -33.247  1.00  0.00     0.035 A 
HETATM    2  C   UNL     1     -10.322   1.207 -33.217  1.00  0.00     0.046 A 
HETATM    3  C   UNL     1     -11.383   1.870 -33.871  1.00  0.00     0.030 A 
HETATM    4  C   UNL     1     -11.119   3.059 -34.538  1.00  0.00     0.063 A 
HETATM    5  N   UNL     1     -12.316   3.446 -35.073  1.00  0.00    -0.277 N 
HETATM    6  H   UNL     1     -12.499   4.270 -35.634  1.00  0.00     0.189 HD
HETATM    7  N   UNL     1     -13.341   2.622 -34.801  1.00  0.00    -0.168 NA
HETATM    8  C   UNL     1     -12.780   1.642 -34.056  1.00  0.00     0.156 A 
HETATM    9  C   UNL     1      -9.851   3.641 -34.584  1.00  0.00     0.034 A 
HETATM   10  C   UNL     1      -8.817   2.969 -33.919  1.00  0.00     0.032 A 
ENDROOT
BRANCH   1  11
HETATM   11  N   UNL     1      -7.910   1.155 -32.640  1.00  0.00    -0.327 N 
HETATM   12  C   UNL     1      -7.366   1.466 -31.413  1.00  0.00     0.227 C 
HETATM   13  O   UNL     1      -7.714   2.350 -30.647  1.00  0.00    -0.273 OA
HETATM   14  H   UNL     1      -7.494   0.384 -33.138  1.00  0.00     0.169 HD
BRANCH  12  15
HETATM   15  C   UNL     1      -6.237   0.595 -30.982  1.00  0.00     0.087 A 
HETATM   16  C   UNL     1      -5.068   0.498 -31.957  1.00  0.00     0.032 A 
HETATM   17  C   UNL     1      -4.857   1.020 -30.561  1.00  0.00     0.025 A 
BRANCH  16  18
HETATM   18  C   UNL     1      -4.628  -0.870 -32.406  1.00  0.00    -0.053 A 
HETATM   19  C   UNL     1      -5.176  -1.437 -33.571  1.00  0.00     0.009 A 
HETATM   20  C   UNL     1      -4.758  -2.683 -34.044  1.00  0.00     0.024 A 
HETATM   21  C   UNL     1      -3.780  -3.388 -33.352  1.00  0.00     0.034 A 
HETATM   22  C   UNL     1      -3.219  -2.853 -32.195  1.00  0.00     0.024 A 
HETATM   23 CL   UNL     1      -3.253  -4.919 -33.931  1.00  0.00    -0.084 Cl
HETATM   24  C   UNL     1      -3.639  -1.602 -31.731  1.00  0.00     0.009 A 
ENDBRANCH  16  18
ENDBRANCH  12  15
ENDBRANCH   1  11
BRANCH   8  25
HETATM   25  C   UNL     1     -13.581   0.524 -33.539  1.00  0.00     0.270 C 
HETATM   26  N   UNL     1     -14.731   0.906 -32.904  1.00  0.00    -0.365 N 
HETATM   27  H   UNL     1     -14.939   1.895 -32.828  1.00  0.00     0.159 HD
HETATM   28  H   UNL     1     -15.337   0.206 -32.506  1.00  0.00     0.159 HD
HETATM   29  O   UNL     1     -13.281  -0.660 -33.645  1.00  0.00    -0.266 OA
ENDBRANCH   8  25
TORSDOF 4
ENDMDL
MODEL 10
REMARK VINA RESULT:      -8.2      6.690      8.634
REMARK  4 active torsions:
REMARK  status: ('A' for Active; 'I' for Inactive)
REMARK    1  A    between atoms: C_2  and  C_3 
REMARK    2  A    between atoms: C_4  and  C_5 
REMARK       I    between atoms: C_5  and  N_6 
REMARK    3  A    between atoms: N_6  and  C_7 
REMARK    4  A    between atoms: C_14  and  C_15 
REMARK       I    between atoms: C_15  and  N_16 
ROOT
HETATM    1  C   UNL     1      -3.362   4.354 -32.711  1.00  0.00     0.035 A 
HETATM    2  C   UNL     1      -3.387   5.100 -31.525  1.00  0.00     0.046 A 
HETATM    3  C   UNL     1      -2.307   5.953 -31.212  1.00  0.00     0.030 A 
HETATM    4  C   UNL     1      -1.240   6.036 -32.099  1.00  0.00     0.063 A 
HETATM    5  N   UNL     1      -0.375   6.935 -31.539  1.00  0.00    -0.277 N 
HETATM    6  H   UNL     1       0.512   7.248 -31.916  1.00  0.00     0.189 HD
HETATM    7  N   UNL     1      -0.776   7.435 -30.359  1.00  0.00    -0.168 NA
HETATM    8  C   UNL     1      -1.969   6.835 -30.141  1.00  0.00     0.156 A 
HETATM    9  C   UNL     1      -1.178   5.303 -33.285  1.00  0.00     0.034 A 
HETATM   10  C   UNL     1      -2.258   4.456 -33.568  1.00  0.00     0.032 A 
ENDROOT
BRANCH   1  11
HETATM   11  N   UNL     1      -4.406   3.491 -33.116  1.00  0.00    -0.327 N 
HETATM   12  C   UNL     1      -5.521   3.829 -33.849  1.00  0.00     0.227 C 
HETATM   13  O   UNL     1      -5.846   4.939 -34.241  1.00  0.00    -0.273 OA
HETATM   14  H   UNL     1      -4.294   2.517 -32.883  1.00  0.00     0.169 HD
BRANCH  12  15
HETATM   15  C   UNL     1      -6.407   2.690 -34.217  1.00  0.00     0.087 A 
HETATM   16  C   UNL     1      -6.556   1.601 -33.157  1.00  0.00     0.032 A 
HETATM   17  C   UNL     1      -7.760   2.359 -33.650  1.00  0.00     0.025 A 
BRANCH  16  18
HETATM   18  C   UNL     1      -6.252   0.180 -33.550  1.00  0.00    -0.053 A 
HETATM   19  C   UNL     1      -7.243  -0.605 -34.167  1.00  0.00     0.009 A 
HETATM   20  C   UNL     1      -6.982  -1.912 -34.588  1.00  0.00     0.024 A 
HETATM   21  C   UNL     1      -5.718  -2.457 -34.394  1.00  0.00     0.034 A 
HETATM   22  C   UNL     1      -4.717  -1.704 -33.785  1.00  0.00     0.024 A 
HETATM   23 CL   UNL     1      -5.386  -4.061 -34.916  1.00  0.00    -0.084 Cl
HETATM   24  C   UNL     1      -4.984  -0.394 -33.372  1.00  0.00     0.009 A 
ENDBRANCH  16  18
ENDBRANCH  12  15
ENDBRANCH   1  11
BRANCH   8  25
HETATM   25  C   UNL     1      -2.751   7.112 -28.928  1.00  0.00     0.270 C 
HETATM   26  N   UNL     1      -2.135   6.732 -27.767  1.00  0.00    -0.365 N 
HETATM   27  H   UNL     1      -1.222   6.295 -27.822  1.00  0.00     0.159 HD
HETATM   28  H   UNL     1      -2.604   6.871 -26.886  1.00  0.00     0.159 HD
HETATM   29  O   UNL     1      -3.861   7.632 -28.915  1.00  0.00    -0.266 OA
ENDBRANCH   8  25
TORSDOF 4
ENDMDL
