MODEL 1
REMARK VINA RESULT:      -9.6      0.000      0.000
REMARK  7 active torsions:
REMARK  status: ('A' for Active; 'I' for Inactive)
REMARK    1  A    between atoms: C_2  and  C_3 
REMARK    2  A    between atoms: N_21  and  N_23 
REMARK       I    between atoms: N_23  and  C_24 
REMARK    3  A    between atoms: C_24  and  C_25 
REMARK    4  A    between atoms: C_25  and  N_26 
REMARK    5  A    between atoms: C_25  and  C_34 
REMARK       I    between atoms: N_26  and  C_27 
REMARK    6  A    between atoms: C_27  and  O_28 
REMARK    7  A    between atoms: O_28  and  C_29 
ROOT
HETATM    1  C   UNL     1      -4.641   1.046 -31.465  1.00  0.00    -0.041 C 
HETATM    2  C   UNL     1      -4.510   2.362 -32.109  1.00  0.00     0.005 C 
HETATM    3  C   UNL     1      -5.543   3.286 -31.932  1.00  0.00     0.091 C 
HETATM    4  C   UNL     1      -5.310   4.654 -32.069  1.00  0.00     0.075 C 
HETATM    5  C   UNL     1      -4.047   5.073 -32.480  1.00  0.00     0.079 C 
HETATM    6  C   UNL     1      -3.124   4.151 -32.981  1.00  0.00    -0.024 C 
HETATM    7  C   UNL     1      -1.857   4.610 -33.653  1.00  0.00     0.044 C 
HETATM    8  C   UNL     1      -1.726   6.130 -33.614  1.00  0.00     0.043 C 
HETATM    9  C   UNL     1      -2.304   6.678 -32.297  1.00  0.00     0.068 C 
HETATM   10  C   UNL     1      -1.573   6.081 -31.058  1.00  0.00     0.038 C 
HETATM   11  C   UNL     1      -2.037   6.687 -29.739  1.00  0.00     0.003 C 
HETATM   12  C   UNL     1      -1.855   8.196 -29.745  1.00  0.00     0.000 C 
HETATM   13  C   UNL     1      -2.577   8.831 -30.929  1.00  0.00     0.003 C 
HETATM   14  C   UNL     1      -2.148   8.215 -32.265  1.00  0.00     0.038 C 
HETATM   15  O   UNL     1      -3.730   6.395 -32.292  1.00  0.00    -0.340 OA
HETATM   16  C   UNL     1      -3.344   2.789 -32.748  1.00  0.00     0.024 C 
HETATM   17  O   UNL     1      -6.846   2.863 -31.587  1.00  0.00    -0.292 OA
HETATM   18  C   UNL     1      -7.006   1.549 -31.222  1.00  0.00     0.163 C 
HETATM   19  N   UNL     1      -8.211   1.151 -31.047  1.00  0.00    -0.277 N 
HETATM   20  H   UNL     1      -8.355   0.216 -30.638  1.00  0.00     0.189 HD
HETATM   21  C   UNL     1      -5.845   0.689 -30.998  1.00  0.00     0.065 C 
ENDROOT
BRANCH  19  22
HETATM   22  N   UNL     1      -9.371   1.792 -31.519  1.00  0.00    -0.266 N 
HETATM   23  C   UNL     1     -10.015   1.091 -32.528  1.00  0.00     0.263 C 
HETATM   24  O   UNL     1      -9.777  -0.117 -32.661  1.00  0.00    -0.269 OA
HETATM   25  H   UNL     1      -9.427   2.805 -31.419  1.00  0.00     0.190 HD
BRANCH  23  26
HETATM   26  C   UNL     1     -10.795   1.896 -33.587  1.00  0.00     0.214 C 
BRANCH  26  27
HETATM   27  N   UNL     1     -10.349   3.282 -33.590  1.00  0.00    -0.319 N 
HETATM   28  C   UNL     1     -10.378   4.097 -34.677  1.00  0.00     0.362 C 
HETATM   29  O   UNL     1     -10.877   3.783 -35.749  1.00  0.00    -0.238 OA
HETATM   30  H   UNL     1      -9.816   3.631 -32.803  1.00  0.00     0.166 HD
BRANCH  28  31
HETATM   31  O   UNL     1      -9.796   5.269 -34.363  1.00  0.00    -0.294 OA
BRANCH  31  32
HETATM   32  C   UNL     1     -10.564   6.498 -34.267  1.00  0.00     0.061 C 
HETATM   33  C   UNL     1     -11.982   6.227 -33.750  1.00  0.00     0.046 C 
HETATM   34  C   UNL     1      -9.818   7.350 -33.228  1.00  0.00     0.046 C 
HETATM   35  C   UNL     1     -10.576   7.246 -35.603  1.00  0.00     0.046 C 
ENDBRANCH  31  32
ENDBRANCH  28  31
ENDBRANCH  26  27
BRANCH  26  36
HETATM   36  C   UNL     1     -12.297   1.707 -33.586  1.00  0.00    -0.026 A 
HETATM   37  C   UNL     1     -13.083   2.584 -32.814  1.00  0.00     0.010 A 
HETATM   38  C   UNL     1     -14.470   2.439 -32.754  1.00  0.00     0.001 A 
HETATM   39  C   UNL     1     -15.095   1.420 -33.466  1.00  0.00     0.000 A 
HETATM   40  C   UNL     1     -14.335   0.551 -34.243  1.00  0.00     0.001 A 
HETATM   41  C   UNL     1     -12.947   0.693 -34.307  1.00  0.00     0.010 A 
ENDBRANCH  26  36
ENDBRANCH  23  26
ENDBRANCH  19  22
BRANCH   1  42
HETATM   42  C   UNL     1      -3.406   0.235 -31.141  1.00  0.00     0.035 C 
HETATM   43  C   UNL     1      -3.323  -1.072 -31.911  1.00  0.00     0.010 C 
ENDBRANCH   1  42
TORSDOF 7
ENDMDL
MODEL 2
REMARK VINA RESULT:      -9.4      2.552      8.413
REMARK  7 active torsions:
REMARK  status: ('A' for Active; 'I' for Inactive)
REMARK    1  A    between atoms: C_2  and  C_3 
REMARK    2  A    between atoms: N_21  and  N_23 
REMARK       I    between atoms: N_23  and  C_24 
REMARK    3  A    between atoms: C_24  and  C_25 
REMARK    4  A    between atoms: C_25  and  N_26 
REMARK    5  A    between atoms: C_25  and  C_34 
REMARK       I    between atoms: N_26  and  C_27 
REMARK    6  A    between atoms: C_27  and  O_28 
REMARK    7  A    between atoms: O_28  and  C_29 
ROOT
HETATM    1  C   UNL     1     -12.634   4.213 -33.548  1.00  0.00    -0.041 C 
HETATM    2  C   UNL     1     -11.727   5.282 -33.989  1.00  0.00     0.005 C 
HETATM    3  C   UNL     1     -10.717   4.955 -34.898  1.00  0.00     0.091 C 
HETATM    4  C   UNL     1     -10.151   5.928 -35.719  1.00  0.00     0.075 C 
HETATM    5  C   UNL     1     -10.547   7.253 -35.547  1.00  0.00     0.079 C 
HETATM    6  C   UNL     1     -11.292   7.629 -34.427  1.00  0.00    -0.024 C 
HETATM    7  C   UNL     1     -11.519   9.080 -34.097  1.00  0.00     0.044 C 
HETATM    8  C   UNL     1     -10.918   9.992 -35.163  1.00  0.00     0.043 C 
HETATM    9  C   UNL     1     -11.054   9.346 -36.553  1.00  0.00     0.068 C 
HETATM   10  C   UNL     1     -12.544   9.070 -36.913  1.00  0.00     0.038 C 
HETATM   11  C   UNL     1     -12.729   8.539 -38.329  1.00  0.00     0.003 C 
HETATM   12  C   UNL     1     -12.141   9.501 -39.348  1.00  0.00     0.000 C 
HETATM   13  C   UNL     1     -10.671   9.781 -39.052  1.00  0.00     0.003 C 
HETATM   14  C   UNL     1     -10.456  10.288 -37.621  1.00  0.00     0.038 C 
HETATM   15  O   UNL     1     -10.248   8.136 -36.555  1.00  0.00    -0.340 OA
HETATM   16  C   UNL     1     -11.921   6.630 -33.675  1.00  0.00     0.024 C 
HETATM   17  O   UNL     1     -10.257   3.625 -35.025  1.00  0.00    -0.292 OA
HETATM   18  C   UNL     1     -10.981   2.645 -34.392  1.00  0.00     0.163 C 
HETATM   19  N   UNL     1     -10.475   1.468 -34.404  1.00  0.00    -0.277 N 
HETATM   20  H   UNL     1     -11.057   0.689 -34.064  1.00  0.00     0.189 HD
HETATM   21  C   UNL     1     -12.281   2.944 -33.794  1.00  0.00     0.065 C 
ENDROOT
BRANCH  19  22
HETATM   22  N   UNL     1      -9.132   1.148 -34.675  1.00  0.00    -0.266 N 
HETATM   23  C   UNL     1      -8.568   0.303 -33.732  1.00  0.00     0.263 C 
HETATM   24  O   UNL     1      -9.315  -0.363 -33.004  1.00  0.00    -0.269 OA
HETATM   25  H   UNL     1      -8.590   1.809 -35.230  1.00  0.00     0.190 HD
BRANCH  23  26
HETATM   26  C   UNL     1      -7.054   0.424 -33.462  1.00  0.00     0.214 C 
BRANCH  26  27
HETATM   27  N   UNL     1      -6.555   1.692 -33.975  1.00  0.00    -0.319 N 
HETATM   28  C   UNL     1      -6.438   2.828 -33.238  1.00  0.00     0.362 C 
HETATM   29  O   UNL     1      -6.647   2.881 -32.034  1.00  0.00    -0.238 OA
HETATM   30  H   UNL     1      -6.452   1.814 -34.976  1.00  0.00     0.166 HD
BRANCH  28  31
HETATM   31  O   UNL     1      -6.052   3.835 -34.042  1.00  0.00    -0.294 OA
BRANCH  31  32
HETATM   32  C   UNL     1      -4.889   4.651 -33.734  1.00  0.00     0.061 C 
HETATM   33  C   UNL     1      -3.863   3.865 -32.909  1.00  0.00     0.046 C 
HETATM   34  C   UNL     1      -4.268   4.987 -35.099  1.00  0.00     0.046 C 
HETATM   35  C   UNL     1      -5.300   5.955 -33.043  1.00  0.00     0.046 C 
ENDBRANCH  31  32
ENDBRANCH  28  31
ENDBRANCH  26  27
BRANCH  26  36
HETATM   36  C   UNL     1      -6.219  -0.786 -33.826  1.00  0.00    -0.026 A 
HETATM   37  C   UNL     1      -4.902  -0.865 -33.335  1.00  0.00     0.010 A 
HETATM   38  C   UNL     1      -4.079  -1.943 -33.661  1.00  0.00     0.001 A 
HETATM   39  C   UNL     1      -4.559  -2.963 -34.477  1.00  0.00     0.000 A 
HETATM   40  C   UNL     1      -5.862  -2.908 -34.962  1.00  0.00     0.001 A 
HETATM   41  C   UNL     1      -6.690  -1.830 -34.637  1.00  0.00     0.010 A 
ENDBRANCH  26  36
ENDBRANCH  23  26
ENDBRANCH  19  22
BRANCH   1  42
HETATM   42  C   UNL     1     -14.019   4.554 -33.044  1.00  0.00     0.035 C 
HETATM   43  C   UNL     1     -14.265   4.117 -31.610  1.00  0.00     0.010 C 
ENDBRANCH   1  42
TORSDOF 7
ENDMDL
MODEL 3
REMARK VINA RESULT:      -9.0      1.798      3.841
REMARK  7 active torsions:
REMARK  status: ('A' for Active; 'I' for Inactive)
REMARK    1  A    between atoms: C_2  and  C_3 
REMARK    2  A    between atoms: N_21  and  N_23 
REMARK       I    between atoms: N_23  and  C_24 
REMARK    3  A    between atoms: C_24  and  C_25 
REMARK    4  A    between atoms: C_25  and  N_26 
REMARK    5  A    between atoms: C_25  and  C_34 
REMARK       I    between atoms: N_26  and  C_27 
REMARK    6  A    between atoms: C_27  and  O_28 
REMARK    7  A    between atoms: O_28  and  C_29 
ROOT
HETATM    1  C   UNL     1      -4.191   1.043 -32.308  1.00  0.00    -0.041 C 
HETATM    2  C   UNL     1      -4.014   2.497 -32.442  1.00  0.00     0.005 C 
HETATM    3  C   UNL     1      -4.758   3.330 -31.603  1.00  0.00     0.091 C 
HETATM    4  C   UNL     1      -4.326   4.624 -31.314  1.00  0.00     0.075 C 
HETATM    5  C   UNL     1      -3.185   5.100 -31.957  1.00  0.00     0.079 C 
HETATM    6  C   UNL     1      -2.640   4.405 -33.038  1.00  0.00    -0.024 C 
HETATM    7  C   UNL     1      -1.565   5.021 -33.894  1.00  0.00     0.044 C 
HETATM    8  C   UNL     1      -1.149   6.390 -33.363  1.00  0.00     0.043 C 
HETATM    9  C   UNL     1      -1.200   6.400 -31.824  1.00  0.00     0.068 C 
HETATM   10  C   UNL     1      -0.260   5.318 -31.213  1.00  0.00     0.038 C 
HETATM   11  C   UNL     1      -0.194   5.374 -29.692  1.00  0.00     0.003 C 
HETATM   12  C   UNL     1       0.256   6.748 -29.222  1.00  0.00     0.000 C 
HETATM   13  C   UNL     1      -0.652   7.841 -29.774  1.00  0.00     0.003 C 
HETATM   14  C   UNL     1      -0.760   7.785 -31.302  1.00  0.00     0.038 C 
HETATM   15  O   UNL     1      -2.587   6.218 -31.431  1.00  0.00    -0.340 OA
HETATM   16  C   UNL     1      -3.030   3.078 -33.247  1.00  0.00     0.024 C 
HETATM   17  O   UNL     1      -5.956   2.878 -31.007  1.00  0.00    -0.292 OA
HETATM   18  C   UNL     1      -6.242   1.539 -31.104  1.00  0.00     0.163 C 
HETATM   19  N   UNL     1      -7.394   1.172 -30.679  1.00  0.00    -0.277 N 
HETATM   20  H   UNL     1      -7.582   0.162 -30.608  1.00  0.00     0.189 HD
HETATM   21  C   UNL     1      -5.248   0.597 -31.615  1.00  0.00     0.065 C 
ENDROOT
BRANCH  19  22
HETATM   22  N   UNL     1      -8.501   2.012 -30.461  1.00  0.00    -0.266 N 
HETATM   23  C   UNL     1      -9.327   2.132 -31.569  1.00  0.00     0.263 C 
HETATM   24  O   UNL     1      -9.262   1.273 -32.458  1.00  0.00    -0.269 OA
HETATM   25  H   UNL     1      -8.414   2.734 -29.747  1.00  0.00     0.190 HD
BRANCH  23  26
HETATM   26  C   UNL     1     -10.096   3.455 -31.761  1.00  0.00     0.214 C 
BRANCH  26  27
HETATM   27  N   UNL     1     -11.119   3.294 -32.784  1.00  0.00    -0.319 N 
HETATM   28  C   UNL     1     -12.455   3.259 -32.537  1.00  0.00     0.362 C 
HETATM   29  O   UNL     1     -12.949   3.458 -31.436  1.00  0.00    -0.238 OA
HETATM   30  H   UNL     1     -10.845   3.010 -33.717  1.00  0.00     0.166 HD
BRANCH  28  31
HETATM   31  O   UNL     1     -13.107   2.990 -33.683  1.00  0.00    -0.294 OA
BRANCH  31  32
HETATM   32  C   UNL     1     -13.057   1.674 -34.297  1.00  0.00     0.061 C 
HETATM   33  C   UNL     1     -12.311   0.675 -33.405  1.00  0.00     0.046 C 
HETATM   34  C   UNL     1     -14.525   1.233 -34.407  1.00  0.00     0.046 C 
HETATM   35  C   UNL     1     -12.455   1.745 -35.703  1.00  0.00     0.046 C 
ENDBRANCH  31  32
ENDBRANCH  28  31
ENDBRANCH  26  27
BRANCH  26  36
HETATM   36  C   UNL     1      -9.245   4.700 -31.897  1.00  0.00    -0.026 A 
HETATM   37  C   UNL     1      -8.231   4.717 -32.873  1.00  0.00     0.010 A 
HETATM   38  C   UNL     1      -7.399   5.826 -33.024  1.00  0.00     0.001 A 
HETATM   39  C   UNL     1      -7.569   6.940 -32.207  1.00  0.00     0.000 A 
HETATM   40  C   UNL     1      -8.573   6.946 -31.244  1.00  0.00     0.001 A 
HETATM   41  C   UNL     1      -9.409   5.837 -31.090  1.00  0.00     0.010 A 
ENDBRANCH  26  36
ENDBRANCH  23  26
ENDBRANCH  19  22
BRANCH   1  42
HETATM   42  C   UNL     1      -3.089   0.102 -32.742  1.00  0.00     0.035 C 
HETATM   43  C   UNL     1      -2.633  -0.842 -31.642  1.00  0.00     0.010 C 
ENDBRANCH   1  42
TORSDOF 7
ENDMDL
MODEL 4
REMARK VINA RESULT:      -8.9      3.056      5.865
REMARK  7 active torsions:
REMARK  status: ('A' for Active; 'I' for Inactive)
REMARK    1  A    between atoms: C_2  and  C_3 
REMARK    2  A    between atoms: N_21  and  N_23 
REMARK       I    between atoms: N_23  and  C_24 
REMARK    3  A    between atoms: C_24  and  C_25 
REMARK    4  A    between atoms: C_25  and  N_26 
REMARK    5  A    between atoms: C_25  and  C_34 
REMARK       I    between atoms: N_26  and  C_27 
REMARK    6  A    between atoms: C_27  and  O_28 
REMARK    7  A    between atoms: O_28  and  C_29 
ROOT
HETATM    1  C   UNL     1      -1.054   5.616 -31.095  1.00  0.00    -0.041 C 
HETATM    2  C   UNL     1      -2.058   6.637 -30.762  1.00  0.00     0.005 C 
HETATM    3  C   UNL     1      -3.381   6.224 -30.582  1.00  0.00     0.091 C 
HETATM    4  C   UNL     1      -4.269   6.979 -29.817  1.00  0.00     0.075 C 
HETATM    5  C   UNL     1      -3.833   8.204 -29.315  1.00  0.00     0.079 C 
HETATM    6  C   UNL     1      -2.641   8.772 -29.770  1.00  0.00    -0.024 C 
HETATM    7  C   UNL     1      -2.280  10.193 -29.428  1.00  0.00     0.044 C 
HETATM    8  C   UNL     1      -3.315  10.822 -28.500  1.00  0.00     0.043 C 
HETATM    9  C   UNL     1      -3.863   9.766 -27.524  1.00  0.00     0.068 C 
HETATM   10  C   UNL     1      -2.729   9.142 -26.659  1.00  0.00     0.038 C 
HETATM   11  C   UNL     1      -3.247   8.177 -25.599  1.00  0.00     0.003 C 
HETATM   12  C   UNL     1      -4.249   8.865 -24.686  1.00  0.00     0.000 C 
HETATM   13  C   UNL     1      -5.396   9.470 -25.488  1.00  0.00     0.003 C 
HETATM   14  C   UNL     1      -4.897  10.422 -26.581  1.00  0.00     0.038 C 
HETATM   15  O   UNL     1      -4.576   8.771 -28.310  1.00  0.00    -0.340 OA
HETATM   16  C   UNL     1      -1.733   7.961 -30.458  1.00  0.00     0.024 C 
HETATM   17  O   UNL     1      -3.850   5.019 -31.151  1.00  0.00    -0.292 OA
HETATM   18  C   UNL     1      -2.915   4.172 -31.693  1.00  0.00     0.163 C 
HETATM   19  N   UNL     1      -3.369   3.154 -32.324  1.00  0.00    -0.277 N 
HETATM   20  H   UNL     1      -2.698   2.430 -32.618  1.00  0.00     0.189 HD
HETATM   21  C   UNL     1      -1.486   4.413 -31.498  1.00  0.00     0.065 C 
ENDROOT
BRANCH  19  22
HETATM   22  N   UNL     1      -4.679   3.002 -32.815  1.00  0.00    -0.266 N 
HETATM   23  C   UNL     1      -5.237   1.768 -32.515  1.00  0.00     0.263 C 
HETATM   24  O   UNL     1      -4.751   1.100 -31.593  1.00  0.00    -0.269 OA
HETATM   25  H   UNL     1      -4.948   3.555 -33.627  1.00  0.00     0.190 HD
BRANCH  23  26
HETATM   26  C   UNL     1      -6.266   1.178 -33.502  1.00  0.00     0.214 C 
BRANCH  26  27
HETATM   27  N   UNL     1      -7.616   1.527 -33.083  1.00  0.00    -0.319 N 
HETATM   28  C   UNL     1      -8.182   2.750 -33.254  1.00  0.00     0.362 C 
HETATM   29  O   UNL     1      -7.652   3.665 -33.870  1.00  0.00    -0.238 OA
HETATM   30  H   UNL     1      -8.120   0.900 -32.468  1.00  0.00     0.166 HD
BRANCH  28  31
HETATM   31  O   UNL     1      -9.390   2.762 -32.660  1.00  0.00    -0.294 OA
BRANCH  31  32
HETATM   32  C   UNL     1     -10.615   2.590 -33.422  1.00  0.00     0.061 C 
HETATM   33  C   UNL     1     -10.992   1.108 -33.536  1.00  0.00     0.046 C 
HETATM   34  C   UNL     1     -11.696   3.309 -32.600  1.00  0.00     0.046 C 
HETATM   35  C   UNL     1     -10.508   3.260 -34.794  1.00  0.00     0.046 C 
ENDBRANCH  31  32
ENDBRANCH  28  31
ENDBRANCH  26  27
BRANCH  26  36
HETATM   36  C   UNL     1      -6.066  -0.276 -33.873  1.00  0.00    -0.026 A 
HETATM   37  C   UNL     1      -7.190  -1.030 -34.262  1.00  0.00     0.010 A 
HETATM   38  C   UNL     1      -7.069  -2.381 -34.588  1.00  0.00     0.001 A 
HETATM   39  C   UNL     1      -5.824  -3.001 -34.536  1.00  0.00     0.000 A 
HETATM   40  C   UNL     1      -4.700  -2.269 -34.165  1.00  0.00     0.001 A 
HETATM   41  C   UNL     1      -4.817  -0.915 -33.838  1.00  0.00     0.010 A 
ENDBRANCH  26  36
ENDBRANCH  23  26
ENDBRANCH  19  22
BRANCH   1  42
HETATM   42  C   UNL     1       0.404   5.852 -30.770  1.00  0.00     0.035 C 
HETATM   43  C   UNL     1       0.818   5.305 -29.414  1.00  0.00     0.010 C 
ENDBRANCH   1  42
TORSDOF 7
ENDMDL
MODEL 5
REMARK VINA RESULT:      -8.7      2.481      8.400
REMARK  7 active torsions:
REMARK  status: ('A' for Active; 'I' for Inactive)
REMARK    1  A    between atoms: C_2  and  C_3 
REMARK    2  A    between atoms: N_21  and  N_23 
REMARK       I    between atoms: N_23  and  C_24 
REMARK    3  A    between atoms: C_24  and  C_25 
REMARK    4  A    between atoms: C_25  and  N_26 
REMARK    5  A    between atoms: C_25  and  C_34 
REMARK       I    between atoms: N_26  and  C_27 
REMARK    6  A    between atoms: C_27  and  O_28 
REMARK    7  A    between atoms: O_28  and  C_29 
ROOT
HETATM    1  C   UNL     1     -12.762   1.972 -33.557  1.00  0.00    -0.041 C 
HETATM    2  C   UNL     1     -12.299   3.211 -32.914  1.00  0.00     0.005 C 
HETATM    3  C   UNL     1     -10.925   3.466 -32.889  1.00  0.00     0.091 C 
HETATM    4  C   UNL     1     -10.442   4.766 -32.761  1.00  0.00     0.075 C 
HETATM    5  C   UNL     1     -11.358   5.797 -32.564  1.00  0.00     0.079 C 
HETATM    6  C   UNL     1     -12.689   5.511 -32.251  1.00  0.00    -0.024 C 
HETATM    7  C   UNL     1     -13.629   6.596 -31.795  1.00  0.00     0.044 C 
HETATM    8  C   UNL     1     -12.953   7.964 -31.820  1.00  0.00     0.043 C 
HETATM    9  C   UNL     1     -11.974   8.050 -33.005  1.00  0.00     0.068 C 
HETATM   10  C   UNL     1     -12.699   7.826 -34.365  1.00  0.00     0.038 C 
HETATM   11  C   UNL     1     -11.786   8.020 -35.569  1.00  0.00     0.003 C 
HETATM   12  C   UNL     1     -11.166   9.408 -35.558  1.00  0.00     0.000 C 
HETATM   13  C   UNL     1     -10.420   9.665 -34.253  1.00  0.00     0.003 C 
HETATM   14  C   UNL     1     -11.311   9.445 -33.025  1.00  0.00     0.038 C 
HETATM   15  O   UNL     1     -10.916   7.080 -32.771  1.00  0.00    -0.340 OA
HETATM   16  C   UNL     1     -13.166   4.215 -32.475  1.00  0.00     0.024 C 
HETATM   17  O   UNL     1      -9.989   2.415 -33.014  1.00  0.00    -0.292 OA
HETATM   18  C   UNL     1     -10.470   1.182 -33.378  1.00  0.00     0.163 C 
HETATM   19  N   UNL     1      -9.631   0.215 -33.353  1.00  0.00    -0.277 N 
HETATM   20  H   UNL     1      -9.924  -0.689 -33.753  1.00  0.00     0.189 HD
HETATM   21  C   UNL     1     -11.855   1.020 -33.819  1.00  0.00     0.065 C 
ENDROOT
BRANCH  19  22
HETATM   22  N   UNL     1      -8.399   0.206 -32.674  1.00  0.00    -0.266 N 
HETATM   23  C   UNL     1      -7.304   0.266 -33.522  1.00  0.00     0.263 C 
HETATM   24  O   UNL     1      -7.465   0.679 -34.678  1.00  0.00    -0.269 OA
HETATM   25  H   UNL     1      -8.369  -0.226 -31.752  1.00  0.00     0.190 HD
BRANCH  23  26
HETATM   26  C   UNL     1      -5.998  -0.420 -33.071  1.00  0.00     0.214 C 
BRANCH  26  27
HETATM   27  N   UNL     1      -4.894   0.528 -33.117  1.00  0.00    -0.319 N 
HETATM   28  C   UNL     1      -4.486   1.285 -32.065  1.00  0.00     0.362 C 
HETATM   29  O   UNL     1      -4.940   1.179 -30.933  1.00  0.00    -0.238 OA
HETATM   30  H   UNL     1      -4.507   0.792 -34.014  1.00  0.00     0.166 HD
BRANCH  28  31
HETATM   31  O   UNL     1      -3.520   2.127 -32.477  1.00  0.00    -0.294 OA
BRANCH  31  32
HETATM   32  C   UNL     1      -3.753   3.556 -32.590  1.00  0.00     0.061 C 
HETATM   33  C   UNL     1      -3.793   4.223 -31.211  1.00  0.00     0.046 C 
HETATM   34  C   UNL     1      -2.538   4.095 -33.361  1.00  0.00     0.046 C 
HETATM   35  C   UNL     1      -5.020   3.844 -33.401  1.00  0.00     0.046 C 
ENDBRANCH  31  32
ENDBRANCH  28  31
ENDBRANCH  26  27
BRANCH  26  36
HETATM   36  C   UNL     1      -5.710  -1.769 -33.696  1.00  0.00    -0.026 A 
HETATM   37  C   UNL     1      -6.775  -2.477 -34.284  1.00  0.00     0.010 A 
HETATM   38  C   UNL     1      -6.573  -3.736 -34.850  1.00  0.00     0.001 A 
HETATM   39  C   UNL     1      -5.304  -4.306 -34.844  1.00  0.00     0.000 A 
HETATM   40  C   UNL     1      -4.236  -3.616 -34.278  1.00  0.00     0.001 A 
HETATM   41  C   UNL     1      -4.435  -2.354 -33.710  1.00  0.00     0.010 A 
ENDBRANCH  26  36
ENDBRANCH  23  26
ENDBRANCH  19  22
BRANCH   1  42
HETATM   42  C   UNL     1     -14.168   1.883 -34.108  1.00  0.00     0.035 C 
HETATM   43  C   UNL     1     -14.726   0.470 -34.114  1.00  0.00     0.010 C 
ENDBRANCH   1  42
TORSDOF 7
ENDMDL
MODEL 6
REMARK VINA RESULT:      -8.6      2.375      3.100
REMARK  7 active torsions:
REMARK  status: ('A' for Active; 'I' for Inactive)
REMARK    1  A    between atoms: C_2  and  C_3 
REMARK    2  A    between atoms: N_21  and  N_23 
REMARK       I    between atoms: N_23  and  C_24 
REMARK    3  A    between atoms: C_24  and  C_25 
REMARK    4  A    between atoms: C_25  and  N_26 
REMARK    5  A    between atoms: C_25  and  C_34 
REMARK       I    between atoms: N_26  and  C_27 
REMARK    6  A    between atoms: C_27  and  O_28 
REMARK    7  A    between atoms: O_28  and  C_29 
ROOT
HETATM    1  C   UNL     1      -4.294   1.259 -32.190  1.00  0.00    -0.041 C 
HETATM    2  C   UNL     1      -4.048   2.706 -32.279  1.00  0.00     0.005 C 
HETATM    3  C   UNL     1      -4.725   3.544 -31.389  1.00  0.00     0.091 C 
HETATM    4  C   UNL     1      -4.221   4.803 -31.067  1.00  0.00     0.075 C 
HETATM    5  C   UNL     1      -3.075   5.245 -31.726  1.00  0.00     0.079 C 
HETATM    6  C   UNL     1      -2.596   4.564 -32.847  1.00  0.00    -0.024 C 
HETATM    7  C   UNL     1      -1.515   5.158 -33.712  1.00  0.00     0.044 C 
HETATM    8  C   UNL     1      -1.015   6.484 -33.145  1.00  0.00     0.043 C 
HETATM    9  C   UNL     1      -1.023   6.439 -31.606  1.00  0.00     0.068 C 
HETATM   10  C   UNL     1      -0.123   5.291 -31.062  1.00  0.00     0.038 C 
HETATM   11  C   UNL     1      -0.012   5.287 -29.542  1.00  0.00     0.003 C 
HETATM   12  C   UNL     1       0.520   6.619 -29.037  1.00  0.00     0.000 C 
HETATM   13  C   UNL     1      -0.347   7.775 -29.524  1.00  0.00     0.003 C 
HETATM   14  C   UNL     1      -0.500   7.781 -31.049  1.00  0.00     0.038 C 
HETATM   15  O   UNL     1      -2.407   6.312 -31.179  1.00  0.00    -0.340 OA
HETATM   16  C   UNL     1      -3.058   3.266 -33.090  1.00  0.00     0.024 C 
HETATM   17  O   UNL     1      -5.928   3.130 -30.774  1.00  0.00    -0.292 OA
HETATM   18  C   UNL     1      -6.284   1.811 -30.909  1.00  0.00     0.163 C 
HETATM   19  N   UNL     1      -7.440   1.487 -30.464  1.00  0.00    -0.277 N 
HETATM   20  H   UNL     1      -7.677   0.485 -30.423  1.00  0.00     0.189 HD
HETATM   21  C   UNL     1      -5.353   0.841 -31.483  1.00  0.00     0.065 C 
ENDROOT
BRANCH  19  22
HETATM   22  N   UNL     1      -8.497   2.372 -30.184  1.00  0.00    -0.266 N 
HETATM   23  C   UNL     1      -9.350   2.567 -31.260  1.00  0.00     0.263 C 
HETATM   24  O   UNL     1      -9.357   1.734 -32.176  1.00  0.00    -0.269 OA
HETATM   25  H   UNL     1      -8.352   3.066 -29.452  1.00  0.00     0.190 HD
BRANCH  23  26
HETATM   26  C   UNL     1     -10.059   3.931 -31.386  1.00  0.00     0.214 C 
BRANCH  26  27
HETATM   27  N   UNL     1      -9.637   4.815 -30.309  1.00  0.00    -0.319 N 
HETATM   28  C   UNL     1      -8.586   5.673 -30.386  1.00  0.00     0.362 C 
HETATM   29  O   UNL     1      -7.940   5.868 -31.407  1.00  0.00    -0.238 OA
HETATM   30  H   UNL     1     -10.013   4.676 -29.379  1.00  0.00     0.166 HD
BRANCH  28  31
HETATM   31  O   UNL     1      -8.406   6.256 -29.186  1.00  0.00    -0.294 OA
BRANCH  31  32
HETATM   32  C   UNL     1      -8.661   7.671 -28.981  1.00  0.00     0.061 C 
HETATM   33  C   UNL     1      -9.756   8.179 -29.926  1.00  0.00     0.046 C 
HETATM   34  C   UNL     1      -9.171   7.776 -27.535  1.00  0.00     0.046 C 
HETATM   35  C   UNL     1      -7.371   8.487 -29.111  1.00  0.00     0.046 C 
ENDBRANCH  31  32
ENDBRANCH  28  31
ENDBRANCH  26  27
BRANCH  26  36
HETATM   36  C   UNL     1     -11.554   3.879 -31.623  1.00  0.00    -0.026 A 
HETATM   37  C   UNL     1     -12.018   3.500 -32.897  1.00  0.00     0.010 A 
HETATM   38  C   UNL     1     -13.384   3.463 -33.180  1.00  0.00     0.001 A 
HETATM   39  C   UNL     1     -14.308   3.797 -32.194  1.00  0.00     0.000 A 
HETATM   40  C   UNL     1     -13.868   4.162 -30.926  1.00  0.00     0.001 A 
HETATM   41  C   UNL     1     -12.501   4.201 -30.639  1.00  0.00     0.010 A 
ENDBRANCH  26  36
ENDBRANCH  23  26
ENDBRANCH  19  22
BRANCH   1  42
HETATM   42  C   UNL     1      -3.253   0.281 -32.689  1.00  0.00     0.035 C 
HETATM   43  C   UNL     1      -2.848  -0.752 -31.651  1.00  0.00     0.010 C 
ENDBRANCH   1  42
TORSDOF 7
ENDMDL
MODEL 7
REMARK VINA RESULT:      -8.6      4.469     10.533
REMARK  7 active torsions:
REMARK  status: ('A' for Active; 'I' for Inactive)
REMARK    1  A    between atoms: C_2  and  C_3 
REMARK    2  A    between atoms: N_21  and  N_23 
REMARK       I    between atoms: N_23  and  C_24 
REMARK    3  A    between atoms: C_24  and  C_25 
REMARK    4  A    between atoms: C_25  and  N_26 
REMARK    5  A    between atoms: C_25  and  C_34 
REMARK       I    between atoms: N_26  and  C_27 
REMARK    6  A    between atoms: C_27  and  O_28 
REMARK    7  A    between atoms: O_28  and  C_29 
ROOT
HETATM    1  C   UNL     1      -2.555   5.099 -32.713  1.00  0.00    -0.041 C 
HETATM    2  C   UNL     1      -3.331   4.027 -32.072  1.00  0.00     0.005 C 
HETATM    3  C   UNL     1      -4.228   4.379 -31.059  1.00  0.00     0.091 C 
HETATM    4  C   UNL     1      -5.313   3.562 -30.749  1.00  0.00     0.075 C 
HETATM    5  C   UNL     1      -5.431   2.339 -31.406  1.00  0.00     0.079 C 
HETATM    6  C   UNL     1      -4.369   1.836 -32.160  1.00  0.00    -0.024 C 
HETATM    7  C   UNL     1      -4.383   0.419 -32.671  1.00  0.00     0.044 C 
HETATM    8  C   UNL     1      -5.693  -0.283 -32.325  1.00  0.00     0.043 C 
HETATM    9  C   UNL     1      -6.862   0.715 -32.388  1.00  0.00     0.068 C 
HETATM   10  C   UNL     1      -6.995   1.354 -33.801  1.00  0.00     0.038 C 
HETATM   11  C   UNL     1      -8.213   2.259 -33.937  1.00  0.00     0.003 C 
HETATM   12  C   UNL     1      -9.490   1.500 -33.612  1.00  0.00     0.000 C 
HETATM   13  C   UNL     1      -9.417   0.877 -32.222  1.00  0.00     0.003 C 
HETATM   14  C   UNL     1      -8.182  -0.015 -32.051  1.00  0.00     0.038 C 
HETATM   15  O   UNL     1      -6.648   1.707 -31.347  1.00  0.00    -0.340 OA
HETATM   16  C   UNL     1      -3.338   2.707 -32.529  1.00  0.00     0.024 C 
HETATM   17  O   UNL     1      -4.072   5.583 -30.337  1.00  0.00    -0.292 OA
HETATM   18  C   UNL     1      -3.150   6.486 -30.808  1.00  0.00     0.163 C 
HETATM   19  N   UNL     1      -2.925   7.506 -30.067  1.00  0.00    -0.277 N 
HETATM   20  H   UNL     1      -2.349   8.267 -30.456  1.00  0.00     0.189 HD
HETATM   21  C   UNL     1      -2.518   6.296 -32.113  1.00  0.00     0.065 C 
ENDROOT
BRANCH  19  22
HETATM   22  N   UNL     1      -3.240   7.622 -28.702  1.00  0.00    -0.266 N 
HETATM   23  C   UNL     1      -2.409   8.497 -28.018  1.00  0.00     0.263 C 
HETATM   24  O   UNL     1      -1.762   9.333 -28.663  1.00  0.00    -0.269 OA
HETATM   25  H   UNL     1      -3.714   6.838 -28.256  1.00  0.00     0.190 HD
BRANCH  23  26
HETATM   26  C   UNL     1      -2.136   8.223 -26.525  1.00  0.00     0.214 C 
BRANCH  26  27
HETATM   27  N   UNL     1      -3.118   8.915 -25.702  1.00  0.00    -0.319 N 
HETATM   28  C   UNL     1      -4.398   8.498 -25.518  1.00  0.00     0.362 C 
HETATM   29  O   UNL     1      -4.837   7.439 -25.945  1.00  0.00    -0.238 OA
HETATM   30  H   UNL     1      -2.920   9.856 -25.383  1.00  0.00     0.166 HD
BRANCH  28  31
HETATM   31  O   UNL     1      -5.060   9.420 -24.795  1.00  0.00    -0.294 OA
BRANCH  31  32
HETATM   32  C   UNL     1      -5.751  10.531 -25.428  1.00  0.00     0.061 C 
HETATM   33  C   UNL     1      -7.144  10.112 -25.915  1.00  0.00     0.046 C 
HETATM   34  C   UNL     1      -5.914  11.580 -24.317  1.00  0.00     0.046 C 
HETATM   35  C   UNL     1      -4.908  11.132 -26.557  1.00  0.00     0.046 C 
ENDBRANCH  31  32
ENDBRANCH  28  31
ENDBRANCH  26  27
BRANCH  26  36
HETATM   36  C   UNL     1      -0.699   8.381 -26.076  1.00  0.00    -0.026 A 
HETATM   37  C   UNL     1      -0.381   9.437 -25.201  1.00  0.00     0.010 A 
HETATM   38  C   UNL     1       0.931   9.647 -24.777  1.00  0.00     0.001 A 
HETATM   39  C   UNL     1       1.947   8.803 -25.216  1.00  0.00     0.000 A 
HETATM   40  C   UNL     1       1.651   7.748 -26.072  1.00  0.00     0.001 A 
HETATM   41  C   UNL     1       0.338   7.534 -26.498  1.00  0.00     0.010 A 
ENDBRANCH  26  36
ENDBRANCH  23  26
ENDBRANCH  19  22
BRANCH   1  42
HETATM   42  C   UNL     1      -2.015   4.910 -34.113  1.00  0.00     0.035 C 
HETATM   43  C   UNL     1      -3.032   5.218 -35.199  1.00  0.00     0.010 C 
ENDBRANCH   1  42
TORSDOF 7
ENDMDL
MODEL 8
REMARK VINA RESULT:      -8.3      4.367      9.106
REMARK  7 active torsions:
REMARK  status: ('A' for Active; 'I' for Inactive)
REMARK    1  A    between atoms: C_2  and  C_3 
REMARK    2  A    between atoms: N_21  and  N_23 
REMARK       I    between atoms: N_23  and  C_24 
REMARK    3  A    between atoms: C_24  and  C_25 
REMARK    4  A    between atoms: C_25  and  N_26 
REMARK    5  A    between atoms: C_25  and  C_34 
REMARK       I    between atoms: N_26  and  C_27 
REMARK    6  A    between atoms: C_27  and  O_28 
REMARK    7  A    between atoms: O_28  and  C_29 
ROOT
HETATM    1  C   UNL     1      -2.347   5.687 -32.540  1.00  0.00    -0.041 C 
HETATM    2  C   UNL     1      -3.191   4.706 -31.841  1.00  0.00     0.005 C 
HETATM    3  C   UNL     1      -4.447   5.120 -31.390  1.00  0.00     0.091 C 
HETATM    4  C   UNL     1      -5.470   4.198 -31.177  1.00  0.00     0.075 C 
HETATM    5  C   UNL     1      -5.183   2.843 -31.331  1.00  0.00     0.079 C 
HETATM    6  C   UNL     1      -3.861   2.408 -31.446  1.00  0.00    -0.024 C 
HETATM    7  C   UNL     1      -3.516   0.945 -31.367  1.00  0.00     0.044 C 
HETATM    8  C   UNL     1      -4.770   0.084 -31.239  1.00  0.00     0.043 C 
HETATM    9  C   UNL     1      -5.922   0.702 -32.051  1.00  0.00     0.068 C 
HETATM   10  C   UNL     1      -5.556   0.831 -33.559  1.00  0.00     0.038 C 
HETATM   11  C   UNL     1      -6.713   1.329 -34.416  1.00  0.00     0.003 C 
HETATM   12  C   UNL     1      -7.922   0.418 -34.274  1.00  0.00     0.000 C 
HETATM   13  C   UNL     1      -8.336   0.283 -32.812  1.00  0.00     0.003 C 
HETATM   14  C   UNL     1      -7.179  -0.188 -31.925  1.00  0.00     0.038 C 
HETATM   15  O   UNL     1      -6.247   1.984 -31.447  1.00  0.00    -0.340 OA
HETATM   16  C   UNL     1      -2.871   3.349 -31.750  1.00  0.00     0.024 C 
HETATM   17  O   UNL     1      -4.722   6.487 -31.161  1.00  0.00    -0.292 OA
HETATM   18  C   UNL     1      -3.795   7.399 -31.601  1.00  0.00     0.163 C 
HETATM   19  N   UNL     1      -3.993   8.618 -31.263  1.00  0.00    -0.277 N 
HETATM   20  H   UNL     1      -3.398   9.341 -31.693  1.00  0.00     0.189 HD
HETATM   21  C   UNL     1      -2.682   6.982 -32.452  1.00  0.00     0.065 C 
ENDROOT
BRANCH  19  22
HETATM   22  N   UNL     1      -4.834   9.063 -30.226  1.00  0.00    -0.266 N 
HETATM   23  C   UNL     1      -4.201   9.123 -28.993  1.00  0.00     0.263 C 
HETATM   24  O   UNL     1      -2.964   9.159 -28.958  1.00  0.00    -0.269 OA
HETATM   25  H   UNL     1      -5.836   8.917 -30.333  1.00  0.00     0.190 HD
BRANCH  23  26
HETATM   26  C   UNL     1      -5.051   8.887 -27.729  1.00  0.00     0.214 C 
BRANCH  26  27
HETATM   27  N   UNL     1      -4.186   8.629 -26.586  1.00  0.00    -0.319 N 
HETATM   28  C   UNL     1      -4.491   8.950 -25.302  1.00  0.00     0.362 C 
HETATM   29  O   UNL     1      -5.573   9.403 -24.953  1.00  0.00    -0.238 OA
HETATM   30  H   UNL     1      -3.222   8.361 -26.747  1.00  0.00     0.166 HD
BRANCH  28  31
HETATM   31  O   UNL     1      -3.434   8.675 -24.516  1.00  0.00    -0.294 OA
BRANCH  31  32
HETATM   32  C   UNL     1      -2.261   9.532 -24.491  1.00  0.00     0.061 C 
HETATM   33  C   UNL     1      -1.607   9.535 -23.104  1.00  0.00     0.046 C 
HETATM   34  C   UNL     1      -1.284   8.896 -25.492  1.00  0.00     0.046 C 
HETATM   35  C   UNL     1      -2.603  10.947 -24.965  1.00  0.00     0.046 C 
ENDBRANCH  31  32
ENDBRANCH  28  31
ENDBRANCH  26  27
BRANCH  26  36
HETATM   36  C   UNL     1      -6.212   7.927 -27.883  1.00  0.00    -0.026 A 
HETATM   37  C   UNL     1      -5.936   6.548 -27.962  1.00  0.00     0.010 A 
HETATM   38  C   UNL     1      -6.965   5.621 -28.132  1.00  0.00     0.001 A 
HETATM   39  C   UNL     1      -8.284   6.053 -28.220  1.00  0.00     0.000 A 
HETATM   40  C   UNL     1      -8.576   7.411 -28.133  1.00  0.00     0.001 A 
HETATM   41  C   UNL     1      -7.550   8.343 -27.962  1.00  0.00     0.010 A 
ENDBRANCH  26  36
ENDBRANCH  23  26
ENDBRANCH  19  22
BRANCH   1  42
HETATM   42  C   UNL     1      -1.281   5.220 -33.506  1.00  0.00     0.035 C 
HETATM   43  C   UNL     1      -1.766   5.126 -34.942  1.00  0.00     0.010 C 
ENDBRANCH   1  42
TORSDOF 7
ENDMDL
MODEL 9
REMARK VINA RESULT:      -8.3      2.606      4.672
REMARK  7 active torsions:
REMARK  status: ('A' for Active; 'I' for Inactive)
REMARK    1  A    between atoms: C_2  and  C_3 
REMARK    2  A    between atoms: N_21  and  N_23 
REMARK       I    between atoms: N_23  and  C_24 
REMARK    3  A    between atoms: C_24  and  C_25 
REMARK    4  A    between atoms: C_25  and  N_26 
REMARK    5  A    between atoms: C_25  and  C_34 
REMARK       I    between atoms: N_26  and  C_27 
REMARK    6  A    between atoms: C_27  and  O_28 
REMARK    7  A    between atoms: O_28  and  C_29 
ROOT
HETATM    1  C   UNL     1      -2.513   5.672 -32.988  1.00  0.00    -0.041 C 
HETATM    2  C   UNL     1      -3.012   6.609 -31.970  1.00  0.00     0.005 C 
HETATM    3  C   UNL     1      -3.825   6.102 -30.952  1.00  0.00     0.091 C 
HETATM    4  C   UNL     1      -3.934   6.762 -29.729  1.00  0.00     0.075 C 
HETATM    5  C   UNL     1      -3.290   7.988 -29.578  1.00  0.00     0.079 C 
HETATM    6  C   UNL     1      -2.767   8.654 -30.689  1.00  0.00    -0.024 C 
HETATM    7  C   UNL     1      -2.291  10.079 -30.585  1.00  0.00     0.044 C 
HETATM    8  C   UNL     1      -2.389  10.595 -29.153  1.00  0.00     0.043 C 
HETATM    9  C   UNL     1      -2.082   9.462 -28.158  1.00  0.00     0.068 C 
HETATM   10  C   UNL     1      -0.657   8.875 -28.381  1.00  0.00     0.038 C 
HETATM   11  C   UNL     1      -0.270   7.830 -27.341  1.00  0.00     0.003 C 
HETATM   12  C   UNL     1      -0.356   8.409 -25.937  1.00  0.00     0.000 C 
HETATM   13  C   UNL     1      -1.746   8.973 -25.662  1.00  0.00     0.003 C 
HETATM   14  C   UNL     1      -2.170  10.004 -26.714  1.00  0.00     0.038 C 
HETATM   15  O   UNL     1      -3.125   8.459 -28.300  1.00  0.00    -0.340 OA
HETATM   16  C   UNL     1      -2.587   7.937 -31.876  1.00  0.00     0.024 C 
HETATM   17  O   UNL     1      -4.540   4.896 -31.126  1.00  0.00    -0.292 OA
HETATM   18  C   UNL     1      -4.238   4.138 -32.230  1.00  0.00     0.163 C 
HETATM   19  N   UNL     1      -4.989   3.123 -32.444  1.00  0.00    -0.277 N 
HETATM   20  H   UNL     1      -4.704   2.458 -33.179  1.00  0.00     0.189 HD
HETATM   21  C   UNL     1      -3.085   4.463 -33.068  1.00  0.00     0.065 C 
ENDROOT
BRANCH  19  22
HETATM   22  N   UNL     1      -6.265   2.906 -31.893  1.00  0.00    -0.266 N 
HETATM   23  C   UNL     1      -7.245   2.680 -32.848  1.00  0.00     0.263 C 
HETATM   24  O   UNL     1      -6.901   2.326 -33.984  1.00  0.00    -0.269 OA
HETATM   25  H   UNL     1      -6.459   3.307 -30.976  1.00  0.00     0.190 HD
BRANCH  23  26
HETATM   26  C   UNL     1      -8.687   3.124 -32.528  1.00  0.00     0.214 C 
BRANCH  26  27
HETATM   27  N   UNL     1      -8.752   3.676 -31.182  1.00  0.00    -0.319 N 
HETATM   28  C   UNL     1      -9.396   4.827 -30.853  1.00  0.00     0.362 C 
HETATM   29  O   UNL     1     -10.076   5.474 -31.638  1.00  0.00    -0.238 OA
HETATM   30  H   UNL     1      -8.144   3.302 -30.464  1.00  0.00     0.166 HD
BRANCH  28  31
HETATM   31  O   UNL     1      -9.168   5.102 -29.556  1.00  0.00    -0.294 OA
BRANCH  31  32
HETATM   32  C   UNL     1      -8.159   6.065 -29.148  1.00  0.00     0.061 C 
HETATM   33  C   UNL     1      -8.718   7.046 -28.110  1.00  0.00     0.046 C 
HETATM   34  C   UNL     1      -7.056   5.225 -28.486  1.00  0.00     0.046 C 
HETATM   35  C   UNL     1      -7.569   6.790 -30.361  1.00  0.00     0.046 C 
ENDBRANCH  31  32
ENDBRANCH  28  31
ENDBRANCH  26  27
BRANCH  26  36
HETATM   36  C   UNL     1      -9.775   2.126 -32.864  1.00  0.00    -0.026 A 
HETATM   37  C   UNL     1      -9.568   0.772 -32.538  1.00  0.00     0.010 A 
HETATM   38  C   UNL     1     -10.524  -0.194 -32.850  1.00  0.00     0.001 A 
HETATM   39  C   UNL     1     -11.705   0.175 -33.487  1.00  0.00     0.000 A 
HETATM   40  C   UNL     1     -11.932   1.510 -33.806  1.00  0.00     0.001 A 
HETATM   41  C   UNL     1     -10.977   2.481 -33.495  1.00  0.00     0.010 A 
ENDBRANCH  26  36
ENDBRANCH  23  26
ENDBRANCH  19  22
BRANCH   1  42
HETATM   42  C   UNL     1      -1.247   5.990 -33.754  1.00  0.00     0.035 C 
HETATM   43  C   UNL     1      -1.148   5.263 -35.085  1.00  0.00     0.010 C 
ENDBRANCH   1  42
TORSDOF 7
ENDMDL
MODEL 10
REMARK VINA RESULT:      -8.3      4.254      9.710
REMARK  7 active torsions:
REMARK  status: ('A' for Active; 'I' for Inactive)
REMARK    1  A    between atoms: C_2  and  C_3 
REMARK    2  A    between atoms: N_21  and  N_23 
REMARK       I    between atoms: N_23  and  C_24 
REMARK    3  A    between atoms: C_24  and  C_25 
REMARK    4  A    between atoms: C_25  and  N_26 
REMARK    5  A    between atoms: C_25  and  C_34 
REMARK       I    between atoms: N_26  and  C_27 
REMARK    6  A    between atoms: C_27  and  O_28 
REMARK    7  A    between atoms: O_28  and  C_29 
ROOT
HETATM    1  C   UNL     1      -2.040   5.706 -32.571  1.00  0.00    -0.041 C 
HETATM    2  C   UNL     1      -2.813   4.732 -31.786  1.00  0.00     0.005 C 
HETATM    3  C   UNL     1      -3.829   5.214 -30.957  1.00  0.00     0.091 C 
HETATM    4  C   UNL     1      -4.890   4.394 -30.576  1.00  0.00     0.075 C 
HETATM    5  C   UNL     1      -4.865   3.056 -30.962  1.00  0.00     0.079 C 
HETATM    6  C   UNL     1      -3.702   2.494 -31.492  1.00  0.00    -0.024 C 
HETATM    7  C   UNL     1      -3.577   1.006 -31.685  1.00  0.00     0.044 C 
HETATM    8  C   UNL     1      -4.871   0.287 -31.314  1.00  0.00     0.043 C 
HETATM    9  C   UNL     1      -6.086   1.152 -31.694  1.00  0.00     0.068 C 
HETATM   10  C   UNL     1      -6.109   1.470 -33.219  1.00  0.00     0.038 C 
HETATM   11  C   UNL     1      -7.359   2.225 -33.654  1.00  0.00     0.003 C 
HETATM   12  C   UNL     1      -8.614   1.450 -33.288  1.00  0.00     0.000 C 
HETATM   13  C   UNL     1      -8.649   1.138 -31.795  1.00  0.00     0.003 C 
HETATM   14  C   UNL     1      -7.387   0.405 -31.328  1.00  0.00     0.038 C 
HETATM   15  O   UNL     1      -6.042   2.354 -30.876  1.00  0.00    -0.340 OA
HETATM   16  C   UNL     1      -2.692   3.349 -31.947  1.00  0.00     0.024 C 
HETATM   17  O   UNL     1      -3.822   6.551 -30.500  1.00  0.00    -0.292 OA
HETATM   18  C   UNL     1      -2.913   7.407 -31.071  1.00  0.00     0.163 C 
HETATM   19  N   UNL     1      -2.827   8.574 -30.550  1.00  0.00    -0.277 N 
HETATM   20  H   UNL     1      -2.260   9.281 -31.041  1.00  0.00     0.189 HD
HETATM   21  C   UNL     1      -2.138   7.001 -32.242  1.00  0.00     0.065 C 
ENDROOT
BRANCH  19  22
HETATM   22  N   UNL     1      -3.290   8.947 -29.275  1.00  0.00    -0.266 N 
HETATM   23  C   UNL     1      -2.390   8.661 -28.259  1.00  0.00     0.263 C 
HETATM   24  O   UNL     1      -1.200   8.480 -28.548  1.00  0.00    -0.269 OA
HETATM   25  H   UNL     1      -4.298   8.996 -29.132  1.00  0.00     0.190 HD
BRANCH  23  26
HETATM   26  C   UNL     1      -2.954   8.334 -26.861  1.00  0.00     0.214 C 
BRANCH  26  27
HETATM   27  N   UNL     1      -4.410   8.362 -26.890  1.00  0.00    -0.319 N 
HETATM   28  C   UNL     1      -5.198   7.265 -27.038  1.00  0.00     0.362 C 
HETATM   29  O   UNL     1      -4.770   6.119 -27.062  1.00  0.00    -0.238 OA
HETATM   30  H   UNL     1      -4.885   9.251 -26.990  1.00  0.00     0.166 HD
BRANCH  28  31
HETATM   31  O   UNL     1      -6.482   7.655 -27.132  1.00  0.00    -0.294 OA
BRANCH  31  32
HETATM   32  C   UNL     1      -7.309   7.287 -28.269  1.00  0.00     0.061 C 
HETATM   33  C   UNL     1      -7.584   5.779 -28.287  1.00  0.00     0.046 C 
HETATM   34  C   UNL     1      -8.638   8.026 -28.047  1.00  0.00     0.046 C 
HETATM   35  C   UNL     1      -6.686   7.770 -29.581  1.00  0.00     0.046 C 
ENDBRANCH  31  32
ENDBRANCH  28  31
ENDBRANCH  26  27
BRANCH  26  36
HETATM   36  C   UNL     1      -2.323   9.077 -25.703  1.00  0.00    -0.026 A 
HETATM   37  C   UNL     1      -2.541   8.596 -24.398  1.00  0.00     0.010 A 
HETATM   38  C   UNL     1      -2.006   9.258 -23.292  1.00  0.00     0.001 A 
HETATM   39  C   UNL     1      -1.241  10.406 -23.470  1.00  0.00     0.000 A 
HETATM   40  C   UNL     1      -1.006  10.890 -24.753  1.00  0.00     0.001 A 
HETATM   41  C   UNL     1      -1.539  10.230 -25.864  1.00  0.00     0.010 A 
ENDBRANCH  26  36
ENDBRANCH  23  26
ENDBRANCH  19  22
BRANCH   1  42
HETATM   42  C   UNL     1      -1.347   5.274 -33.844  1.00  0.00     0.035 C 
HETATM   43  C   UNL     1      -2.283   5.166 -35.036  1.00  0.00     0.010 C 
ENDBRANCH   1  42
TORSDOF 7
ENDMDL
