MODEL 1
REMARK VINA RESULT:      -8.6      0.000      0.000
REMARK  3 active torsions:
REMARK  status: ('A' for Active; 'I' for Inactive)
REMARK    1  A    between atoms: C_7  and  C_8 
REMARK    2  A    between atoms: C_17  and  C_18 
REMARK       I    between atoms: C_18  and  N_19 
REMARK    3  A    between atoms: N_19  and  C_20 
ROOT
HETATM    1  C   UNL     1      -5.841   2.242 -33.261  1.00  0.00     0.206 C 
HETATM    2  N   UNL     1      -5.490   3.585 -32.779  1.00  0.00    -0.084 N 
HETATM    3  C   UNL     1      -4.378   3.853 -32.021  1.00  0.00     0.725 A 
HETATM    4  N   UNL     1      -4.279   5.143 -31.827  1.00  0.00    -0.054 NA
HETATM    5  C   UNL     1      -5.343   5.637 -32.533  1.00  0.00     0.275 A 
HETATM    6  N   UNL     1      -6.081   4.731 -33.184  1.00  0.00    -0.149 NA
HETATM    7  N   UNL     1      -3.592   2.838 -31.619  1.00  0.00    -0.192 N 
HETATM    8  C   UNL     1      -3.911   1.501 -31.824  1.00  0.00     0.037 C 
HETATM    9  C   UNL     1      -2.991   0.504 -31.162  1.00  0.00     0.070 C 
HETATM   10  C   UNL     1      -4.987   1.173 -32.582  1.00  0.00     0.063 C 
HETATM   11  H   UNL     1      -2.816   3.045 -30.995  1.00  0.00     0.184 HD
ENDROOT
BRANCH  10  12
HETATM   12  C   UNL     1      -5.427  -0.244 -32.649  1.00  0.00     0.256 C 
HETATM   13  N   UNL     1      -5.000  -0.910 -33.775  1.00  0.00    -0.323 N 
HETATM   14  H   UNL     1      -4.379  -0.427 -34.409  1.00  0.00     0.169 HD
HETATM   15  O   UNL     1      -6.101  -0.696 -31.730  1.00  0.00    -0.267 OA
BRANCH  13  16
HETATM   16  C   UNL     1      -5.337  -2.234 -34.145  1.00  0.00     0.035 A 
HETATM   17  C   UNL     1      -6.587  -2.612 -34.641  1.00  0.00     0.029 A 
HETATM   18  C   UNL     1      -6.842  -3.942 -34.995  1.00  0.00     0.002 A 
HETATM   19  C   UNL     1      -5.849  -4.905 -34.856  1.00  0.00     0.000 A 
HETATM   20  C   UNL     1      -4.598  -4.540 -34.365  1.00  0.00     0.002 A 
HETATM   21  C   UNL     1      -4.342  -3.211 -34.013  1.00  0.00     0.029 A 
ENDBRANCH  13  16
ENDBRANCH  10  12
BRANCH   1  22
HETATM   22  C   UNL     1      -7.328   2.012 -33.195  1.00  0.00     0.015 A 
HETATM   23  C   UNL     1      -8.164   2.149 -32.044  1.00  0.00     0.061 A 
HETATM   24  C   UNL     1      -7.771   2.463 -30.645  1.00  0.00     0.073 C 
HETATM   25  N   UNL     1      -9.456   1.971 -32.340  1.00  0.00    -0.178 NA
HETATM   26  N   UNL     1      -9.457   1.684 -33.649  1.00  0.00    -0.284 N 
HETATM   27  C   UNL     1     -10.713   1.492 -34.333  1.00  0.00     0.179 C 
HETATM   28  C   UNL     1      -8.212   1.661 -34.201  1.00  0.00     0.123 A 
ENDBRANCH   1  22
TORSDOF 3
ENDMDL
MODEL 2
REMARK VINA RESULT:      -8.3      1.765      4.265
REMARK  3 active torsions:
REMARK  status: ('A' for Active; 'I' for Inactive)
REMARK    1  A    between atoms: C_7  and  C_8 
REMARK    2  A    between atoms: C_17  and  C_18 
REMARK       I    between atoms: C_18  and  N_19 
REMARK    3  A    between atoms: N_19  and  C_20 
ROOT
HETATM    1  C   UNL     1      -6.747   2.137 -31.303  1.00  0.00     0.206 C 
HETATM    2  N   UNL     1      -7.385   3.301 -30.673  1.00  0.00    -0.084 N 
HETATM    3  C   UNL     1      -8.679   3.682 -30.916  1.00  0.00     0.725 A 
HETATM    4  N   UNL     1      -8.994   4.689 -30.143  1.00  0.00    -0.054 NA
HETATM    5  C   UNL     1      -7.859   4.865 -29.398  1.00  0.00     0.275 A 
HETATM    6  N   UNL     1      -6.865   4.004 -29.641  1.00  0.00    -0.149 NA
HETATM    7  N   UNL     1      -9.402   3.017 -31.836  1.00  0.00    -0.192 N 
HETATM    8  C   UNL     1      -8.868   2.031 -32.655  1.00  0.00     0.037 C 
HETATM    9  C   UNL     1      -9.789   1.511 -33.733  1.00  0.00     0.070 C 
HETATM   10  C   UNL     1      -7.599   1.597 -32.450  1.00  0.00     0.063 C 
HETATM   11  H   UNL     1     -10.334   3.359 -32.059  1.00  0.00     0.184 HD
ENDROOT
BRANCH  10  12
HETATM   12  C   UNL     1      -6.975   0.677 -33.435  1.00  0.00     0.256 C 
HETATM   13  N   UNL     1      -6.919  -0.634 -33.020  1.00  0.00    -0.323 N 
HETATM   14  H   UNL     1      -7.360  -0.876 -32.144  1.00  0.00     0.169 HD
HETATM   15  O   UNL     1      -6.580   1.136 -34.502  1.00  0.00    -0.267 OA
BRANCH  13  16
HETATM   16  C   UNL     1      -6.305  -1.706 -33.709  1.00  0.00     0.035 A 
HETATM   17  C   UNL     1      -4.922  -1.884 -33.804  1.00  0.00     0.029 A 
HETATM   18  C   UNL     1      -4.390  -2.977 -34.496  1.00  0.00     0.002 A 
HETATM   19  C   UNL     1      -5.235  -3.903 -35.099  1.00  0.00     0.000 A 
HETATM   20  C   UNL     1      -6.614  -3.737 -35.010  1.00  0.00     0.002 A 
HETATM   21  C   UNL     1      -7.148  -2.646 -34.317  1.00  0.00     0.029 A 
ENDBRANCH  13  16
ENDBRANCH  10  12
BRANCH   1  22
HETATM   22  C   UNL     1      -5.311   2.426 -31.653  1.00  0.00     0.015 A 
HETATM   23  C   UNL     1      -4.191   1.562 -31.448  1.00  0.00     0.061 A 
HETATM   24  C   UNL     1      -4.155   0.233 -30.783  1.00  0.00     0.073 C 
HETATM   25  N   UNL     1      -3.065   2.073 -31.958  1.00  0.00    -0.178 NA
HETATM   26  N   UNL     1      -3.437   3.264 -32.449  1.00  0.00    -0.284 N 
HETATM   27  C   UNL     1      -2.471   4.079 -33.144  1.00  0.00     0.179 C 
HETATM   28  C   UNL     1      -4.757   3.539 -32.262  1.00  0.00     0.123 A 
ENDBRANCH   1  22
TORSDOF 3
ENDMDL
MODEL 3
REMARK VINA RESULT:      -8.3      1.951      4.258
REMARK  3 active torsions:
REMARK  status: ('A' for Active; 'I' for Inactive)
REMARK    1  A    between atoms: C_7  and  C_8 
REMARK    2  A    between atoms: C_17  and  C_18 
REMARK       I    between atoms: C_18  and  N_19 
REMARK    3  A    between atoms: N_19  and  C_20 
ROOT
HETATM    1  C   UNL     1      -7.666   2.612 -31.668  1.00  0.00     0.206 C 
HETATM    2  N   UNL     1      -8.522   3.669 -31.111  1.00  0.00    -0.084 N 
HETATM    3  C   UNL     1      -9.892   3.645 -31.169  1.00  0.00     0.725 A 
HETATM    4  N   UNL     1     -10.378   4.665 -30.509  1.00  0.00    -0.054 NA
HETATM    5  C   UNL     1      -9.253   5.271 -30.018  1.00  0.00     0.275 A 
HETATM    6  N   UNL     1      -8.094   4.668 -30.307  1.00  0.00    -0.149 NA
HETATM    7  N   UNL     1     -10.508   2.650 -31.833  1.00  0.00    -0.192 N 
HETATM    8  C   UNL     1      -9.826   1.698 -32.580  1.00  0.00     0.037 C 
HETATM    9  C   UNL     1     -10.693   0.759 -33.385  1.00  0.00     0.070 C 
HETATM   10  C   UNL     1      -8.471   1.659 -32.547  1.00  0.00     0.063 C 
HETATM   11  H   UNL     1     -11.520   2.688 -31.932  1.00  0.00     0.184 HD
ENDROOT
BRANCH  10  12
HETATM   12  C   UNL     1      -7.745   0.761 -33.482  1.00  0.00     0.256 C 
HETATM   13  N   UNL     1      -7.241  -0.375 -32.890  1.00  0.00    -0.323 N 
HETATM   14  H   UNL     1      -7.461  -0.545 -31.919  1.00  0.00     0.169 HD
HETATM   15  O   UNL     1      -7.660   1.083 -34.662  1.00  0.00    -0.267 OA
BRANCH  13  16
HETATM   16  C   UNL     1      -6.438  -1.359 -33.513  1.00  0.00     0.035 A 
HETATM   17  C   UNL     1      -6.938  -2.360 -34.350  1.00  0.00     0.029 A 
HETATM   18  C   UNL     1      -6.078  -3.294 -34.938  1.00  0.00     0.002 A 
HETATM   19  C   UNL     1      -4.709  -3.235 -34.695  1.00  0.00     0.000 A 
HETATM   20  C   UNL     1      -4.199  -2.241 -33.865  1.00  0.00     0.002 A 
HETATM   21  C   UNL     1      -5.058  -1.306 -33.278  1.00  0.00     0.029 A 
ENDBRANCH  13  16
ENDBRANCH  10  12
BRANCH   1  22
HETATM   22  C   UNL     1      -6.434   3.193 -32.311  1.00  0.00     0.015 A 
HETATM   23  C   UNL     1      -5.078   2.819 -32.054  1.00  0.00     0.061 A 
HETATM   24  C   UNL     1      -4.558   1.848 -31.055  1.00  0.00     0.073 C 
HETATM   25  N   UNL     1      -4.223   3.453 -32.862  1.00  0.00    -0.178 NA
HETATM   26  N   UNL     1      -5.001   4.255 -33.602  1.00  0.00    -0.284 N 
HETATM   27  C   UNL     1      -4.408   5.055 -34.646  1.00  0.00     0.179 C 
HETATM   28  C   UNL     1      -6.324   4.164 -33.291  1.00  0.00     0.123 A 
ENDBRANCH   1  22
TORSDOF 3
ENDMDL
MODEL 4
REMARK VINA RESULT:      -7.6      1.934      5.492
REMARK  3 active torsions:
REMARK  status: ('A' for Active; 'I' for Inactive)
REMARK    1  A    between atoms: C_7  and  C_8 
REMARK    2  A    between atoms: C_17  and  C_18 
REMARK       I    between atoms: C_18  and  N_19 
REMARK    3  A    between atoms: N_19  and  C_20 
ROOT
HETATM    1  C   UNL     1      -4.828   0.432 -33.362  1.00  0.00     0.206 C 
HETATM    2  N   UNL     1      -3.888  -0.414 -32.612  1.00  0.00    -0.084 N 
HETATM    3  C   UNL     1      -3.868  -1.782 -32.692  1.00  0.00     0.725 A 
HETATM    4  N   UNL     1      -2.867  -2.250 -31.992  1.00  0.00    -0.054 NA
HETATM    5  C   UNL     1      -2.263  -1.111 -31.530  1.00  0.00     0.275 A 
HETATM    6  N   UNL     1      -2.813   0.041 -31.930  1.00  0.00    -0.149 NA
HETATM    7  N   UNL     1      -4.799  -2.415 -33.430  1.00  0.00    -0.192 N 
HETATM    8  C   UNL     1      -5.870  -1.761 -34.025  1.00  0.00     0.037 C 
HETATM    9  C   UNL     1      -6.898  -2.656 -34.676  1.00  0.00     0.070 C 
HETATM   10  C   UNL     1      -5.934  -0.407 -33.997  1.00  0.00     0.063 C 
HETATM   11  H   UNL     1      -4.817  -3.432 -33.417  1.00  0.00     0.184 HD
ENDROOT
BRANCH  10  12
HETATM   12  C   UNL     1      -7.165   0.275 -34.474  1.00  0.00     0.256 C 
HETATM   13  N   UNL     1      -8.144   0.400 -33.514  1.00  0.00    -0.323 N 
HETATM   14  H   UNL     1      -7.930   0.101 -32.573  1.00  0.00     0.169 HD
HETATM   15  O   UNL     1      -7.211   0.664 -35.636  1.00  0.00    -0.267 OA
BRANCH  13  16
HETATM   16  C   UNL     1      -9.444   0.924 -33.706  1.00  0.00     0.035 A 
HETATM   17  C   UNL     1     -10.617   0.256 -33.345  1.00  0.00     0.029 A 
HETATM   18  C   UNL     1     -11.868   0.845 -33.558  1.00  0.00     0.002 A 
HETATM   19  C   UNL     1     -11.958   2.109 -34.132  1.00  0.00     0.000 A 
HETATM   20  C   UNL     1     -10.796   2.786 -34.492  1.00  0.00     0.002 A 
HETATM   21  C   UNL     1      -9.545   2.199 -34.279  1.00  0.00     0.029 A 
ENDBRANCH  13  16
ENDBRANCH  10  12
BRANCH   1  22
HETATM   22  C   UNL     1      -5.301   1.592 -32.526  1.00  0.00     0.015 A 
HETATM   23  C   UNL     1      -5.887   1.525 -31.224  1.00  0.00     0.061 A 
HETATM   24  C   UNL     1      -6.240   0.320 -30.427  1.00  0.00     0.073 C 
HETATM   25  N   UNL     1      -6.106   2.740 -30.711  1.00  0.00    -0.178 NA
HETATM   26  N   UNL     1      -5.709   3.582 -31.676  1.00  0.00    -0.284 N 
HETATM   27  C   UNL     1      -5.744   5.004 -31.437  1.00  0.00     0.179 C 
HETATM   28  C   UNL     1      -5.253   2.949 -32.792  1.00  0.00     0.123 A 
ENDBRANCH   1  22
TORSDOF 3
ENDMDL
MODEL 5
REMARK VINA RESULT:      -7.5      2.085      4.562
REMARK  3 active torsions:
REMARK  status: ('A' for Active; 'I' for Inactive)
REMARK    1  A    between atoms: C_7  and  C_8 
REMARK    2  A    between atoms: C_17  and  C_18 
REMARK       I    between atoms: C_18  and  N_19 
REMARK    3  A    between atoms: N_19  and  C_20 
ROOT
HETATM    1  C   UNL     1      -7.432   3.134 -31.186  1.00  0.00     0.206 C 
HETATM    2  N   UNL     1      -8.226   4.244 -30.641  1.00  0.00    -0.084 N 
HETATM    3  C   UNL     1      -9.576   4.380 -30.840  1.00  0.00     0.725 A 
HETATM    4  N   UNL     1     -10.019   5.405 -30.158  1.00  0.00    -0.054 NA
HETATM    5  C   UNL     1      -8.897   5.846 -29.511  1.00  0.00     0.275 A 
HETATM    6  N   UNL     1      -7.785   5.134 -29.725  1.00  0.00    -0.149 NA
HETATM    7  N   UNL     1     -10.219   3.507 -31.636  1.00  0.00    -0.192 N 
HETATM    8  C   UNL     1      -9.565   2.533 -32.380  1.00  0.00     0.037 C 
HETATM    9  C   UNL     1     -10.434   1.751 -33.336  1.00  0.00     0.070 C 
HETATM   10  C   UNL     1      -8.233   2.336 -32.212  1.00  0.00     0.063 C 
HETATM   11  H   UNL     1     -11.203   3.666 -31.834  1.00  0.00     0.184 HD
ENDROOT
BRANCH  10  12
HETATM   12  C   UNL     1      -7.509   1.423 -33.133  1.00  0.00     0.256 C 
HETATM   13  N   UNL     1      -7.246   0.182 -32.599  1.00  0.00    -0.323 N 
HETATM   14  H   UNL     1      -7.619  -0.033 -31.685  1.00  0.00     0.169 HD
HETATM   15  O   UNL     1      -7.220   1.825 -34.255  1.00  0.00    -0.267 OA
BRANCH  13  16
HETATM   16  C   UNL     1      -6.501  -0.853 -33.211  1.00  0.00     0.035 A 
HETATM   17  C   UNL     1      -7.049  -1.805 -34.075  1.00  0.00     0.029 A 
HETATM   18  C   UNL     1      -6.245  -2.794 -34.650  1.00  0.00     0.002 A 
HETATM   19  C   UNL     1      -4.884  -2.842 -34.367  1.00  0.00     0.000 A 
HETATM   20  C   UNL     1      -4.325  -1.898 -33.509  1.00  0.00     0.002 A 
HETATM   21  C   UNL     1      -5.128  -0.907 -32.935  1.00  0.00     0.029 A 
ENDBRANCH  13  16
ENDBRANCH  10  12
BRANCH   1  22
HETATM   22  C   UNL     1      -6.082   3.609 -31.655  1.00  0.00     0.015 A 
HETATM   23  C   UNL     1      -5.824   4.584 -32.669  1.00  0.00     0.061 A 
HETATM   24  C   UNL     1      -6.796   5.289 -33.545  1.00  0.00     0.073 C 
HETATM   25  N   UNL     1      -4.520   4.857 -32.779  1.00  0.00    -0.178 NA
HETATM   26  N   UNL     1      -3.936   4.047 -31.884  1.00  0.00    -0.284 N 
HETATM   27  C   UNL     1      -2.510   4.121 -31.682  1.00  0.00     0.179 C 
HETATM   28  C   UNL     1      -4.819   3.258 -31.211  1.00  0.00     0.123 A 
ENDBRANCH   1  22
TORSDOF 3
ENDMDL
MODEL 6
REMARK VINA RESULT:      -7.5      1.774      6.014
REMARK  3 active torsions:
REMARK  status: ('A' for Active; 'I' for Inactive)
REMARK    1  A    between atoms: C_7  and  C_8 
REMARK    2  A    between atoms: C_17  and  C_18 
REMARK       I    between atoms: C_18  and  N_19 
REMARK    3  A    between atoms: N_19  and  C_20 
ROOT
HETATM    1  C   UNL     1      -6.773  -0.888 -32.611  1.00  0.00     0.206 C 
HETATM    2  N   UNL     1      -6.214  -1.783 -33.634  1.00  0.00    -0.084 N 
HETATM    3  C   UNL     1      -4.870  -2.003 -33.797  1.00  0.00     0.725 A 
HETATM    4  N   UNL     1      -4.682  -2.915 -34.715  1.00  0.00    -0.054 NA
HETATM    5  C   UNL     1      -5.960  -3.264 -35.061  1.00  0.00     0.275 A 
HETATM    6  N   UNL     1      -6.934  -2.644 -34.387  1.00  0.00    -0.149 NA
HETATM    7  N   UNL     1      -3.991  -1.316 -33.044  1.00  0.00    -0.192 N 
HETATM    8  C   UNL     1      -4.365  -0.292 -32.184  1.00  0.00     0.037 C 
HETATM    9  C   UNL     1      -3.228   0.469 -31.545  1.00  0.00     0.070 C 
HETATM   10  C   UNL     1      -5.680  -0.040 -31.966  1.00  0.00     0.063 C 
HETATM   11  H   UNL     1      -2.999  -1.435 -33.229  1.00  0.00     0.184 HD
ENDROOT
BRANCH  10  12
HETATM   12  C   UNL     1      -6.073   1.166 -31.191  1.00  0.00     0.256 C 
HETATM   13  N   UNL     1      -5.910   2.349 -31.875  1.00  0.00    -0.323 N 
HETATM   14  H   UNL     1      -5.622   2.305 -32.842  1.00  0.00     0.169 HD
HETATM   15  O   UNL     1      -6.501   1.020 -30.051  1.00  0.00    -0.267 OA
BRANCH  13  16
HETATM   16  C   UNL     1      -6.119   3.650 -31.361  1.00  0.00     0.035 A 
HETATM   17  C   UNL     1      -7.364   4.284 -31.321  1.00  0.00     0.029 A 
HETATM   18  C   UNL     1      -7.493   5.570 -30.787  1.00  0.00     0.002 A 
HETATM   19  C   UNL     1      -6.378   6.236 -30.288  1.00  0.00     0.000 A 
HETATM   20  C   UNL     1      -5.132   5.614 -30.320  1.00  0.00     0.002 A 
HETATM   21  C   UNL     1      -5.003   4.327 -30.852  1.00  0.00     0.029 A 
ENDBRANCH  13  16
ENDBRANCH  10  12
BRANCH   1  22
HETATM   22  C   UNL     1      -7.951  -0.118 -33.148  1.00  0.00     0.015 A 
HETATM   23  C   UNL     1      -7.985   0.670 -34.341  1.00  0.00     0.061 A 
HETATM   24  C   UNL     1      -6.874   0.981 -35.278  1.00  0.00     0.073 C 
HETATM   25  N   UNL     1      -9.210   1.144 -34.592  1.00  0.00    -0.178 NA
HETATM   26  N   UNL     1      -9.949   0.709 -33.562  1.00  0.00    -0.284 N 
HETATM   27  C   UNL     1     -11.365   0.985 -33.536  1.00  0.00     0.179 C 
HETATM   28  C   UNL     1      -9.240  -0.019 -32.655  1.00  0.00     0.123 A 
ENDBRANCH   1  22
TORSDOF 3
ENDMDL
MODEL 7
REMARK VINA RESULT:      -7.4      2.325      4.974
REMARK  3 active torsions:
REMARK  status: ('A' for Active; 'I' for Inactive)
REMARK    1  A    between atoms: C_7  and  C_8 
REMARK    2  A    between atoms: C_17  and  C_18 
REMARK       I    between atoms: C_18  and  N_19 
REMARK    3  A    between atoms: N_19  and  C_20 
ROOT
HETATM    1  C   UNL     1      -8.814   3.146 -31.944  1.00  0.00     0.206 C 
HETATM    2  N   UNL     1      -9.855   4.103 -31.544  1.00  0.00    -0.084 N 
HETATM    3  C   UNL     1     -11.199   3.863 -31.680  1.00  0.00     0.725 A 
HETATM    4  N   UNL     1     -11.877   4.849 -31.151  1.00  0.00    -0.054 NA
HETATM    5  C   UNL     1     -10.892   5.661 -30.655  1.00  0.00     0.275 A 
HETATM    6  N   UNL     1      -9.640   5.220 -30.815  1.00  0.00    -0.149 NA
HETATM    7  N   UNL     1     -11.612   2.732 -32.281  1.00  0.00    -0.192 N 
HETATM    8  C   UNL     1     -10.744   1.836 -32.892  1.00  0.00     0.037 C 
HETATM    9  C   UNL     1     -11.402   0.709 -33.652  1.00  0.00     0.070 C 
HETATM   10  C   UNL     1      -9.404   2.008 -32.774  1.00  0.00     0.063 C 
HETATM   11  H   UNL     1     -12.608   2.606 -32.443  1.00  0.00     0.184 HD
ENDROOT
BRANCH  10  12
HETATM   12  C   UNL     1      -8.487   1.155 -33.574  1.00  0.00     0.256 C 
HETATM   13  N   UNL     1      -7.816   0.207 -32.835  1.00  0.00    -0.323 N 
HETATM   14  H   UNL     1      -8.047   0.114 -31.856  1.00  0.00     0.169 HD
HETATM   15  O   UNL     1      -8.407   1.348 -34.782  1.00  0.00    -0.267 OA
BRANCH  13  16
HETATM   16  C   UNL     1      -6.822  -0.680 -33.312  1.00  0.00     0.035 A 
HETATM   17  C   UNL     1      -5.461  -0.558 -33.020  1.00  0.00     0.029 A 
HETATM   18  C   UNL     1      -4.538  -1.482 -33.522  1.00  0.00     0.002 A 
HETATM   19  C   UNL     1      -4.968  -2.537 -34.320  1.00  0.00     0.000 A 
HETATM   20  C   UNL     1      -6.322  -2.670 -34.617  1.00  0.00     0.002 A 
HETATM   21  C   UNL     1      -7.246  -1.748 -34.114  1.00  0.00     0.029 A 
ENDBRANCH  13  16
ENDBRANCH  10  12
BRANCH   1  22
HETATM   22  C   UNL     1      -7.638   3.851 -32.566  1.00  0.00     0.015 A 
HETATM   23  C   UNL     1      -7.677   4.802 -33.632  1.00  0.00     0.061 A 
HETATM   24  C   UNL     1      -8.849   5.257 -34.426  1.00  0.00     0.073 C 
HETATM   25  N   UNL     1      -6.471   5.319 -33.886  1.00  0.00    -0.178 NA
HETATM   26  N   UNL     1      -5.654   4.687 -33.031  1.00  0.00    -0.284 N 
HETATM   27  C   UNL     1      -4.259   5.049 -32.980  1.00  0.00     0.179 C 
HETATM   28  C   UNL     1      -6.294   3.777 -32.244  1.00  0.00     0.123 A 
ENDBRANCH   1  22
TORSDOF 3
ENDMDL
MODEL 8
REMARK VINA RESULT:      -7.2      2.009      2.511
REMARK  3 active torsions:
REMARK  status: ('A' for Active; 'I' for Inactive)
REMARK    1  A    between atoms: C_7  and  C_8 
REMARK    2  A    between atoms: C_17  and  C_18 
REMARK       I    between atoms: C_18  and  N_19 
REMARK    3  A    between atoms: N_19  and  C_20 
ROOT
HETATM    1  C   UNL     1      -7.632   3.127 -32.328  1.00  0.00     0.206 C 
HETATM    2  N   UNL     1      -7.823   3.858 -31.067  1.00  0.00    -0.084 N 
HETATM    3  C   UNL     1      -6.862   3.958 -30.094  1.00  0.00     0.725 A 
HETATM    4  N   UNL     1      -7.284   4.745 -29.138  1.00  0.00    -0.054 NA
HETATM    5  C   UNL     1      -8.511   5.146 -29.597  1.00  0.00     0.275 A 
HETATM    6  N   UNL     1      -8.863   4.679 -30.799  1.00  0.00    -0.149 NA
HETATM    7  N   UNL     1      -5.699   3.298 -30.243  1.00  0.00    -0.192 N 
HETATM    8  C   UNL     1      -5.458   2.407 -31.281  1.00  0.00     0.037 C 
HETATM    9  C   UNL     1      -4.160   1.641 -31.194  1.00  0.00     0.070 C 
HETATM   10  C   UNL     1      -6.363   2.279 -32.284  1.00  0.00     0.063 C 
HETATM   11  H   UNL     1      -5.028   3.321 -29.480  1.00  0.00     0.184 HD
ENDROOT
BRANCH  10  12
HETATM   12  C   UNL     1      -6.187   1.200 -33.291  1.00  0.00     0.256 C 
HETATM   13  N   UNL     1      -6.208  -0.070 -32.761  1.00  0.00    -0.323 N 
HETATM   14  H   UNL     1      -6.413  -0.173 -31.777  1.00  0.00     0.169 HD
HETATM   15  O   UNL     1      -6.049   1.511 -34.469  1.00  0.00    -0.267 OA
BRANCH  13  16
HETATM   16  C   UNL     1      -5.981  -1.276 -33.464  1.00  0.00     0.035 A 
HETATM   17  C   UNL     1      -6.972  -1.974 -34.159  1.00  0.00     0.029 A 
HETATM   18  C   UNL     1      -6.667  -3.157 -34.840  1.00  0.00     0.002 A 
HETATM   19  C   UNL     1      -5.367  -3.653 -34.834  1.00  0.00     0.000 A 
HETATM   20  C   UNL     1      -4.370  -2.965 -34.147  1.00  0.00     0.002 A 
HETATM   21  C   UNL     1      -4.674  -1.781 -33.467  1.00  0.00     0.029 A 
ENDBRANCH  13  16
ENDBRANCH  10  12
BRANCH   1  22
HETATM   22  C   UNL     1      -8.883   2.390 -32.725  1.00  0.00     0.015 A 
HETATM   23  C   UNL     1      -9.842   2.799 -33.703  1.00  0.00     0.061 A 
HETATM   24  C   UNL     1      -9.883   4.059 -34.491  1.00  0.00     0.073 C 
HETATM   25  N   UNL     1     -10.788   1.874 -33.893  1.00  0.00    -0.178 NA
HETATM   26  N   UNL     1     -10.476   0.900 -33.027  1.00  0.00    -0.284 N 
HETATM   27  C   UNL     1     -11.262  -0.309 -33.003  1.00  0.00     0.179 C 
HETATM   28  C   UNL     1      -9.369   1.172 -32.282  1.00  0.00     0.123 A 
ENDBRANCH   1  22
TORSDOF 3
ENDMDL
MODEL 9
REMARK VINA RESULT:      -7.2      2.240      4.594
REMARK  3 active torsions:
REMARK  status: ('A' for Active; 'I' for Inactive)
REMARK    1  A    between atoms: C_7  and  C_8 
REMARK    2  A    between atoms: C_17  and  C_18 
REMARK       I    between atoms: C_18  and  N_19 
REMARK    3  A    between atoms: N_19  and  C_20 
ROOT
HETATM    1  C   UNL     1      -8.214   3.935 -32.303  1.00  0.00     0.206 C 
HETATM    2  N   UNL     1      -9.162   4.911 -32.858  1.00  0.00    -0.084 N 
HETATM    3  C   UNL     1     -10.409   4.578 -33.322  1.00  0.00     0.725 A 
HETATM    4  N   UNL     1     -11.056   5.663 -33.662  1.00  0.00    -0.054 NA
HETATM    5  C   UNL     1     -10.169   6.656 -33.341  1.00  0.00     0.275 A 
HETATM    6  N   UNL     1      -9.019   6.253 -32.790  1.00  0.00    -0.149 NA
HETATM    7  N   UNL     1     -10.779   3.284 -33.355  1.00  0.00    -0.192 N 
HETATM    8  C   UNL     1      -9.915   2.239 -33.057  1.00  0.00     0.037 C 
HETATM    9  C   UNL     1     -10.461   0.853 -33.303  1.00  0.00     0.070 C 
HETATM   10  C   UNL     1      -8.676   2.504 -32.573  1.00  0.00     0.063 C 
HETATM   11  H   UNL     1     -11.676   3.048 -33.772  1.00  0.00     0.184 HD
ENDROOT
BRANCH  10  12
HETATM   12  C   UNL     1      -7.697   1.396 -32.428  1.00  0.00     0.256 C 
HETATM   13  N   UNL     1      -7.145   0.977 -33.616  1.00  0.00    -0.323 N 
HETATM   14  H   UNL     1      -7.378   1.486 -34.457  1.00  0.00     0.169 HD
HETATM   15  O   UNL     1      -7.461   0.962 -31.305  1.00  0.00    -0.267 OA
BRANCH  13  16
HETATM   16  C   UNL     1      -6.256  -0.110 -33.791  1.00  0.00     0.035 A 
HETATM   17  C   UNL     1      -4.939  -0.125 -33.324  1.00  0.00     0.029 A 
HETATM   18  C   UNL     1      -4.122  -1.242 -33.527  1.00  0.00     0.002 A 
HETATM   19  C   UNL     1      -4.615  -2.357 -34.198  1.00  0.00     0.000 A 
HETATM   20  C   UNL     1      -5.927  -2.355 -34.666  1.00  0.00     0.002 A 
HETATM   21  C   UNL     1      -6.745  -1.239 -34.462  1.00  0.00     0.029 A 
ENDBRANCH  13  16
ENDBRANCH  10  12
BRANCH   1  22
HETATM   22  C   UNL     1      -6.803   4.245 -32.728  1.00  0.00     0.015 A 
HETATM   23  C   UNL     1      -5.623   4.121 -31.931  1.00  0.00     0.061 A 
HETATM   24  C   UNL     1      -5.508   3.745 -30.498  1.00  0.00     0.073 C 
HETATM   25  N   UNL     1      -4.515   4.379 -32.634  1.00  0.00    -0.178 NA
HETATM   26  N   UNL     1      -4.967   4.704 -33.854  1.00  0.00    -0.284 N 
HETATM   27  C   UNL     1      -4.025   4.985 -34.909  1.00  0.00     0.179 C 
HETATM   28  C   UNL     1      -6.325   4.673 -33.955  1.00  0.00     0.123 A 
ENDBRANCH   1  22
TORSDOF 3
ENDMDL
MODEL 10
REMARK VINA RESULT:      -7.2      2.794      6.800
REMARK  3 active torsions:
REMARK  status: ('A' for Active; 'I' for Inactive)
REMARK    1  A    between atoms: C_7  and  C_8 
REMARK    2  A    between atoms: C_17  and  C_18 
REMARK       I    between atoms: C_18  and  N_19 
REMARK    3  A    between atoms: N_19  and  C_20 
ROOT
HETATM    1  C   UNL     1      -6.444   1.953 -33.086  1.00  0.00     0.206 C 
HETATM    2  N   UNL     1      -7.767   1.339 -32.904  1.00  0.00    -0.084 N 
HETATM    3  C   UNL     1      -8.920   2.059 -32.727  1.00  0.00     0.725 A 
HETATM    4  N   UNL     1      -9.945   1.246 -32.690  1.00  0.00    -0.054 NA
HETATM    5  C   UNL     1      -9.367   0.022 -32.897  1.00  0.00     0.275 A 
HETATM    6  N   UNL     1      -8.044   0.030 -33.093  1.00  0.00    -0.149 NA
HETATM    7  N   UNL     1      -8.855   3.400 -32.634  1.00  0.00    -0.192 N 
HETATM    8  C   UNL     1      -7.657   4.101 -32.582  1.00  0.00     0.037 C 
HETATM    9  C   UNL     1      -7.781   5.582 -32.316  1.00  0.00     0.070 C 
HETATM   10  C   UNL     1      -6.484   3.447 -32.771  1.00  0.00     0.063 C 
HETATM   11  H   UNL     1      -9.709   3.913 -32.427  1.00  0.00     0.184 HD
ENDROOT
BRANCH  10  12
HETATM   12  C   UNL     1      -5.204   4.164 -32.536  1.00  0.00     0.256 C 
HETATM   13  N   UNL     1      -4.659   4.721 -33.671  1.00  0.00    -0.323 N 
HETATM   14  H   UNL     1      -5.188   4.670 -34.529  1.00  0.00     0.169 HD
HETATM   15  O   UNL     1      -4.754   4.209 -31.397  1.00  0.00    -0.267 OA
BRANCH  13  16
HETATM   16  C   UNL     1      -3.412   5.383 -33.763  1.00  0.00     0.035 A 
HETATM   17  C   UNL     1      -2.332   4.913 -34.516  1.00  0.00     0.029 A 
HETATM   18  C   UNL     1      -1.132   5.630 -34.566  1.00  0.00     0.002 A 
HETATM   19  C   UNL     1      -1.000   6.824 -33.865  1.00  0.00     0.000 A 
HETATM   20  C   UNL     1      -2.069   7.304 -33.114  1.00  0.00     0.002 A 
HETATM   21  C   UNL     1      -3.270   6.589 -33.064  1.00  0.00     0.029 A 
ENDBRANCH  13  16
ENDBRANCH  10  12
BRANCH   1  22
HETATM   22  C   UNL     1      -5.378   1.173 -32.363  1.00  0.00     0.015 A 
HETATM   23  C   UNL     1      -5.320   0.902 -30.961  1.00  0.00     0.061 A 
HETATM   24  C   UNL     1      -6.229   1.379 -29.886  1.00  0.00     0.073 C 
HETATM   25  N   UNL     1      -4.298   0.097 -30.649  1.00  0.00    -0.178 NA
HETATM   26  N   UNL     1      -3.679  -0.118 -31.819  1.00  0.00    -0.284 N 
HETATM   27  C   UNL     1      -2.549  -1.012 -31.871  1.00  0.00     0.179 C 
HETATM   28  C   UNL     1      -4.262   0.528 -32.867  1.00  0.00     0.123 A 
ENDBRANCH   1  22
TORSDOF 3
ENDMDL
