MODEL 1
REMARK VINA RESULT:     -10.5      0.000      0.000
REMARK  6 active torsions:
REMARK  status: ('A' for Active; 'I' for Inactive)
REMARK    1  A    between atoms: C_2  and  O_3 
REMARK    2  A    between atoms: O_3  and  C_4 
REMARK    3  A    between atoms: C_5  and  C_6 
REMARK       I    between atoms: C_6  and  N_7 
REMARK    4  A    between atoms: N_7  and  C_8 
REMARK    5  A    between atoms: N_9  and  C_10 
REMARK    6  A    between atoms: C_22  and  C_23 
ROOT
HETATM    1  C   UNL     1      -8.924   0.870 -33.100  1.00  0.00     0.152 A 
HETATM    2  N   UNL     1      -9.135   2.219 -32.860  1.00  0.00    -0.044 N 
HETATM    3  N   UNL     1     -10.451   2.571 -32.970  1.00  0.00    -0.148 NA
HETATM    4  C   UNL     1     -11.061   1.424 -33.298  1.00  0.00     0.115 A 
HETATM    5  C   UNL     1     -10.156   0.349 -33.419  1.00  0.00     0.087 A 
ENDROOT
BRANCH   1   6
HETATM    6  N   UNL     1      -7.673   0.288 -32.971  1.00  0.00    -0.307 N 
HETATM    7  C   UNL     1      -6.795   0.131 -34.023  1.00  0.00     0.261 C 
HETATM    8  O   UNL     1      -6.863   0.636 -35.135  1.00  0.00    -0.267 OA
HETATM    9  H   UNL     1      -7.428  -0.100 -32.060  1.00  0.00     0.170 HD
BRANCH   7  10
HETATM   10  C   UNL     1      -5.652  -0.749 -33.686  1.00  0.00     0.076 A 
HETATM   11  C   UNL     1      -4.556  -0.163 -33.022  1.00  0.00     0.085 A 
HETATM   12  C   UNL     1      -3.456  -0.960 -32.716  1.00  0.00     0.039 A 
HETATM   13  C   UNL     1      -3.446  -2.310 -33.077  1.00  0.00     0.015 A 
HETATM   14  C   UNL     1      -4.531  -2.897 -33.749  1.00  0.00    -0.025 A 
HETATM   15  C   UNL     1      -5.668  -2.115 -34.062  1.00  0.00    -0.007 A 
HETATM   16  C   UNL     1      -4.490  -4.251 -34.117  1.00  0.00     0.012 A 
HETATM   17  C   UNL     1      -6.740  -2.743 -34.738  1.00  0.00     0.013 A 
HETATM   18  C   UNL     1      -6.683  -4.090 -35.100  1.00  0.00     0.001 A 
HETATM   19  C   UNL     1      -5.558  -4.843 -34.791  1.00  0.00     0.001 A 
BRANCH  11  20
HETATM   20  O   UNL     1      -4.650   1.174 -32.748  1.00  0.00    -0.350 OA
BRANCH  20  21
HETATM   21  C   UNL     1      -4.543   1.596 -31.391  1.00  0.00     0.171 C 
HETATM   22  C   UNL     1      -3.480   2.677 -31.330  1.00  0.00     0.034 C 
ENDBRANCH  20  21
ENDBRANCH  11  20
ENDBRANCH   7  10
ENDBRANCH   1   6
BRANCH   2  23
HETATM   23  C   UNL     1      -8.174   3.198 -32.538  1.00  0.00     0.732 A 
HETATM   24  N   UNL     1      -8.002   3.656 -31.337  1.00  0.00    -0.067 NA
HETATM   25  C   UNL     1      -7.000   4.587 -31.179  1.00  0.00     0.065 A 
HETATM   26  C   UNL     1      -6.224   5.041 -32.182  1.00  0.00     0.036 A 
HETATM   27  C   UNL     1      -6.793   5.061 -29.758  1.00  0.00     0.060 C 
HETATM   28  C   UNL     1      -5.128   6.053 -32.015  1.00  0.00     0.046 C 
HETATM   29  C   UNL     1      -6.461   4.505 -33.545  1.00  0.00     0.268 A 
HETATM   30  C   UNL     1      -5.155   6.747 -30.652  1.00  0.00     0.005 C 
HETATM   31  C   UNL     1      -5.448   5.753 -29.534  1.00  0.00     0.006 C 
HETATM   32  O   UNL     1      -5.802   4.862 -34.514  1.00  0.00    -0.267 OA
HETATM   33  N   UNL     1      -7.457   3.584 -33.634  1.00  0.00    -0.152 N 
HETATM   34  H   UNL     1      -7.666   3.167 -34.535  1.00  0.00     0.188 HD
ENDBRANCH   2  23
BRANCH   4  35
HETATM   35  C   UNL     1     -12.538   1.321 -33.484  1.00  0.00     0.105 A 
HETATM   36  O   UNL     1     -13.451   2.179 -32.934  1.00  0.00    -0.320 OA
HETATM   37  C   UNL     1     -14.682   1.776 -33.338  1.00  0.00     0.142 A 
HETATM   38  C   UNL     1     -14.585   0.666 -34.143  1.00  0.00     0.027 A 
HETATM   39  C   UNL     1     -13.203   0.370 -34.237  1.00  0.00     0.041 A 
ENDBRANCH   4  35
TORSDOF 6
ENDMDL
MODEL 2
REMARK VINA RESULT:      -9.9      2.434      6.472
REMARK  6 active torsions:
REMARK  status: ('A' for Active; 'I' for Inactive)
REMARK    1  A    between atoms: C_2  and  O_3 
REMARK    2  A    between atoms: O_3  and  C_4 
REMARK    3  A    between atoms: C_5  and  C_6 
REMARK       I    between atoms: C_6  and  N_7 
REMARK    4  A    between atoms: N_7  and  C_8 
REMARK    5  A    between atoms: N_9  and  C_10 
REMARK    6  A    between atoms: C_22  and  C_23 
ROOT
HETATM    1  C   UNL     1      -4.264   2.903 -32.456  1.00  0.00     0.152 A 
HETATM    2  N   UNL     1      -5.069   3.975 -32.100  1.00  0.00    -0.044 N 
HETATM    3  N   UNL     1      -4.352   5.018 -31.584  1.00  0.00    -0.148 NA
HETATM    4  C   UNL     1      -3.087   4.579 -31.608  1.00  0.00     0.115 A 
HETATM    5  C   UNL     1      -2.983   3.265 -32.112  1.00  0.00     0.087 A 
ENDROOT
BRANCH   1   6
HETATM    6  N   UNL     1      -4.779   1.769 -33.064  1.00  0.00    -0.307 N 
HETATM    7  C   UNL     1      -5.204   0.658 -32.367  1.00  0.00     0.261 C 
HETATM    8  O   UNL     1      -5.396   0.560 -31.163  1.00  0.00    -0.267 OA
HETATM    9  H   UNL     1      -4.776   1.742 -34.085  1.00  0.00     0.170 HD
BRANCH   7  10
HETATM   10  C   UNL     1      -5.456  -0.506 -33.247  1.00  0.00     0.076 A 
HETATM   11  C   UNL     1      -6.488  -0.389 -34.199  1.00  0.00     0.085 A 
HETATM   12  C   UNL     1      -6.765  -1.477 -35.023  1.00  0.00     0.039 A 
HETATM   13  C   UNL     1      -6.035  -2.662 -34.889  1.00  0.00     0.015 A 
HETATM   14  C   UNL     1      -5.013  -2.788 -33.935  1.00  0.00    -0.025 A 
HETATM   15  C   UNL     1      -4.700  -1.695 -33.092  1.00  0.00    -0.007 A 
HETATM   16  C   UNL     1      -4.305  -3.995 -33.807  1.00  0.00     0.012 A 
HETATM   17  C   UNL     1      -3.664  -1.862 -32.144  1.00  0.00     0.013 A 
HETATM   18  C   UNL     1      -2.972  -3.069 -32.028  1.00  0.00     0.001 A 
HETATM   19  C   UNL     1      -3.294  -4.135 -32.857  1.00  0.00     0.001 A 
BRANCH  11  20
HETATM   20  O   UNL     1      -7.166   0.799 -34.223  1.00  0.00    -0.350 OA
BRANCH  20  21
HETATM   21  C   UNL     1      -8.587   0.766 -34.326  1.00  0.00     0.171 C 
HETATM   22  C   UNL     1      -9.138   0.423 -32.954  1.00  0.00     0.034 C 
ENDBRANCH  20  21
ENDBRANCH  11  20
ENDBRANCH   7  10
ENDBRANCH   1   6
BRANCH   2  23
HETATM   23  C   UNL     1      -6.470   4.075 -32.210  1.00  0.00     0.732 A 
HETATM   24  N   UNL     1      -7.287   3.608 -31.317  1.00  0.00    -0.067 NA
HETATM   25  C   UNL     1      -8.628   3.813 -31.554  1.00  0.00     0.065 A 
HETATM   26  C   UNL     1      -9.117   4.443 -32.639  1.00  0.00     0.036 A 
HETATM   27  C   UNL     1      -9.549   3.303 -30.468  1.00  0.00     0.060 C 
HETATM   28  C   UNL     1     -10.577   4.673 -32.900  1.00  0.00     0.046 C 
HETATM   29  C   UNL     1      -8.151   4.949 -33.645  1.00  0.00     0.268 A 
HETATM   30  C   UNL     1     -11.487   3.873 -31.966  1.00  0.00     0.005 C 
HETATM   31  C   UNL     1     -10.959   3.890 -30.536  1.00  0.00     0.006 C 
HETATM   32  O   UNL     1      -8.509   5.534 -34.661  1.00  0.00    -0.267 OA
HETATM   33  N   UNL     1      -6.844   4.724 -33.351  1.00  0.00    -0.152 N 
HETATM   34  H   UNL     1      -6.128   5.053 -33.991  1.00  0.00     0.188 HD
ENDBRANCH   2  23
BRANCH   4  35
HETATM   35  C   UNL     1      -1.933   5.417 -31.169  1.00  0.00     0.105 A 
HETATM   36  O   UNL     1      -2.001   6.384 -30.203  1.00  0.00    -0.320 OA
HETATM   37  C   UNL     1      -0.758   6.913 -30.071  1.00  0.00     0.142 A 
HETATM   38  C   UNL     1       0.119   6.304 -30.937  1.00  0.00     0.027 A 
HETATM   39  C   UNL     1      -0.638   5.341 -31.648  1.00  0.00     0.041 A 
ENDBRANCH   4  35
TORSDOF 6
ENDMDL
MODEL 3
REMARK VINA RESULT:      -9.8      1.993      6.592
REMARK  6 active torsions:
REMARK  status: ('A' for Active; 'I' for Inactive)
REMARK    1  A    between atoms: C_2  and  O_3 
REMARK    2  A    between atoms: O_3  and  C_4 
REMARK    3  A    between atoms: C_5  and  C_6 
REMARK       I    between atoms: C_6  and  N_7 
REMARK    4  A    between atoms: N_7  and  C_8 
REMARK    5  A    between atoms: N_9  and  C_10 
REMARK    6  A    between atoms: C_22  and  C_23 
ROOT
HETATM    1  C   UNL     1      -7.345   0.098 -33.721  1.00  0.00     0.152 A 
HETATM    2  N   UNL     1      -6.009   0.413 -33.520  1.00  0.00    -0.044 N 
HETATM    3  N   UNL     1      -5.186  -0.664 -33.690  1.00  0.00    -0.148 NA
HETATM    4  C   UNL     1      -6.026  -1.665 -33.987  1.00  0.00     0.115 A 
HETATM    5  C   UNL     1      -7.375  -1.250 -33.990  1.00  0.00     0.087 A 
ENDROOT
BRANCH   1   6
HETATM    6  N   UNL     1      -8.341   1.059 -33.668  1.00  0.00    -0.307 N 
HETATM    7  C   UNL     1      -9.271   1.136 -32.653  1.00  0.00     0.261 C 
HETATM    8  O   UNL     1      -9.255   0.549 -31.579  1.00  0.00    -0.267 OA
HETATM    9  H   UNL     1      -8.421   1.696 -34.461  1.00  0.00     0.170 HD
BRANCH   7  10
HETATM   10  C   UNL     1     -10.378   2.070 -32.962  1.00  0.00     0.076 A 
HETATM   11  C   UNL     1     -10.122   3.448 -32.821  1.00  0.00     0.085 A 
HETATM   12  C   UNL     1     -11.152   4.349 -33.079  1.00  0.00     0.039 A 
HETATM   13  C   UNL     1     -12.414   3.882 -33.456  1.00  0.00     0.015 A 
HETATM   14  C   UNL     1     -12.679   2.509 -33.587  1.00  0.00    -0.025 A 
HETATM   15  C   UNL     1     -11.648   1.570 -33.344  1.00  0.00    -0.007 A 
HETATM   16  C   UNL     1     -13.960   2.064 -33.950  1.00  0.00     0.012 A 
HETATM   17  C   UNL     1     -11.954   0.197 -33.487  1.00  0.00     0.013 A 
HETATM   18  C   UNL     1     -13.234  -0.231 -33.846  1.00  0.00     0.001 A 
HETATM   19  C   UNL     1     -14.236   0.702 -34.076  1.00  0.00     0.001 A 
BRANCH  11  20
HETATM   20  O   UNL     1      -8.865   3.798 -32.410  1.00  0.00    -0.350 OA
BRANCH  20  21
HETATM   21  C   UNL     1      -8.724   4.483 -31.168  1.00  0.00     0.171 C 
HETATM   22  C   UNL     1      -7.747   3.693 -30.318  1.00  0.00     0.034 C 
ENDBRANCH  20  21
ENDBRANCH  11  20
ENDBRANCH   7  10
ENDBRANCH   1   6
BRANCH   2  23
HETATM   23  C   UNL     1      -5.461   1.664 -33.172  1.00  0.00     0.732 A 
HETATM   24  N   UNL     1      -5.953   2.792 -33.581  1.00  0.00    -0.067 NA
HETATM   25  C   UNL     1      -5.323   3.930 -33.128  1.00  0.00     0.065 A 
HETATM   26  C   UNL     1      -4.247   3.927 -32.318  1.00  0.00     0.036 A 
HETATM   27  C   UNL     1      -5.953   5.227 -33.582  1.00  0.00     0.060 C 
HETATM   28  C   UNL     1      -3.558   5.163 -31.817  1.00  0.00     0.046 C 
HETATM   29  C   UNL     1      -3.704   2.616 -31.884  1.00  0.00     0.268 A 
HETATM   30  C   UNL     1      -4.007   6.434 -32.541  1.00  0.00     0.005 C 
HETATM   31  C   UNL     1      -5.516   6.440 -32.759  1.00  0.00     0.006 C 
HETATM   32  O   UNL     1      -2.730   2.521 -31.148  1.00  0.00    -0.267 OA
HETATM   33  N   UNL     1      -4.374   1.532 -32.358  1.00  0.00    -0.152 N 
HETATM   34  H   UNL     1      -4.063   0.603 -32.091  1.00  0.00     0.188 HD
ENDBRANCH   2  23
BRANCH   4  35
HETATM   35  C   UNL     1      -5.558  -3.046 -34.300  1.00  0.00     0.105 A 
HETATM   36  O   UNL     1      -4.357  -3.566 -33.902  1.00  0.00    -0.320 OA
HETATM   37  C   UNL     1      -4.297  -4.843 -34.358  1.00  0.00     0.142 A 
HETATM   38  C   UNL     1      -5.442  -5.163 -35.048  1.00  0.00     0.027 A 
HETATM   39  C   UNL     1      -6.256  -4.004 -35.013  1.00  0.00     0.041 A 
ENDBRANCH   4  35
TORSDOF 6
ENDMDL
MODEL 4
REMARK VINA RESULT:      -9.8      2.321      3.004
REMARK  6 active torsions:
REMARK  status: ('A' for Active; 'I' for Inactive)
REMARK    1  A    between atoms: C_2  and  O_3 
REMARK    2  A    between atoms: O_3  and  C_4 
REMARK    3  A    between atoms: C_5  and  C_6 
REMARK       I    between atoms: C_6  and  N_7 
REMARK    4  A    between atoms: N_7  and  C_8 
REMARK    5  A    between atoms: N_9  and  C_10 
REMARK    6  A    between atoms: C_22  and  C_23 
ROOT
HETATM    1  C   UNL     1      -8.138   2.960 -34.086  1.00  0.00     0.152 A 
HETATM    2  N   UNL     1      -7.829   4.274 -33.769  1.00  0.00    -0.044 N 
HETATM    3  N   UNL     1      -8.925   5.090 -33.790  1.00  0.00    -0.148 NA
HETATM    4  C   UNL     1      -9.926   4.270 -34.138  1.00  0.00     0.115 A 
HETATM    5  C   UNL     1      -9.485   2.948 -34.361  1.00  0.00     0.087 A 
ENDROOT
BRANCH   1   6
HETATM    6  N   UNL     1      -7.185   1.954 -34.055  1.00  0.00    -0.307 N 
HETATM    7  C   UNL     1      -7.121   0.998 -33.064  1.00  0.00     0.261 C 
HETATM    8  O   UNL     1      -7.962   0.747 -32.212  1.00  0.00    -0.267 OA
HETATM    9  H   UNL     1      -6.459   1.974 -34.771  1.00  0.00     0.170 HD
BRANCH   7  10
HETATM   10  C   UNL     1      -5.867   0.210 -33.111  1.00  0.00     0.076 A 
HETATM   11  C   UNL     1      -4.692   0.834 -32.648  1.00  0.00     0.085 A 
HETATM   12  C   UNL     1      -3.493   0.128 -32.705  1.00  0.00     0.039 A 
HETATM   13  C   UNL     1      -3.467  -1.169 -33.224  1.00  0.00     0.015 A 
HETATM   14  C   UNL     1      -4.634  -1.792 -33.697  1.00  0.00    -0.025 A 
HETATM   15  C   UNL     1      -5.869  -1.104 -33.640  1.00  0.00    -0.007 A 
HETATM   16  C   UNL     1      -4.580  -3.090 -34.230  1.00  0.00     0.012 A 
HETATM   17  C   UNL     1      -7.021  -1.766 -34.126  1.00  0.00     0.013 A 
HETATM   18  C   UNL     1      -6.950  -3.055 -34.656  1.00  0.00     0.001 A 
HETATM   19  C   UNL     1      -5.730  -3.716 -34.710  1.00  0.00     0.001 A 
BRANCH  11  20
HETATM   20  O   UNL     1      -4.818   2.120 -32.195  1.00  0.00    -0.350 OA
BRANCH  20  21
HETATM   21  C   UNL     1      -4.336   2.427 -30.890  1.00  0.00     0.171 C 
HETATM   22  C   UNL     1      -5.541   2.589 -29.982  1.00  0.00     0.034 C 
ENDBRANCH  20  21
ENDBRANCH  11  20
ENDBRANCH   7  10
ENDBRANCH   1   6
BRANCH   2  23
HETATM   23  C   UNL     1      -6.564   4.811 -33.454  1.00  0.00     0.732 A 
HETATM   24  N   UNL     1      -5.560   4.790 -34.275  1.00  0.00    -0.067 NA
HETATM   25  C   UNL     1      -4.400   5.384 -33.831  1.00  0.00     0.065 A 
HETATM   26  C   UNL     1      -4.257   5.954 -32.619  1.00  0.00     0.036 A 
HETATM   27  C   UNL     1      -3.266   5.388 -34.833  1.00  0.00     0.060 C 
HETATM   28  C   UNL     1      -2.997   6.606 -32.131  1.00  0.00     0.046 C 
HETATM   29  C   UNL     1      -5.424   5.944 -31.703  1.00  0.00     0.268 A 
HETATM   30  C   UNL     1      -1.787   6.313 -33.021  1.00  0.00     0.005 C 
HETATM   31  C   UNL     1      -2.158   6.388 -34.497  1.00  0.00     0.006 C 
HETATM   32  O   UNL     1      -5.382   6.440 -30.583  1.00  0.00    -0.267 OA
HETATM   33  N   UNL     1      -6.541   5.352 -32.201  1.00  0.00    -0.152 N 
HETATM   34  H   UNL     1      -7.380   5.319 -31.631  1.00  0.00     0.188 HD
ENDBRANCH   2  23
BRANCH   4  35
HETATM   35  C   UNL     1     -11.342   4.726 -34.247  1.00  0.00     0.105 A 
HETATM   36  O   UNL     1     -12.284   4.571 -33.266  1.00  0.00    -0.320 OA
HETATM   37  C   UNL     1     -13.438   5.122 -33.721  1.00  0.00     0.142 A 
HETATM   38  C   UNL     1     -13.262   5.632 -34.985  1.00  0.00     0.027 A 
HETATM   39  C   UNL     1     -11.912   5.376 -35.326  1.00  0.00     0.041 A 
ENDBRANCH   4  35
TORSDOF 6
ENDMDL
MODEL 5
REMARK VINA RESULT:      -9.3      2.057      7.040
REMARK  6 active torsions:
REMARK  status: ('A' for Active; 'I' for Inactive)
REMARK    1  A    between atoms: C_2  and  O_3 
REMARK    2  A    between atoms: O_3  and  C_4 
REMARK    3  A    between atoms: C_5  and  C_6 
REMARK       I    between atoms: C_6  and  N_7 
REMARK    4  A    between atoms: N_7  and  C_8 
REMARK    5  A    between atoms: N_9  and  C_10 
REMARK    6  A    between atoms: C_22  and  C_23 
ROOT
HETATM    1  C   UNL     1      -6.290   0.774 -33.261  1.00  0.00     0.152 A 
HETATM    2  N   UNL     1      -7.539   0.431 -33.758  1.00  0.00    -0.044 N 
HETATM    3  N   UNL     1      -7.582  -0.854 -34.223  1.00  0.00    -0.148 NA
HETATM    4  C   UNL     1      -6.338  -1.308 -34.022  1.00  0.00     0.115 A 
HETATM    5  C   UNL     1      -5.493  -0.330 -33.456  1.00  0.00     0.087 A 
ENDROOT
BRANCH   1   6
HETATM    6  N   UNL     1      -6.047   2.006 -32.676  1.00  0.00    -0.307 N 
HETATM    7  C   UNL     1      -6.165   2.243 -31.323  1.00  0.00     0.261 C 
HETATM    8  O   UNL     1      -6.285   1.418 -30.428  1.00  0.00    -0.267 OA
HETATM    9  H   UNL     1      -5.835   2.787 -33.298  1.00  0.00     0.170 HD
BRANCH   7  10
HETATM   10  C   UNL     1      -6.115   3.685 -30.989  1.00  0.00     0.076 A 
HETATM   11  C   UNL     1      -4.843   4.284 -30.893  1.00  0.00     0.085 A 
HETATM   12  C   UNL     1      -4.763   5.632 -30.555  1.00  0.00     0.039 A 
HETATM   13  C   UNL     1      -5.928   6.363 -30.305  1.00  0.00     0.015 A 
HETATM   14  C   UNL     1      -7.198   5.768 -30.387  1.00  0.00    -0.025 A 
HETATM   15  C   UNL     1      -7.311   4.403 -30.742  1.00  0.00    -0.007 A 
HETATM   16  C   UNL     1      -8.353   6.519 -30.114  1.00  0.00     0.012 A 
HETATM   17  C   UNL     1      -8.607   3.841 -30.814  1.00  0.00     0.013 A 
HETATM   18  C   UNL     1      -9.746   4.600 -30.537  1.00  0.00     0.001 A 
HETATM   19  C   UNL     1      -9.618   5.937 -30.185  1.00  0.00     0.001 A 
BRANCH  11  20
HETATM   20  O   UNL     1      -3.765   3.472 -31.120  1.00  0.00    -0.350 OA
BRANCH  20  21
HETATM   21  C   UNL     1      -2.564   4.063 -31.608  1.00  0.00     0.171 C 
HETATM   22  C   UNL     1      -2.632   4.054 -33.124  1.00  0.00     0.034 C 
ENDBRANCH  20  21
ENDBRANCH  11  20
ENDBRANCH   7  10
ENDBRANCH   1   6
BRANCH   2  23
HETATM   23  C   UNL     1      -8.691   1.240 -33.829  1.00  0.00     0.732 A 
HETATM   24  N   UNL     1      -8.650   2.513 -34.074  1.00  0.00    -0.067 NA
HETATM   25  C   UNL     1      -9.864   3.158 -34.142  1.00  0.00     0.065 A 
HETATM   26  C   UNL     1     -11.054   2.553 -33.958  1.00  0.00     0.036 A 
HETATM   27  C   UNL     1      -9.783   4.629 -34.481  1.00  0.00     0.060 C 
HETATM   28  C   UNL     1     -12.381   3.250 -34.035  1.00  0.00     0.046 C 
HETATM   29  C   UNL     1     -11.058   1.099 -33.664  1.00  0.00     0.268 A 
HETATM   30  C   UNL     1     -12.257   4.775 -34.054  1.00  0.00     0.005 C 
HETATM   31  C   UNL     1     -11.111   5.222 -34.954  1.00  0.00     0.006 C 
HETATM   32  O   UNL     1     -12.094   0.469 -33.484  1.00  0.00    -0.267 OA
HETATM   33  N   UNL     1      -9.830   0.518 -33.619  1.00  0.00    -0.152 N 
HETATM   34  H   UNL     1      -9.760  -0.477 -33.433  1.00  0.00     0.188 HD
ENDBRANCH   2  23
BRANCH   4  35
HETATM   35  C   UNL     1      -5.926  -2.705 -34.348  1.00  0.00     0.105 A 
HETATM   36  O   UNL     1      -4.681  -3.221 -34.112  1.00  0.00    -0.320 OA
HETATM   37  C   UNL     1      -4.694  -4.514 -34.523  1.00  0.00     0.142 A 
HETATM   38  C   UNL     1      -5.930  -4.848 -35.023  1.00  0.00     0.027 A 
HETATM   39  C   UNL     1      -6.725  -3.681 -34.913  1.00  0.00     0.041 A 
ENDBRANCH   4  35
TORSDOF 6
ENDMDL
MODEL 6
REMARK VINA RESULT:      -9.2      2.144      7.030
REMARK  6 active torsions:
REMARK  status: ('A' for Active; 'I' for Inactive)
REMARK    1  A    between atoms: C_2  and  O_3 
REMARK    2  A    between atoms: O_3  and  C_4 
REMARK    3  A    between atoms: C_5  and  C_6 
REMARK       I    between atoms: C_6  and  N_7 
REMARK    4  A    between atoms: N_7  and  C_8 
REMARK    5  A    between atoms: N_9  and  C_10 
REMARK    6  A    between atoms: C_22  and  C_23 
ROOT
HETATM    1  C   UNL     1      -6.039   0.890 -33.628  1.00  0.00     0.152 A 
HETATM    2  N   UNL     1      -7.351   0.558 -33.932  1.00  0.00    -0.044 N 
HETATM    3  N   UNL     1      -7.495  -0.761 -34.257  1.00  0.00    -0.148 NA
HETATM    4  C   UNL     1      -6.251  -1.250 -34.168  1.00  0.00     0.115 A 
HETATM    5  C   UNL     1      -5.310  -0.262 -33.810  1.00  0.00     0.087 A 
ENDROOT
BRANCH   1   6
HETATM    6  N   UNL     1      -5.682   2.160 -33.204  1.00  0.00    -0.307 N 
HETATM    7  C   UNL     1      -5.154   2.425 -31.958  1.00  0.00     0.261 C 
HETATM    8  O   UNL     1      -4.730   1.621 -31.140  1.00  0.00    -0.267 OA
HETATM    9  H   UNL     1      -5.889   2.939 -33.830  1.00  0.00     0.170 HD
BRANCH   7  10
HETATM   10  C   UNL     1      -5.111   3.874 -31.653  1.00  0.00     0.076 A 
HETATM   11  C   UNL     1      -6.285   4.465 -31.145  1.00  0.00     0.085 A 
HETATM   12  C   UNL     1      -6.283   5.830 -30.873  1.00  0.00     0.039 A 
HETATM   13  C   UNL     1      -5.136   6.592 -31.116  1.00  0.00     0.015 A 
HETATM   14  C   UNL     1      -3.967   6.011 -31.633  1.00  0.00    -0.025 A 
HETATM   15  C   UNL     1      -3.935   4.623 -31.907  1.00  0.00    -0.007 A 
HETATM   16  C   UNL     1      -2.833   6.800 -31.886  1.00  0.00     0.012 A 
HETATM   17  C   UNL     1      -2.739   4.075 -32.426  1.00  0.00     0.013 A 
HETATM   18  C   UNL     1      -1.621   4.874 -32.675  1.00  0.00     0.001 A 
HETATM   19  C   UNL     1      -1.669   6.235 -32.406  1.00  0.00     0.001 A 
BRANCH  11  20
HETATM   20  O   UNL     1      -7.363   3.639 -30.978  1.00  0.00    -0.350 OA
BRANCH  20  21
HETATM   21  C   UNL     1      -8.627   4.227 -30.683  1.00  0.00     0.171 C 
HETATM   22  C   UNL     1      -9.621   3.098 -30.479  1.00  0.00     0.034 C 
ENDBRANCH  20  21
ENDBRANCH  11  20
ENDBRANCH   7  10
ENDBRANCH   1   6
BRANCH   2  23
HETATM   23  C   UNL     1      -8.475   1.408 -33.939  1.00  0.00     0.732 A 
HETATM   24  N   UNL     1      -8.395   2.690 -34.119  1.00  0.00    -0.067 NA
HETATM   25  C   UNL     1      -9.587   3.378 -34.132  1.00  0.00     0.065 A 
HETATM   26  C   UNL     1     -10.793   2.805 -33.958  1.00  0.00     0.036 A 
HETATM   27  C   UNL     1      -9.460   4.862 -34.397  1.00  0.00     0.060 C 
HETATM   28  C   UNL     1     -12.097   3.548 -33.974  1.00  0.00     0.046 C 
HETATM   29  C   UNL     1     -10.843   1.338 -33.739  1.00  0.00     0.268 A 
HETATM   30  C   UNL     1     -11.921   5.067 -33.918  1.00  0.00     0.005 C 
HETATM   31  C   UNL     1     -10.775   5.522 -34.814  1.00  0.00     0.006 C 
HETATM   32  O   UNL     1     -11.896   0.735 -33.573  1.00  0.00    -0.267 OA
HETATM   33  N   UNL     1      -9.635   0.715 -33.746  1.00  0.00    -0.152 N 
HETATM   34  H   UNL     1      -9.596  -0.291 -33.613  1.00  0.00     0.188 HD
ENDBRANCH   2  23
BRANCH   4  35
HETATM   35  C   UNL     1      -5.930  -2.688 -34.401  1.00  0.00     0.105 A 
HETATM   36  O   UNL     1      -4.732  -3.275 -34.095  1.00  0.00    -0.320 OA
HETATM   37  C   UNL     1      -4.825  -4.586 -34.434  1.00  0.00     0.142 A 
HETATM   38  C   UNL     1      -6.066  -4.862 -34.956  1.00  0.00     0.027 A 
HETATM   39  C   UNL     1      -6.779  -3.638 -34.937  1.00  0.00     0.041 A 
ENDBRANCH   4  35
TORSDOF 6
ENDMDL
MODEL 7
REMARK VINA RESULT:      -9.0      2.602      6.902
REMARK  6 active torsions:
REMARK  status: ('A' for Active; 'I' for Inactive)
REMARK    1  A    between atoms: C_2  and  O_3 
REMARK    2  A    between atoms: O_3  and  C_4 
REMARK    3  A    between atoms: C_5  and  C_6 
REMARK       I    between atoms: C_6  and  N_7 
REMARK    4  A    between atoms: N_7  and  C_8 
REMARK    5  A    between atoms: N_9  and  C_10 
REMARK    6  A    between atoms: C_22  and  C_23 
ROOT
HETATM    1  C   UNL     1      -5.683   1.273 -33.285  1.00  0.00     0.152 A 
HETATM    2  N   UNL     1      -4.456   1.649 -32.759  1.00  0.00    -0.044 N 
HETATM    3  N   UNL     1      -3.658   0.577 -32.474  1.00  0.00    -0.148 NA
HETATM    4  C   UNL     1      -4.409  -0.479 -32.815  1.00  0.00     0.115 A 
HETATM    5  C   UNL     1      -5.681  -0.102 -33.295  1.00  0.00     0.087 A 
ENDROOT
BRANCH   1   6
HETATM    6  N   UNL     1      -6.616   2.205 -33.710  1.00  0.00    -0.307 N 
HETATM    7  C   UNL     1      -7.643   2.670 -32.915  1.00  0.00     0.261 C 
HETATM    8  O   UNL     1      -7.779   2.522 -31.709  1.00  0.00    -0.267 OA
HETATM    9  H   UNL     1      -6.571   2.504 -34.685  1.00  0.00     0.170 HD
BRANCH   7  10
HETATM   10  C   UNL     1      -8.649   3.445 -33.678  1.00  0.00     0.076 A 
HETATM   11  C   UNL     1      -8.375   4.806 -33.916  1.00  0.00     0.085 A 
HETATM   12  C   UNL     1      -9.314   5.567 -34.607  1.00  0.00     0.039 A 
HETATM   13  C   UNL     1     -10.508   4.983 -35.040  1.00  0.00     0.015 A 
HETATM   14  C   UNL     1     -10.792   3.629 -34.796  1.00  0.00    -0.025 A 
HETATM   15  C   UNL     1      -9.851   2.828 -34.107  1.00  0.00    -0.007 A 
HETATM   16  C   UNL     1     -12.006   3.069 -35.224  1.00  0.00     0.012 A 
HETATM   17  C   UNL     1     -10.173   1.470 -33.880  1.00  0.00     0.013 A 
HETATM   18  C   UNL     1     -11.387   0.929 -34.311  1.00  0.00     0.001 A 
HETATM   19  C   UNL     1     -12.303   1.728 -34.980  1.00  0.00     0.001 A 
BRANCH  11  20
HETATM   20  O   UNL     1      -7.195   5.289 -33.418  1.00  0.00    -0.350 OA
BRANCH  20  21
HETATM   21  C   UNL     1      -7.233   6.453 -32.597  1.00  0.00     0.171 C 
HETATM   22  C   UNL     1      -7.941   6.080 -31.307  1.00  0.00     0.034 C 
ENDBRANCH  20  21
ENDBRANCH  11  20
ENDBRANCH   7  10
ENDBRANCH   1   6
BRANCH   2  23
HETATM   23  C   UNL     1      -3.992   2.955 -32.504  1.00  0.00     0.732 A 
HETATM   24  N   UNL     1      -3.109   3.551 -33.244  1.00  0.00    -0.067 NA
HETATM   25  C   UNL     1      -2.782   4.839 -32.882  1.00  0.00     0.065 A 
HETATM   26  C   UNL     1      -3.307   5.483 -31.822  1.00  0.00     0.036 A 
HETATM   27  C   UNL     1      -1.790   5.522 -33.796  1.00  0.00     0.060 C 
HETATM   28  C   UNL     1      -2.957   6.887 -31.424  1.00  0.00     0.046 C 
HETATM   29  C   UNL     1      -4.302   4.761 -30.990  1.00  0.00     0.268 A 
HETATM   30  C   UNL     1      -1.730   7.431 -32.159  1.00  0.00     0.005 C 
HETATM   31  C   UNL     1      -1.755   7.042 -33.633  1.00  0.00     0.006 C 
HETATM   32  O   UNL     1      -4.829   5.271 -30.009  1.00  0.00    -0.267 OA
HETATM   33  N   UNL     1      -4.589   3.499 -31.404  1.00  0.00    -0.152 N 
HETATM   34  H   UNL     1      -5.270   2.952 -30.887  1.00  0.00     0.188 HD
ENDBRANCH   2  23
BRANCH   4  35
HETATM   35  C   UNL     1      -3.918  -1.885 -32.712  1.00  0.00     0.105 A 
HETATM   36  O   UNL     1      -3.152  -2.365 -31.685  1.00  0.00    -0.320 OA
HETATM   37  C   UNL     1      -2.921  -3.679 -31.932  1.00  0.00     0.142 A 
HETATM   38  C   UNL     1      -3.527  -4.063 -33.105  1.00  0.00     0.027 A 
HETATM   39  C   UNL     1      -4.168  -2.906 -33.610  1.00  0.00     0.041 A 
ENDBRANCH   4  35
TORSDOF 6
ENDMDL
MODEL 8
REMARK VINA RESULT:      -9.0      2.409      6.911
REMARK  6 active torsions:
REMARK  status: ('A' for Active; 'I' for Inactive)
REMARK    1  A    between atoms: C_2  and  O_3 
REMARK    2  A    between atoms: O_3  and  C_4 
REMARK    3  A    between atoms: C_5  and  C_6 
REMARK       I    between atoms: C_6  and  N_7 
REMARK    4  A    between atoms: N_7  and  C_8 
REMARK    5  A    between atoms: N_9  and  C_10 
REMARK    6  A    between atoms: C_22  and  C_23 
ROOT
HETATM    1  C   UNL     1      -6.105   1.631 -33.166  1.00  0.00     0.152 A 
HETATM    2  N   UNL     1      -7.433   1.287 -33.367  1.00  0.00    -0.044 N 
HETATM    3  N   UNL     1      -7.581  -0.006 -33.784  1.00  0.00    -0.148 NA
HETATM    4  C   UNL     1      -6.324  -0.465 -33.856  1.00  0.00     0.115 A 
HETATM    5  C   UNL     1      -5.373   0.519 -33.511  1.00  0.00     0.087 A 
ENDROOT
BRANCH   1   6
HETATM    6  N   UNL     1      -5.735   2.872 -32.674  1.00  0.00    -0.307 N 
HETATM    7  C   UNL     1      -5.753   4.026 -33.429  1.00  0.00     0.261 C 
HETATM    8  O   UNL     1      -6.269   4.193 -34.526  1.00  0.00    -0.267 OA
HETATM    9  H   UNL     1      -5.367   2.910 -31.723  1.00  0.00     0.170 HD
BRANCH   7  10
HETATM   10  C   UNL     1      -5.065   5.156 -32.763  1.00  0.00     0.076 A 
HETATM   11  C   UNL     1      -5.756   5.816 -31.728  1.00  0.00     0.085 A 
HETATM   12  C   UNL     1      -5.145   6.899 -31.101  1.00  0.00     0.039 A 
HETATM   13  C   UNL     1      -3.876   7.321 -31.508  1.00  0.00     0.015 A 
HETATM   14  C   UNL     1      -3.187   6.674 -32.547  1.00  0.00    -0.025 A 
HETATM   15  C   UNL     1      -3.777   5.562 -33.194  1.00  0.00    -0.007 A 
HETATM   16  C   UNL     1      -1.921   7.127 -32.951  1.00  0.00     0.012 A 
HETATM   17  C   UNL     1      -3.052   4.937 -34.235  1.00  0.00     0.013 A 
HETATM   18  C   UNL     1      -1.795   5.402 -34.627  1.00  0.00     0.001 A 
HETATM   19  C   UNL     1      -1.231   6.497 -33.986  1.00  0.00     0.001 A 
BRANCH  11  20
HETATM   20  O   UNL     1      -7.007   5.348 -31.432  1.00  0.00    -0.350 OA
BRANCH  20  21
HETATM   21  C   UNL     1      -8.054   6.294 -31.233  1.00  0.00     0.171 C 
HETATM   22  C   UNL     1      -8.605   6.661 -32.599  1.00  0.00     0.034 C 
ENDBRANCH  20  21
ENDBRANCH  11  20
ENDBRANCH   7  10
ENDBRANCH   1   6
BRANCH   2  23
HETATM   23  C   UNL     1      -8.570   2.102 -33.196  1.00  0.00     0.732 A 
HETATM   24  N   UNL     1      -9.019   2.458 -32.033  1.00  0.00    -0.067 NA
HETATM   25  C   UNL     1     -10.121   3.283 -32.034  1.00  0.00     0.065 A 
HETATM   26  C   UNL     1     -10.745   3.712 -33.148  1.00  0.00     0.036 A 
HETATM   27  C   UNL     1     -10.586   3.722 -30.663  1.00  0.00     0.060 C 
HETATM   28  C   UNL     1     -11.944   4.614 -33.155  1.00  0.00     0.046 C 
HETATM   29  C   UNL     1     -10.210   3.270 -34.459  1.00  0.00     0.268 A 
HETATM   30  C   UNL     1     -12.582   4.776 -31.774  1.00  0.00     0.005 C 
HETATM   31  C   UNL     1     -11.519   4.934 -30.692  1.00  0.00     0.006 C 
HETATM   32  O   UNL     1     -10.715   3.612 -35.522  1.00  0.00    -0.267 OA
HETATM   33  N   UNL     1      -9.117   2.465 -34.393  1.00  0.00    -0.152 N 
HETATM   34  H   UNL     1      -8.693   2.134 -35.253  1.00  0.00     0.188 HD
ENDBRANCH   2  23
BRANCH   4  35
HETATM   35  C   UNL     1      -5.998  -1.870 -34.236  1.00  0.00     0.105 A 
HETATM   36  O   UNL     1      -4.731  -2.383 -34.295  1.00  0.00    -0.320 OA
HETATM   37  C   UNL     1      -4.838  -3.686 -34.658  1.00  0.00     0.142 A 
HETATM   38  C   UNL     1      -6.157  -4.030 -34.837  1.00  0.00     0.027 A 
HETATM   39  C   UNL     1      -6.906  -2.858 -34.567  1.00  0.00     0.041 A 
ENDBRANCH   4  35
TORSDOF 6
ENDMDL
MODEL 9
REMARK VINA RESULT:      -8.8      2.090      2.929
REMARK  6 active torsions:
REMARK  status: ('A' for Active; 'I' for Inactive)
REMARK    1  A    between atoms: C_2  and  O_3 
REMARK    2  A    between atoms: O_3  and  C_4 
REMARK    3  A    between atoms: C_5  and  C_6 
REMARK       I    between atoms: C_6  and  N_7 
REMARK    4  A    between atoms: N_7  and  C_8 
REMARK    5  A    between atoms: N_9  and  C_10 
REMARK    6  A    between atoms: C_22  and  C_23 
ROOT
HETATM    1  C   UNL     1      -8.285   2.714 -31.635  1.00  0.00     0.152 A 
HETATM    2  N   UNL     1      -8.305   4.014 -31.152  1.00  0.00    -0.044 N 
HETATM    3  N   UNL     1      -9.562   4.551 -31.146  1.00  0.00    -0.148 NA
HETATM    4  C   UNL     1     -10.329   3.573 -31.646  1.00  0.00     0.115 A 
HETATM    5  C   UNL     1      -9.582   2.427 -31.991  1.00  0.00     0.087 A 
ENDROOT
BRANCH   1   6
HETATM    6  N   UNL     1      -7.124   1.959 -31.661  1.00  0.00    -0.307 N 
HETATM    7  C   UNL     1      -6.335   1.816 -32.782  1.00  0.00     0.261 C 
HETATM    8  O   UNL     1      -6.390   2.457 -33.822  1.00  0.00    -0.267 OA
HETATM    9  H   UNL     1      -6.888   1.432 -30.819  1.00  0.00     0.170 HD
BRANCH   7  10
HETATM   10  C   UNL     1      -5.311   0.755 -32.629  1.00  0.00     0.076 A 
HETATM   11  C   UNL     1      -4.200   1.040 -31.811  1.00  0.00     0.085 A 
HETATM   12  C   UNL     1      -3.209   0.073 -31.669  1.00  0.00     0.039 A 
HETATM   13  C   UNL     1      -3.319  -1.148 -32.340  1.00  0.00     0.015 A 
HETATM   14  C   UNL     1      -4.419  -1.433 -33.166  1.00  0.00    -0.025 A 
HETATM   15  C   UNL     1      -5.448  -0.475 -33.319  1.00  0.00    -0.007 A 
HETATM   16  C   UNL     1      -4.499  -2.660 -33.844  1.00  0.00     0.012 A 
HETATM   17  C   UNL     1      -6.539  -0.799 -34.159  1.00  0.00     0.013 A 
HETATM   18  C   UNL     1      -6.602  -2.023 -34.829  1.00  0.00     0.001 A 
HETATM   19  C   UNL     1      -5.582  -2.952 -34.673  1.00  0.00     0.001 A 
BRANCH  11  20
HETATM   20  O   UNL     1      -4.170   2.279 -31.229  1.00  0.00    -0.350 OA
BRANCH  20  21
HETATM   21  C   UNL     1      -2.992   3.067 -31.376  1.00  0.00     0.171 C 
HETATM   22  C   UNL     1      -2.990   3.629 -32.786  1.00  0.00     0.034 C 
ENDBRANCH  20  21
ENDBRANCH  11  20
ENDBRANCH   7  10
ENDBRANCH   1   6
BRANCH   2  23
HETATM   23  C   UNL     1      -7.213   4.784 -30.702  1.00  0.00     0.732 A 
HETATM   24  N   UNL     1      -6.350   5.327 -31.503  1.00  0.00    -0.067 NA
HETATM   25  C   UNL     1      -5.359   6.077 -30.910  1.00  0.00     0.065 A 
HETATM   26  C   UNL     1      -5.237   6.254 -29.581  1.00  0.00     0.036 A 
HETATM   27  C   UNL     1      -4.402   6.739 -31.876  1.00  0.00     0.060 C 
HETATM   28  C   UNL     1      -4.161   7.072 -28.929  1.00  0.00     0.046 C 
HETATM   29  C   UNL     1      -6.235   5.602 -28.696  1.00  0.00     0.268 A 
HETATM   30  C   UNL     1      -3.034   7.455 -29.890  1.00  0.00     0.005 C 
HETATM   31  C   UNL     1      -3.586   7.871 -31.248  1.00  0.00     0.006 C 
HETATM   32  O   UNL     1      -6.199   5.711 -27.477  1.00  0.00    -0.267 OA
HETATM   33  N   UNL     1      -7.192   4.885 -29.341  1.00  0.00    -0.152 N 
HETATM   34  H   UNL     1      -7.913   4.422 -28.798  1.00  0.00     0.188 HD
ENDBRANCH   2  23
BRANCH   4  35
HETATM   35  C   UNL     1     -11.809   3.701 -31.787  1.00  0.00     0.105 A 
HETATM   36  O   UNL     1     -12.505   3.420 -32.931  1.00  0.00    -0.320 OA
HETATM   37  C   UNL     1     -13.819   3.638 -32.669  1.00  0.00     0.142 A 
HETATM   38  C   UNL     1     -13.989   4.056 -31.371  1.00  0.00     0.027 A 
HETATM   39  C   UNL     1     -12.693   4.099 -30.801  1.00  0.00     0.041 A 
ENDBRANCH   4  35
TORSDOF 6
ENDMDL
MODEL 10
REMARK VINA RESULT:      -8.8      1.934      6.971
REMARK  6 active torsions:
REMARK  status: ('A' for Active; 'I' for Inactive)
REMARK    1  A    between atoms: C_2  and  O_3 
REMARK    2  A    between atoms: O_3  and  C_4 
REMARK    3  A    between atoms: C_5  and  C_6 
REMARK       I    between atoms: C_6  and  N_7 
REMARK    4  A    between atoms: N_7  and  C_8 
REMARK    5  A    between atoms: N_9  and  C_10 
REMARK    6  A    between atoms: C_22  and  C_23 
ROOT
HETATM    1  C   UNL     1      -6.263   1.163 -33.567  1.00  0.00     0.152 A 
HETATM    2  N   UNL     1      -7.570   0.702 -33.501  1.00  0.00    -0.044 N 
HETATM    3  N   UNL     1      -7.666  -0.638 -33.756  1.00  0.00    -0.148 NA
HETATM    4  C   UNL     1      -6.401  -1.008 -33.999  1.00  0.00     0.115 A 
HETATM    5  C   UNL     1      -5.500   0.075 -33.922  1.00  0.00     0.087 A 
ENDROOT
BRANCH   1   6
HETATM    6  N   UNL     1      -5.933   2.475 -33.272  1.00  0.00    -0.307 N 
HETATM    7  C   UNL     1      -5.089   2.835 -32.243  1.00  0.00     0.261 C 
HETATM    8  O   UNL     1      -4.357   2.106 -31.587  1.00  0.00    -0.267 OA
HETATM    9  H   UNL     1      -6.398   3.208 -33.809  1.00  0.00     0.170 HD
BRANCH   7  10
HETATM   10  C   UNL     1      -5.110   4.291 -31.969  1.00  0.00     0.076 A 
HETATM   11  C   UNL     1      -4.323   5.117 -32.794  1.00  0.00     0.085 A 
HETATM   12  C   UNL     1      -4.302   6.487 -32.544  1.00  0.00     0.039 A 
HETATM   13  C   UNL     1      -5.041   7.017 -31.483  1.00  0.00     0.015 A 
HETATM   14  C   UNL     1      -5.819   6.197 -30.650  1.00  0.00    -0.025 A 
HETATM   15  C   UNL     1      -5.870   4.803 -30.888  1.00  0.00    -0.007 A 
HETATM   16  C   UNL     1      -6.539   6.751 -29.579  1.00  0.00     0.012 A 
HETATM   17  C   UNL     1      -6.664   4.011 -30.027  1.00  0.00     0.013 A 
HETATM   18  C   UNL     1      -7.372   4.576 -28.964  1.00  0.00     0.001 A 
HETATM   19  C   UNL     1      -7.308   5.945 -28.740  1.00  0.00     0.001 A 
BRANCH  11  20
HETATM   20  O   UNL     1      -3.608   4.494 -33.781  1.00  0.00    -0.350 OA
BRANCH  20  21
HETATM   21  C   UNL     1      -3.143   5.277 -34.877  1.00  0.00     0.171 C 
HETATM   22  C   UNL     1      -1.626   5.218 -34.871  1.00  0.00     0.034 C 
ENDBRANCH  20  21
ENDBRANCH  11  20
ENDBRANCH   7  10
ENDBRANCH   1   6
BRANCH   2  23
HETATM   23  C   UNL     1      -8.733   1.445 -33.217  1.00  0.00     0.732 A 
HETATM   24  N   UNL     1      -8.715   2.578 -32.587  1.00  0.00    -0.067 NA
HETATM   25  C   UNL     1      -9.933   3.198 -32.415  1.00  0.00     0.065 A 
HETATM   26  C   UNL     1     -11.105   2.693 -32.844  1.00  0.00     0.036 A 
HETATM   27  C   UNL     1      -9.868   4.541 -31.723  1.00  0.00     0.060 C 
HETATM   28  C   UNL     1     -12.435   3.365 -32.663  1.00  0.00     0.046 C 
HETATM   29  C   UNL     1     -11.086   1.387 -33.547  1.00  0.00     0.268 A 
HETATM   30  C   UNL     1     -12.384   4.544 -31.690  1.00  0.00     0.005 C 
HETATM   31  C   UNL     1     -11.131   5.385 -31.908  1.00  0.00     0.006 C 
HETATM   32  O   UNL     1     -12.106   0.856 -33.971  1.00  0.00    -0.267 OA
HETATM   33  N   UNL     1      -9.855   0.830 -33.693  1.00  0.00    -0.152 N 
HETATM   34  H   UNL     1      -9.768  -0.059 -34.175  1.00  0.00     0.188 HD
ENDBRANCH   2  23
BRANCH   4  35
HETATM   35  C   UNL     1      -6.015  -2.419 -34.289  1.00  0.00     0.105 A 
HETATM   36  O   UNL     1      -4.759  -2.932 -34.108  1.00  0.00    -0.320 OA
HETATM   37  C   UNL     1      -4.801  -4.242 -34.462  1.00  0.00     0.142 A 
HETATM   38  C   UNL     1      -6.067  -4.589 -34.871  1.00  0.00     0.027 A 
HETATM   39  C   UNL     1      -6.850  -3.414 -34.762  1.00  0.00     0.041 A 
ENDBRANCH   4  35
TORSDOF 6
ENDMDL
