MODEL 1
REMARK VINA RESULT:      -9.6      0.000      0.000
REMARK  5 active torsions:
REMARK  status: ('A' for Active; 'I' for Inactive)
REMARK    1  A    between atoms: C_4  and  N_5 
REMARK       I    between atoms: N_5  and  C_6 
REMARK       I    between atoms: C_6  and  N_7 
REMARK    2  A    between atoms: N_7  and  C_8 
REMARK    3  A    between atoms: C_8  and  C_9 
REMARK       I    between atoms: C_9  and  N_10 
REMARK    4  A    between atoms: N_10  and  C_11 
REMARK    5  A    between atoms: C_16  and  C_17 
ROOT
HETATM    1  C   UNL     1      -5.412   3.392 -32.004  1.00  0.00     0.239 C 
HETATM    2  N   UNL     1      -4.391   3.452 -32.937  1.00  0.00    -0.325 N 
HETATM    3  O   UNL     1      -5.415   3.883 -30.879  1.00  0.00    -0.271 OA
HETATM    4  H   UNL     1      -4.455   2.754 -33.679  1.00  0.00     0.169 HD
ENDROOT
BRANCH   1   5
HETATM    5  C   UNL     1      -6.591   2.540 -32.485  1.00  0.00     0.227 C 
BRANCH   5   6
HETATM    6  N   UNL     1      -6.187   1.576 -33.493  1.00  0.00    -0.334 N 
HETATM    7  C   UNL     1      -6.168   0.232 -33.187  1.00  0.00     0.321 C 
HETATM    8  N   UNL     1      -5.686  -0.502 -34.242  1.00  0.00    -0.309 N 
HETATM    9  O   UNL     1      -6.529  -0.182 -32.092  1.00  0.00    -0.247 OA
HETATM   10  H   UNL     1      -5.142   0.025 -34.911  1.00  0.00     0.170 HD
HETATM   11  H   UNL     1      -6.442   1.800 -34.446  1.00  0.00     0.164 HD
BRANCH   8  12
HETATM   12  C   UNL     1      -5.642  -1.904 -34.356  1.00  0.00     0.036 A 
HETATM   13  C   UNL     1      -4.498  -2.663 -34.091  1.00  0.00     0.036 A 
HETATM   14  C   UNL     1      -4.527  -4.064 -34.187  1.00  0.00    -0.060 A 
HETATM   15  C   UNL     1      -3.289  -4.865 -33.914  1.00  0.00     0.048 C 
HETATM   16  C   UNL     1      -5.708  -4.698 -34.588  1.00  0.00     0.007 A 
HETATM   17  C   UNL     1      -6.853  -3.948 -34.850  1.00  0.00     0.003 A 
HETATM   18  C   UNL     1      -6.823  -2.559 -34.723  1.00  0.00     0.029 A 
ENDBRANCH   8  12
ENDBRANCH   5   6
ENDBRANCH   1   5
BRANCH   2  19
HETATM   19  C   UNL     1      -3.237   4.266 -32.918  1.00  0.00     0.041 A 
HETATM   20  C   UNL     1      -2.983   5.106 -34.023  1.00  0.00    -0.035 A 
HETATM   21  C   UNL     1      -3.868   5.128 -35.241  1.00  0.00     0.050 C 
HETATM   22  C   UNL     1      -1.862   5.950 -34.002  1.00  0.00     0.010 A 
HETATM   23  C   UNL     1      -1.006   5.975 -32.900  1.00  0.00     0.016 A 
HETATM   24  C   UNL     1      -1.246   5.153 -31.795  1.00  0.00     0.019 A 
HETATM   25  C   UNL     1      -2.365   4.301 -31.821  1.00  0.00     0.046 A 
BRANCH  24  26
HETATM   26  C   UNL     1      -0.375   5.171 -30.621  1.00  0.00     0.179 A 
HETATM   27  O   UNL     1      -0.635   6.131 -29.671  1.00  0.00    -0.302 OA
HETATM   28  C   UNL     1       0.302   5.911 -28.708  1.00  0.00     0.163 A 
HETATM   29  C   UNL     1       1.076   4.853 -29.103  1.00  0.00     0.144 A 
HETATM   30  N   UNL     1       0.640   4.384 -30.316  1.00  0.00    -0.234 NA
ENDBRANCH  24  26
ENDBRANCH   2  19
TORSDOF 5
ENDMDL
MODEL 2
REMARK VINA RESULT:      -8.6      1.278      1.892
REMARK  5 active torsions:
REMARK  status: ('A' for Active; 'I' for Inactive)
REMARK    1  A    between atoms: C_4  and  N_5 
REMARK       I    between atoms: N_5  and  C_6 
REMARK       I    between atoms: C_6  and  N_7 
REMARK    2  A    between atoms: N_7  and  C_8 
REMARK    3  A    between atoms: C_8  and  C_9 
REMARK       I    between atoms: C_9  and  N_10 
REMARK    4  A    between atoms: N_10  and  C_11 
REMARK    5  A    between atoms: C_16  and  C_17 
ROOT
HETATM    1  C   UNL     1      -5.931   5.019 -32.652  1.00  0.00     0.239 C 
HETATM    2  N   UNL     1      -4.771   4.266 -32.729  1.00  0.00    -0.325 N 
HETATM    3  O   UNL     1      -6.016   6.223 -32.432  1.00  0.00    -0.271 OA
HETATM    4  H   UNL     1      -4.912   3.259 -32.629  1.00  0.00     0.169 HD
ENDROOT
BRANCH   1   5
HETATM    5  C   UNL     1      -7.192   4.161 -32.796  1.00  0.00     0.227 C 
BRANCH   5   6
HETATM    6  N   UNL     1      -6.970   2.794 -32.357  1.00  0.00    -0.334 N 
HETATM    7  C   UNL     1      -6.526   1.850 -33.258  1.00  0.00     0.321 C 
HETATM    8  N   UNL     1      -6.454   0.611 -32.670  1.00  0.00    -0.309 N 
HETATM    9  O   UNL     1      -6.266   2.141 -34.419  1.00  0.00    -0.247 OA
HETATM   10  H   UNL     1      -7.009   0.507 -31.833  1.00  0.00     0.170 HD
HETATM   11  H   UNL     1      -6.631   2.684 -31.411  1.00  0.00     0.164 HD
BRANCH   8  12
HETATM   12  C   UNL     1      -5.923  -0.568 -33.227  1.00  0.00     0.036 A 
HETATM   13  C   UNL     1      -6.710  -1.577 -33.788  1.00  0.00     0.036 A 
HETATM   14  C   UNL     1      -6.118  -2.715 -34.362  1.00  0.00    -0.060 A 
HETATM   15  C   UNL     1      -6.975  -3.797 -34.948  1.00  0.00     0.048 C 
HETATM   16  C   UNL     1      -4.726  -2.849 -34.335  1.00  0.00     0.007 A 
HETATM   17  C   UNL     1      -3.935  -1.844 -33.781  1.00  0.00     0.003 A 
HETATM   18  C   UNL     1      -4.530  -0.704 -33.241  1.00  0.00     0.029 A 
ENDBRANCH   8  12
ENDBRANCH   5   6
ENDBRANCH   1   5
BRANCH   2  19
HETATM   19  C   UNL     1      -3.437   4.722 -32.807  1.00  0.00     0.041 A 
HETATM   20  C   UNL     1      -2.959   5.207 -34.043  1.00  0.00    -0.035 A 
HETATM   21  C   UNL     1      -3.802   5.208 -35.291  1.00  0.00     0.050 C 
HETATM   22  C   UNL     1      -1.648   5.701 -34.127  1.00  0.00     0.010 A 
HETATM   23  C   UNL     1      -0.820   5.727 -33.005  1.00  0.00     0.016 A 
HETATM   24  C   UNL     1      -1.280   5.255 -31.771  1.00  0.00     0.019 A 
HETATM   25  C   UNL     1      -2.591   4.753 -31.690  1.00  0.00     0.046 A 
BRANCH  24  26
HETATM   26  C   UNL     1      -0.439   5.287 -30.575  1.00  0.00     0.179 A 
HETATM   27  O   UNL     1      -0.756   6.223 -29.619  1.00  0.00    -0.302 OA
HETATM   28  C   UNL     1       0.164   6.021 -28.636  1.00  0.00     0.163 A 
HETATM   29  C   UNL     1       0.985   4.997 -29.026  1.00  0.00     0.144 A 
HETATM   30  N   UNL     1       0.596   4.532 -30.256  1.00  0.00    -0.234 NA
ENDBRANCH  24  26
ENDBRANCH   2  19
TORSDOF 5
ENDMDL
MODEL 3
REMARK VINA RESULT:      -8.6      4.324      8.127
REMARK  5 active torsions:
REMARK  status: ('A' for Active; 'I' for Inactive)
REMARK    1  A    between atoms: C_4  and  N_5 
REMARK       I    between atoms: N_5  and  C_6 
REMARK       I    between atoms: C_6  and  N_7 
REMARK    2  A    between atoms: N_7  and  C_8 
REMARK    3  A    between atoms: C_8  and  C_9 
REMARK       I    between atoms: C_9  and  N_10 
REMARK    4  A    between atoms: N_10  and  C_11 
REMARK    5  A    between atoms: C_16  and  C_17 
ROOT
HETATM    1  C   UNL     1      -6.584   3.191 -33.220  1.00  0.00     0.239 C 
HETATM    2  N   UNL     1      -6.247   2.116 -32.414  1.00  0.00    -0.325 N 
HETATM    3  O   UNL     1      -6.066   3.503 -34.287  1.00  0.00    -0.271 OA
HETATM    4  H   UNL     1      -6.581   2.188 -31.451  1.00  0.00     0.169 HD
ENDROOT
BRANCH   1   5
HETATM    5  C   UNL     1      -7.675   4.066 -32.596  1.00  0.00     0.227 C 
BRANCH   5   6
HETATM    6  N   UNL     1      -8.943   3.928 -33.291  1.00  0.00    -0.334 N 
HETATM    7  C   UNL     1      -9.832   2.948 -32.905  1.00  0.00     0.321 C 
HETATM    8  N   UNL     1     -10.929   2.933 -33.730  1.00  0.00    -0.309 N 
HETATM    9  O   UNL     1      -9.602   2.210 -31.955  1.00  0.00    -0.247 OA
HETATM   10  H   UNL     1     -10.790   3.373 -34.628  1.00  0.00     0.170 HD
HETATM   11  H   UNL     1      -9.362   4.788 -33.619  1.00  0.00     0.164 HD
BRANCH   8  12
HETATM   12  C   UNL     1     -12.101   2.168 -33.577  1.00  0.00     0.036 A 
HETATM   13  C   UNL     1     -13.277   2.666 -33.008  1.00  0.00     0.036 A 
HETATM   14  C   UNL     1     -14.426   1.864 -32.916  1.00  0.00    -0.060 A 
HETATM   15  C   UNL     1     -15.677   2.407 -32.292  1.00  0.00     0.048 C 
HETATM   16  C   UNL     1     -14.376   0.541 -33.367  1.00  0.00     0.007 A 
HETATM   17  C   UNL     1     -13.208   0.038 -33.939  1.00  0.00     0.003 A 
HETATM   18  C   UNL     1     -12.080   0.853 -34.054  1.00  0.00     0.029 A 
ENDBRANCH   8  12
ENDBRANCH   5   6
ENDBRANCH   1   5
BRANCH   2  19
HETATM   19  C   UNL     1      -5.417   1.017 -32.724  1.00  0.00     0.041 A 
HETATM   20  C   UNL     1      -4.044   1.095 -32.409  1.00  0.00    -0.035 A 
HETATM   21  C   UNL     1      -3.423   2.326 -31.803  1.00  0.00     0.050 C 
HETATM   22  C   UNL     1      -3.214  -0.005 -32.675  1.00  0.00     0.010 A 
HETATM   23  C   UNL     1      -3.731  -1.173 -33.235  1.00  0.00     0.016 A 
HETATM   24  C   UNL     1      -5.091  -1.269 -33.548  1.00  0.00     0.019 A 
HETATM   25  C   UNL     1      -5.920  -0.164 -33.289  1.00  0.00     0.046 A 
BRANCH  24  26
HETATM   26  C   UNL     1      -5.663  -2.487 -34.120  1.00  0.00     0.179 A 
HETATM   27  O   UNL     1      -4.799  -3.535 -34.337  1.00  0.00    -0.302 OA
HETATM   28  C   UNL     1      -5.587  -4.518 -34.853  1.00  0.00     0.163 A 
HETATM   29  C   UNL     1      -6.868  -4.038 -34.928  1.00  0.00     0.144 A 
HETATM   30  N   UNL     1      -6.911  -2.751 -34.458  1.00  0.00    -0.234 NA
ENDBRANCH  24  26
ENDBRANCH   2  19
TORSDOF 5
ENDMDL
MODEL 4
REMARK VINA RESULT:      -8.6      4.417      7.884
REMARK  5 active torsions:
REMARK  status: ('A' for Active; 'I' for Inactive)
REMARK    1  A    between atoms: C_4  and  N_5 
REMARK       I    between atoms: N_5  and  C_6 
REMARK       I    between atoms: C_6  and  N_7 
REMARK    2  A    between atoms: N_7  and  C_8 
REMARK    3  A    between atoms: C_8  and  C_9 
REMARK       I    between atoms: C_9  and  N_10 
REMARK    4  A    between atoms: N_10  and  C_11 
REMARK    5  A    between atoms: C_16  and  C_17 
ROOT
HETATM    1  C   UNL     1      -7.680   2.839 -31.301  1.00  0.00     0.239 C 
HETATM    2  N   UNL     1      -8.066   2.842 -32.631  1.00  0.00    -0.325 N 
HETATM    3  O   UNL     1      -8.302   3.303 -30.350  1.00  0.00    -0.271 OA
HETATM    4  H   UNL     1      -7.306   2.679 -33.293  1.00  0.00     0.169 HD
ENDROOT
BRANCH   1   5
HETATM    5  C   UNL     1      -6.284   2.239 -31.102  1.00  0.00     0.227 C 
BRANCH   5   6
HETATM    6  N   UNL     1      -5.841   1.499 -32.270  1.00  0.00    -0.334 N 
HETATM    7  C   UNL     1      -5.944   0.124 -32.288  1.00  0.00     0.321 C 
HETATM    8  N   UNL     1      -5.403  -0.390 -33.441  1.00  0.00    -0.309 N 
HETATM    9  O   UNL     1      -6.444  -0.495 -31.357  1.00  0.00    -0.247 OA
HETATM   10  H   UNL     1      -4.759   0.225 -33.917  1.00  0.00     0.170 HD
HETATM   11  H   UNL     1      -5.981   1.955 -33.161  1.00  0.00     0.164 HD
BRANCH   8  12
HETATM   12  C   UNL     1      -5.440  -1.728 -33.878  1.00  0.00     0.036 A 
HETATM   13  C   UNL     1      -4.377  -2.621 -33.716  1.00  0.00     0.036 A 
HETATM   14  C   UNL     1      -4.489  -3.955 -34.140  1.00  0.00    -0.060 A 
HETATM   15  C   UNL     1      -3.335  -4.899 -33.973  1.00  0.00     0.048 C 
HETATM   16  C   UNL     1      -5.666  -4.378 -34.765  1.00  0.00     0.007 A 
HETATM   17  C   UNL     1      -6.733  -3.495 -34.926  1.00  0.00     0.003 A 
HETATM   18  C   UNL     1      -6.623  -2.179 -34.473  1.00  0.00     0.029 A 
ENDBRANCH   8  12
ENDBRANCH   5   6
ENDBRANCH   1   5
BRANCH   2  19
HETATM   19  C   UNL     1      -9.332   3.155 -33.172  1.00  0.00     0.041 A 
HETATM   20  C   UNL     1      -9.522   4.423 -33.762  1.00  0.00    -0.035 A 
HETATM   21  C   UNL     1      -8.441   5.471 -33.788  1.00  0.00     0.050 C 
HETATM   22  C   UNL     1     -10.762   4.733 -34.340  1.00  0.00     0.010 A 
HETATM   23  C   UNL     1     -11.801   3.803 -34.348  1.00  0.00     0.016 A 
HETATM   24  C   UNL     1     -11.628   2.540 -33.773  1.00  0.00     0.019 A 
HETATM   25  C   UNL     1     -10.388   2.232 -33.186  1.00  0.00     0.046 A 
BRANCH  24  26
HETATM   26  C   UNL     1     -12.694   1.539 -33.782  1.00  0.00     0.179 A 
HETATM   27  O   UNL     1     -13.960   1.985 -34.082  1.00  0.00    -0.302 OA
HETATM   28  C   UNL     1     -14.731   0.864 -34.030  1.00  0.00     0.163 A 
HETATM   29  C   UNL     1     -13.922  -0.193 -33.706  1.00  0.00     0.144 A 
HETATM   30  N   UNL     1     -12.630   0.241 -33.553  1.00  0.00    -0.234 NA
ENDBRANCH  24  26
ENDBRANCH   2  19
TORSDOF 5
ENDMDL
MODEL 5
REMARK VINA RESULT:      -8.5      2.732      3.195
REMARK  5 active torsions:
REMARK  status: ('A' for Active; 'I' for Inactive)
REMARK    1  A    between atoms: C_4  and  N_5 
REMARK       I    between atoms: N_5  and  C_6 
REMARK       I    between atoms: C_6  and  N_7 
REMARK    2  A    between atoms: N_7  and  C_8 
REMARK    3  A    between atoms: C_8  and  C_9 
REMARK       I    between atoms: C_9  and  N_10 
REMARK    4  A    between atoms: N_10  and  C_11 
REMARK    5  A    between atoms: C_16  and  C_17 
ROOT
HETATM    1  C   UNL     1      -3.363   3.225 -31.920  1.00  0.00     0.239 C 
HETATM    2  N   UNL     1      -3.634   4.326 -32.714  1.00  0.00    -0.325 N 
HETATM    3  O   UNL     1      -2.394   3.065 -31.184  1.00  0.00    -0.271 OA
HETATM    4  H   UNL     1      -4.313   4.156 -33.457  1.00  0.00     0.169 HD
ENDROOT
BRANCH   1   5
HETATM    5  C   UNL     1      -4.397   2.109 -32.101  1.00  0.00     0.227 C 
BRANCH   5   6
HETATM    6  N   UNL     1      -3.837   0.957 -32.785  1.00  0.00    -0.334 N 
HETATM    7  C   UNL     1      -4.506  -0.248 -32.755  1.00  0.00     0.321 C 
HETATM    8  N   UNL     1      -3.779  -1.224 -33.391  1.00  0.00    -0.309 N 
HETATM    9  O   UNL     1      -5.591  -0.367 -32.201  1.00  0.00    -0.247 OA
HETATM   10  H   UNL     1      -2.794  -1.024 -33.486  1.00  0.00     0.170 HD
HETATM   11  H   UNL     1      -3.335   1.153 -33.641  1.00  0.00     0.164 HD
BRANCH   8  12
HETATM   12  C   UNL     1      -4.188  -2.541 -33.679  1.00  0.00     0.036 A 
HETATM   13  C   UNL     1      -5.278  -2.847 -34.498  1.00  0.00     0.036 A 
HETATM   14  C   UNL     1      -5.614  -4.181 -34.777  1.00  0.00    -0.060 A 
HETATM   15  C   UNL     1      -6.796  -4.496 -35.646  1.00  0.00     0.048 C 
HETATM   16  C   UNL     1      -4.867  -5.211 -34.197  1.00  0.00     0.007 A 
HETATM   17  C   UNL     1      -3.775  -4.914 -33.382  1.00  0.00     0.003 A 
HETATM   18  C   UNL     1      -3.431  -3.584 -33.135  1.00  0.00     0.029 A 
ENDBRANCH   8  12
ENDBRANCH   5   6
ENDBRANCH   1   5
BRANCH   2  19
HETATM   19  C   UNL     1      -3.009   5.593 -32.694  1.00  0.00     0.041 A 
HETATM   20  C   UNL     1      -2.106   5.919 -33.728  1.00  0.00    -0.035 A 
HETATM   21  C   UNL     1      -1.745   4.947 -34.821  1.00  0.00     0.050 C 
HETATM   22  C   UNL     1      -1.508   7.188 -33.744  1.00  0.00     0.010 A 
HETATM   23  C   UNL     1      -1.804   8.131 -32.759  1.00  0.00     0.016 A 
HETATM   24  C   UNL     1      -2.702   7.826 -31.731  1.00  0.00     0.019 A 
HETATM   25  C   UNL     1      -3.293   6.551 -31.711  1.00  0.00     0.046 A 
BRANCH  24  26
HETATM   26  C   UNL     1      -3.043   8.801 -30.696  1.00  0.00     0.179 A 
HETATM   27  O   UNL     1      -3.323   8.305 -29.445  1.00  0.00    -0.302 OA
HETATM   28  C   UNL     1      -3.590   9.411 -28.697  1.00  0.00     0.163 A 
HETATM   29  C   UNL     1      -3.466  10.510 -29.506  1.00  0.00     0.144 A 
HETATM   30  N   UNL     1      -3.115  10.117 -30.773  1.00  0.00    -0.234 NA
ENDBRANCH  24  26
ENDBRANCH   2  19
TORSDOF 5
ENDMDL
MODEL 6
REMARK VINA RESULT:      -8.5      6.159     10.108
REMARK  5 active torsions:
REMARK  status: ('A' for Active; 'I' for Inactive)
REMARK    1  A    between atoms: C_4  and  N_5 
REMARK       I    between atoms: N_5  and  C_6 
REMARK       I    between atoms: C_6  and  N_7 
REMARK    2  A    between atoms: N_7  and  C_8 
REMARK    3  A    between atoms: C_8  and  C_9 
REMARK       I    between atoms: C_9  and  N_10 
REMARK    4  A    between atoms: N_10  and  C_11 
REMARK    5  A    between atoms: C_16  and  C_17 
ROOT
HETATM    1  C   UNL     1      -9.788   0.735 -33.612  1.00  0.00     0.239 C 
HETATM    2  N   UNL     1      -8.613   0.932 -34.318  1.00  0.00    -0.325 N 
HETATM    3  O   UNL     1     -10.009  -0.133 -32.774  1.00  0.00    -0.271 OA
HETATM    4  H   UNL     1      -8.714   1.502 -35.158  1.00  0.00     0.169 HD
ENDROOT
BRANCH   1   5
HETATM    5  C   UNL     1     -10.895   1.702 -34.045  1.00  0.00     0.227 C 
BRANCH   5   6
HETATM    6  N   UNL     1     -11.820   1.985 -32.962  1.00  0.00    -0.334 N 
HETATM    7  C   UNL     1     -13.046   2.550 -33.241  1.00  0.00     0.321 C 
HETATM    8  N   UNL     1     -13.738   2.810 -32.083  1.00  0.00    -0.309 N 
HETATM    9  O   UNL     1     -13.401   2.782 -34.390  1.00  0.00    -0.247 OA
HETATM   10  H   UNL     1     -13.167   2.860 -31.251  1.00  0.00     0.170 HD
HETATM   11  H   UNL     1     -11.809   1.333 -32.190  1.00  0.00     0.164 HD
BRANCH   8  12
HETATM   12  C   UNL     1     -15.067   3.258 -31.965  1.00  0.00     0.036 A 
HETATM   13  C   UNL     1     -15.412   4.594 -31.740  1.00  0.00     0.036 A 
HETATM   14  C   UNL     1     -16.759   4.985 -31.669  1.00  0.00    -0.060 A 
HETATM   15  C   UNL     1     -17.116   6.419 -31.412  1.00  0.00     0.048 C 
HETATM   16  C   UNL     1     -17.761   4.016 -31.789  1.00  0.00     0.007 A 
HETATM   17  C   UNL     1     -17.424   2.683 -32.019  1.00  0.00     0.003 A 
HETATM   18  C   UNL     1     -16.084   2.309 -32.118  1.00  0.00     0.029 A 
ENDBRANCH   8  12
ENDBRANCH   5   6
ENDBRANCH   1   5
BRANCH   2  19
HETATM   19  C   UNL     1      -7.346   0.355 -34.083  1.00  0.00     0.041 A 
HETATM   20  C   UNL     1      -6.341   1.146 -33.486  1.00  0.00    -0.035 A 
HETATM   21  C   UNL     1      -6.555   2.596 -33.138  1.00  0.00     0.050 C 
HETATM   22  C   UNL     1      -5.090   0.575 -33.209  1.00  0.00     0.010 A 
HETATM   23  C   UNL     1      -4.832  -0.763 -33.508  1.00  0.00     0.016 A 
HETATM   24  C   UNL     1      -5.818  -1.563 -34.094  1.00  0.00     0.019 A 
HETATM   25  C   UNL     1      -7.069  -0.987 -34.379  1.00  0.00     0.046 A 
BRANCH  24  26
HETATM   26  C   UNL     1      -5.581  -2.973 -34.402  1.00  0.00     0.179 A 
HETATM   27  O   UNL     1      -6.576  -3.634 -35.083  1.00  0.00    -0.302 OA
HETATM   28  C   UNL     1      -6.091  -4.897 -35.239  1.00  0.00     0.163 A 
HETATM   29  C   UNL     1      -4.852  -4.951 -34.658  1.00  0.00     0.144 A 
HETATM   30  N   UNL     1      -4.531  -3.726 -34.131  1.00  0.00    -0.234 NA
ENDBRANCH  24  26
ENDBRANCH   2  19
TORSDOF 5
ENDMDL
MODEL 7
REMARK VINA RESULT:      -8.2      2.947      3.936
REMARK  5 active torsions:
REMARK  status: ('A' for Active; 'I' for Inactive)
REMARK    1  A    between atoms: C_4  and  N_5 
REMARK       I    between atoms: N_5  and  C_6 
REMARK       I    between atoms: C_6  and  N_7 
REMARK    2  A    between atoms: N_7  and  C_8 
REMARK    3  A    between atoms: C_8  and  C_9 
REMARK       I    between atoms: C_9  and  N_10 
REMARK    4  A    between atoms: N_10  and  C_11 
REMARK    5  A    between atoms: C_16  and  C_17 
ROOT
HETATM    1  C   UNL     1      -8.471   4.142 -33.607  1.00  0.00     0.239 C 
HETATM    2  N   UNL     1      -7.661   4.256 -32.490  1.00  0.00    -0.325 N 
HETATM    3  O   UNL     1      -8.586   4.952 -34.522  1.00  0.00    -0.271 OA
HETATM    4  H   UNL     1      -7.915   3.638 -31.718  1.00  0.00     0.169 HD
ENDROOT
BRANCH   1   5
HETATM    5  C   UNL     1      -9.333   2.876 -33.574  1.00  0.00     0.227 C 
BRANCH   5   6
HETATM    6  N   UNL     1      -8.618   1.749 -33.002  1.00  0.00    -0.334 N 
HETATM    7  C   UNL     1      -7.951   0.870 -33.830  1.00  0.00     0.321 C 
HETATM    8  N   UNL     1      -7.408  -0.163 -33.107  1.00  0.00    -0.309 N 
HETATM    9  O   UNL     1      -7.907   1.038 -35.042  1.00  0.00    -0.247 OA
HETATM   10  H   UNL     1      -7.821  -0.306 -32.197  1.00  0.00     0.170 HD
HETATM   11  H   UNL     1      -8.183   1.911 -32.104  1.00  0.00     0.164 HD
BRANCH   8  12
HETATM   12  C   UNL     1      -6.551  -1.175 -33.579  1.00  0.00     0.036 A 
HETATM   13  C   UNL     1      -7.001  -2.312 -34.257  1.00  0.00     0.036 A 
HETATM   14  C   UNL     1      -6.093  -3.270 -34.736  1.00  0.00    -0.060 A 
HETATM   15  C   UNL     1      -6.590  -4.492 -35.449  1.00  0.00     0.048 C 
HETATM   16  C   UNL     1      -4.726  -3.097 -34.496  1.00  0.00     0.007 A 
HETATM   17  C   UNL     1      -4.269  -1.964 -33.825  1.00  0.00     0.003 A 
HETATM   18  C   UNL     1      -5.177  -1.002 -33.379  1.00  0.00     0.029 A 
ENDBRANCH   8  12
ENDBRANCH   5   6
ENDBRANCH   1   5
BRANCH   2  19
HETATM   19  C   UNL     1      -6.625   5.186 -32.254  1.00  0.00     0.041 A 
HETATM   20  C   UNL     1      -6.796   6.146 -31.233  1.00  0.00    -0.035 A 
HETATM   21  C   UNL     1      -8.063   6.246 -30.424  1.00  0.00     0.050 C 
HETATM   22  C   UNL     1      -5.760   7.051 -30.959  1.00  0.00     0.010 A 
HETATM   23  C   UNL     1      -4.563   7.006 -31.674  1.00  0.00     0.016 A 
HETATM   24  C   UNL     1      -4.375   6.058 -32.685  1.00  0.00     0.019 A 
HETATM   25  C   UNL     1      -5.417   5.157 -32.964  1.00  0.00     0.046 A 
BRANCH  24  26
HETATM   26  C   UNL     1      -3.124   5.977 -33.438  1.00  0.00     0.179 A 
HETATM   27  O   UNL     1      -3.039   4.994 -34.396  1.00  0.00    -0.302 OA
HETATM   28  C   UNL     1      -1.799   5.157 -34.934  1.00  0.00     0.163 A 
HETATM   29  C   UNL     1      -1.194   6.207 -34.295  1.00  0.00     0.144 A 
HETATM   30  N   UNL     1      -2.040   6.726 -33.349  1.00  0.00    -0.234 NA
ENDBRANCH  24  26
ENDBRANCH   2  19
TORSDOF 5
ENDMDL
MODEL 8
REMARK VINA RESULT:      -8.1      2.201      9.735
REMARK  5 active torsions:
REMARK  status: ('A' for Active; 'I' for Inactive)
REMARK    1  A    between atoms: C_4  and  N_5 
REMARK       I    between atoms: N_5  and  C_6 
REMARK       I    between atoms: C_6  and  N_7 
REMARK    2  A    between atoms: N_7  and  C_8 
REMARK    3  A    between atoms: C_8  and  C_9 
REMARK       I    between atoms: C_9  and  N_10 
REMARK    4  A    between atoms: N_10  and  C_11 
REMARK    5  A    between atoms: C_16  and  C_17 
ROOT
HETATM    1  C   UNL     1      -4.039   3.990 -33.096  1.00  0.00     0.239 C 
HETATM    2  N   UNL     1      -3.787   2.912 -32.265  1.00  0.00    -0.325 N 
HETATM    3  O   UNL     1      -4.928   4.082 -33.938  1.00  0.00    -0.271 OA
HETATM    4  H   UNL     1      -2.853   2.905 -31.852  1.00  0.00     0.169 HD
ENDROOT
BRANCH   1   5
HETATM    5  C   UNL     1      -3.005   5.108 -32.929  1.00  0.00     0.227 C 
BRANCH   5   6
HETATM    6  N   UNL     1      -2.305   5.013 -31.660  1.00  0.00    -0.334 N 
HETATM    7  C   UNL     1      -1.866   6.160 -31.034  1.00  0.00     0.321 C 
HETATM    8  N   UNL     1      -1.164   5.854 -29.894  1.00  0.00    -0.309 N 
HETATM    9  O   UNL     1      -2.089   7.271 -31.498  1.00  0.00    -0.247 OA
HETATM   10  H   UNL     1      -0.808   4.910 -29.856  1.00  0.00     0.170 HD
HETATM   11  H   UNL     1      -2.608   4.272 -31.043  1.00  0.00     0.164 HD
BRANCH   8  12
HETATM   12  C   UNL     1      -0.677   6.753 -28.925  1.00  0.00     0.036 A 
HETATM   13  C   UNL     1      -1.375   7.081 -27.759  1.00  0.00     0.036 A 
HETATM   14  C   UNL     1      -0.819   7.957 -26.812  1.00  0.00    -0.060 A 
HETATM   15  C   UNL     1      -1.584   8.312 -25.572  1.00  0.00     0.048 C 
HETATM   16  C   UNL     1       0.431   8.532 -27.063  1.00  0.00     0.007 A 
HETATM   17  C   UNL     1       1.134   8.206 -28.221  1.00  0.00     0.003 A 
HETATM   18  C   UNL     1       0.587   7.311 -29.142  1.00  0.00     0.029 A 
ENDBRANCH   8  12
ENDBRANCH   5   6
ENDBRANCH   1   5
BRANCH   2  19
HETATM   19  C   UNL     1      -4.604   1.787 -32.021  1.00  0.00     0.041 A 
HETATM   20  C   UNL     1      -5.489   1.819 -30.922  1.00  0.00    -0.035 A 
HETATM   21  C   UNL     1      -5.556   2.986 -29.972  1.00  0.00     0.050 C 
HETATM   22  C   UNL     1      -6.337   0.725 -30.690  1.00  0.00     0.010 A 
HETATM   23  C   UNL     1      -6.322  -0.384 -31.536  1.00  0.00     0.016 A 
HETATM   24  C   UNL     1      -5.455  -0.430 -32.632  1.00  0.00     0.019 A 
HETATM   25  C   UNL     1      -4.600   0.663 -32.859  1.00  0.00     0.046 A 
BRANCH  24  26
HETATM   26  C   UNL     1      -5.431  -1.572 -33.544  1.00  0.00     0.179 A 
HETATM   27  O   UNL     1      -4.218  -2.195 -33.725  1.00  0.00    -0.302 OA
HETATM   28  C   UNL     1      -4.488  -3.207 -34.596  1.00  0.00     0.163 A 
HETATM   29  C   UNL     1      -5.823  -3.158 -34.903  1.00  0.00     0.144 A 
HETATM   30  N   UNL     1      -6.417  -2.121 -34.230  1.00  0.00    -0.234 NA
ENDBRANCH  24  26
ENDBRANCH   2  19
TORSDOF 5
ENDMDL
MODEL 9
REMARK VINA RESULT:      -8.0      3.618      4.832
REMARK  5 active torsions:
REMARK  status: ('A' for Active; 'I' for Inactive)
REMARK    1  A    between atoms: C_4  and  N_5 
REMARK       I    between atoms: N_5  and  C_6 
REMARK       I    between atoms: C_6  and  N_7 
REMARK    2  A    between atoms: N_7  and  C_8 
REMARK    3  A    between atoms: C_8  and  C_9 
REMARK       I    between atoms: C_9  and  N_10 
REMARK    4  A    between atoms: N_10  and  C_11 
REMARK    5  A    between atoms: C_16  and  C_17 
ROOT
HETATM    1  C   UNL     1      -5.835   2.521 -30.732  1.00  0.00     0.239 C 
HETATM    2  N   UNL     1      -4.980   2.432 -31.817  1.00  0.00    -0.325 N 
HETATM    3  O   UNL     1      -5.927   3.452 -29.939  1.00  0.00    -0.271 OA
HETATM    4  H   UNL     1      -4.846   1.485 -32.174  1.00  0.00     0.169 HD
ENDROOT
BRANCH   1   5
HETATM    5  C   UNL     1      -6.663   1.246 -30.538  1.00  0.00     0.227 C 
BRANCH   5   6
HETATM    6  N   UNL     1      -7.402   0.892 -31.736  1.00  0.00    -0.334 N 
HETATM    7  C   UNL     1      -8.686   1.362 -31.911  1.00  0.00     0.321 C 
HETATM    8  N   UNL     1      -9.238   0.855 -33.062  1.00  0.00    -0.309 N 
HETATM    9  O   UNL     1      -9.212   2.114 -31.100  1.00  0.00    -0.247 OA
HETATM   10  H   UNL     1      -8.794   0.018 -33.411  1.00  0.00     0.170 HD
HETATM   11  H   UNL     1      -6.855   0.800 -32.581  1.00  0.00     0.164 HD
BRANCH   8  12
HETATM   12  C   UNL     1     -10.472   1.205 -33.642  1.00  0.00     0.036 A 
HETATM   13  C   UNL     1     -11.643   0.459 -33.471  1.00  0.00     0.036 A 
HETATM   14  C   UNL     1     -12.853   0.881 -34.046  1.00  0.00    -0.060 A 
HETATM   15  C   UNL     1     -14.098   0.065 -33.867  1.00  0.00     0.048 C 
HETATM   16  C   UNL     1     -12.872   2.040 -34.828  1.00  0.00     0.007 A 
HETATM   17  C   UNL     1     -11.710   2.791 -35.000  1.00  0.00     0.003 A 
HETATM   18  C   UNL     1     -10.519   2.381 -34.399  1.00  0.00     0.029 A 
ENDBRANCH   8  12
ENDBRANCH   5   6
ENDBRANCH   1   5
BRANCH   2  19
HETATM   19  C   UNL     1      -4.198   3.453 -32.400  1.00  0.00     0.041 A 
HETATM   20  C   UNL     1      -4.680   4.098 -33.559  1.00  0.00    -0.035 A 
HETATM   21  C   UNL     1      -5.971   3.701 -34.226  1.00  0.00     0.050 C 
HETATM   22  C   UNL     1      -3.934   5.143 -34.126  1.00  0.00     0.010 A 
HETATM   23  C   UNL     1      -2.731   5.555 -33.552  1.00  0.00     0.016 A 
HETATM   24  C   UNL     1      -2.242   4.931 -32.401  1.00  0.00     0.019 A 
HETATM   25  C   UNL     1      -2.986   3.880 -31.838  1.00  0.00     0.046 A 
BRANCH  24  26
HETATM   26  C   UNL     1      -0.993   5.355 -31.769  1.00  0.00     0.179 A 
HETATM   27  O   UNL     1      -0.755   6.709 -31.712  1.00  0.00    -0.302 OA
HETATM   28  C   UNL     1       0.445   6.811 -31.078  1.00  0.00     0.163 A 
HETATM   29  C   UNL     1       0.879   5.546 -30.784  1.00  0.00     0.144 A 
HETATM   30  N   UNL     1      -0.039   4.626 -31.221  1.00  0.00    -0.234 NA
ENDBRANCH  24  26
ENDBRANCH   2  19
TORSDOF 5
ENDMDL
MODEL 10
REMARK VINA RESULT:      -7.9      5.838      8.584
REMARK  5 active torsions:
REMARK  status: ('A' for Active; 'I' for Inactive)
REMARK    1  A    between atoms: C_4  and  N_5 
REMARK       I    between atoms: N_5  and  C_6 
REMARK       I    between atoms: C_6  and  N_7 
REMARK    2  A    between atoms: N_7  and  C_8 
REMARK    3  A    between atoms: C_8  and  C_9 
REMARK       I    between atoms: C_9  and  N_10 
REMARK    4  A    between atoms: N_10  and  C_11 
REMARK    5  A    between atoms: C_16  and  C_17 
ROOT
HETATM    1  C   UNL     1      -9.304   1.112 -33.161  1.00  0.00     0.239 C 
HETATM    2  N   UNL     1      -8.259   0.623 -33.926  1.00  0.00    -0.325 N 
HETATM    3  O   UNL     1      -9.304   1.309 -31.950  1.00  0.00    -0.271 OA
HETATM    4  H   UNL     1      -8.536   0.261 -34.839  1.00  0.00     0.169 HD
ENDROOT
BRANCH   1   5
HETATM    5  C   UNL     1     -10.576   1.331 -33.987  1.00  0.00     0.227 C 
BRANCH   5   6
HETATM    6  N   UNL     1     -11.774   1.253 -33.169  1.00  0.00    -0.334 N 
HETATM    7  C   UNL     1     -12.693   2.280 -33.202  1.00  0.00     0.321 C 
HETATM    8  N   UNL     1     -13.708   2.054 -32.306  1.00  0.00    -0.309 N 
HETATM    9  O   UNL     1     -12.551   3.246 -33.942  1.00  0.00    -0.247 OA
HETATM   10  H   UNL     1     -13.487   1.397 -31.571  1.00  0.00     0.170 HD
HETATM   11  H   UNL     1     -12.161   0.328 -33.041  1.00  0.00     0.164 HD
BRANCH   8  12
HETATM   12  C   UNL     1     -14.889   2.805 -32.147  1.00  0.00     0.036 A 
HETATM   13  C   UNL     1     -14.900   4.151 -31.769  1.00  0.00     0.036 A 
HETATM   14  C   UNL     1     -16.110   4.856 -31.663  1.00  0.00    -0.060 A 
HETATM   15  C   UNL     1     -16.109   6.296 -31.244  1.00  0.00     0.048 C 
HETATM   16  C   UNL     1     -17.315   4.189 -31.904  1.00  0.00     0.007 A 
HETATM   17  C   UNL     1     -17.311   2.848 -32.285  1.00  0.00     0.003 A 
HETATM   18  C   UNL     1     -16.103   2.163 -32.417  1.00  0.00     0.029 A 
ENDBRANCH   8  12
ENDBRANCH   5   6
ENDBRANCH   1   5
BRANCH   2  19
HETATM   19  C   UNL     1      -6.906   0.461 -33.554  1.00  0.00     0.041 A 
HETATM   20  C   UNL     1      -6.321  -0.818 -33.669  1.00  0.00    -0.035 A 
HETATM   21  C   UNL     1      -7.100  -2.025 -34.123  1.00  0.00     0.050 C 
HETATM   22  C   UNL     1      -4.967  -0.986 -33.343  1.00  0.00     0.010 A 
HETATM   23  C   UNL     1      -4.194   0.094 -32.918  1.00  0.00     0.016 A 
HETATM   24  C   UNL     1      -4.756   1.370 -32.804  1.00  0.00     0.019 A 
HETATM   25  C   UNL     1      -6.115   1.536 -33.124  1.00  0.00     0.046 A 
BRANCH  24  26
HETATM   26  C   UNL     1      -3.964   2.523 -32.378  1.00  0.00     0.179 A 
HETATM   27  O   UNL     1      -4.235   3.722 -32.993  1.00  0.00    -0.302 OA
HETATM   28  C   UNL     1      -3.377   4.601 -32.406  1.00  0.00     0.163 A 
HETATM   29  C   UNL     1      -2.635   3.915 -31.481  1.00  0.00     0.144 A 
HETATM   30  N   UNL     1      -3.014   2.598 -31.464  1.00  0.00    -0.234 NA
ENDBRANCH  24  26
ENDBRANCH   2  19
TORSDOF 5
ENDMDL
