MODEL 1
REMARK VINA RESULT:      -9.3      0.000      0.000
REMARK  5 active torsions:
REMARK  status: ('A' for Active; 'I' for Inactive)
REMARK    1  A    between atoms: C_7  and  N_8 
REMARK    2  A    between atoms: N_8  and  C_9 
REMARK    3  A    between atoms: C_11  and  C_12 
REMARK       I    between atoms: C_12  and  N_13 
REMARK    4  A    between atoms: N_13  and  C_14 
REMARK    5  A    between atoms: C_14  and  C_15 
ROOT
HETATM    1  C   UNL     1      -6.712   0.010 -32.583  1.00  0.00     0.142 A 
HETATM    2  N   UNL     1      -5.743   0.824 -32.079  1.00  0.00    -0.225 NA
HETATM    3  C   UNL     1      -4.430   0.626 -32.404  1.00  0.00     0.129 A 
HETATM    4  C   UNL     1      -3.951  -0.374 -33.228  1.00  0.00     0.075 A 
HETATM    5  C   UNL     1      -4.948  -1.200 -33.707  1.00  0.00     0.091 A 
HETATM    6  C   UNL     1      -6.299  -1.052 -33.421  1.00  0.00     0.046 A 
HETATM    7  O   UNL     1      -4.746  -2.270 -34.524  1.00  0.00    -0.322 OA
HETATM    8  C   UNL     1      -5.960  -2.820 -34.771  1.00  0.00     0.143 A 
HETATM    9  C   UNL     1      -6.947  -2.113 -34.123  1.00  0.00     0.042 A 
ENDROOT
BRANCH   3  10
HETATM   10  C   UNL     1      -3.453   1.590 -31.800  1.00  0.00     0.270 C 
HETATM   11  N   UNL     1      -3.539   2.872 -32.287  1.00  0.00    -0.351 N 
HETATM   12  H   UNL     1      -4.197   3.036 -33.042  1.00  0.00     0.163 HD
HETATM   13  O   UNL     1      -2.656   1.238 -30.939  1.00  0.00    -0.266 OA
BRANCH  11  14
HETATM   14  C   UNL     1      -2.619   3.908 -31.892  1.00  0.00     0.165 C 
BRANCH  14  15
HETATM   15  C   UNL     1      -2.498   4.885 -33.005  1.00  0.00     0.002 A 
HETATM   16  C   UNL     1      -1.605   5.986 -33.129  1.00  0.00     0.060 A 
HETATM   17  C   UNL     1      -0.562   6.448 -32.179  1.00  0.00     0.073 C 
HETATM   18  N   UNL     1      -1.798   6.657 -34.272  1.00  0.00    -0.180 NA
HETATM   19  N   UNL     1      -2.804   6.006 -34.870  1.00  0.00    -0.288 N 
HETATM   20  H   UNL     1      -3.135   6.348 -35.767  1.00  0.00     0.188 HD
HETATM   21  C   UNL     1      -3.259   4.941 -34.156  1.00  0.00     0.120 A 
ENDBRANCH  14  15
ENDBRANCH  11  14
ENDBRANCH   3  10
BRANCH   1  22
HETATM   22  N   UNL     1      -8.069   0.191 -32.278  1.00  0.00    -0.340 N 
HETATM   23  H   UNL     1      -8.341  -0.252 -31.411  1.00  0.00     0.167 HD
BRANCH  22  24
HETATM   24  C   UNL     1      -9.132   0.806 -32.959  1.00  0.00     0.034 A 
HETATM   25  C   UNL     1      -8.867   1.974 -33.691  1.00  0.00     0.031 A 
HETATM   26  C   UNL     1      -9.869   2.616 -34.423  1.00  0.00     0.022 A 
HETATM   27  C   UNL     1     -11.163   2.093 -34.446  1.00  0.00     0.017 A 
HETATM   28  C   UNL     1     -11.464   0.929 -33.730  1.00  0.00    -0.043 A 
HETATM   29 BR   UNL     1     -12.465   3.013 -35.477  1.00  0.00    -0.051 Br
HETATM   30  C   UNL     1     -12.837   0.313 -33.732  1.00  0.00     0.049 C 
HETATM   31  C   UNL     1     -10.437   0.304 -32.995  1.00  0.00     0.037 A 
ENDBRANCH  22  24
ENDBRANCH   1  22
TORSDOF 5
ENDMDL
MODEL 2
REMARK VINA RESULT:      -9.1      3.149      5.002
REMARK  5 active torsions:
REMARK  status: ('A' for Active; 'I' for Inactive)
REMARK    1  A    between atoms: C_7  and  N_8 
REMARK    2  A    between atoms: N_8  and  C_9 
REMARK    3  A    between atoms: C_11  and  C_12 
REMARK       I    between atoms: C_12  and  N_13 
REMARK    4  A    between atoms: N_13  and  C_14 
REMARK    5  A    between atoms: C_14  and  C_15 
ROOT
HETATM    1  C   UNL     1      -6.876   1.548 -33.662  1.00  0.00     0.142 A 
HETATM    2  N   UNL     1      -5.909   2.332 -33.108  1.00  0.00    -0.225 NA
HETATM    3  C   UNL     1      -6.236   3.314 -32.216  1.00  0.00     0.129 A 
HETATM    4  C   UNL     1      -7.516   3.622 -31.798  1.00  0.00     0.075 A 
HETATM    5  C   UNL     1      -8.480   2.833 -32.391  1.00  0.00     0.091 A 
HETATM    6  C   UNL     1      -8.217   1.815 -33.299  1.00  0.00     0.046 A 
HETATM    7  O   UNL     1      -9.819   2.939 -32.168  1.00  0.00    -0.322 OA
HETATM    8  C   UNL     1     -10.428   1.996 -32.928  1.00  0.00     0.143 A 
HETATM    9  C   UNL     1      -9.495   1.277 -33.639  1.00  0.00     0.042 A 
ENDROOT
BRANCH   3  10
HETATM   10  C   UNL     1      -5.089   4.104 -31.662  1.00  0.00     0.270 C 
HETATM   11  N   UNL     1      -3.889   3.895 -32.298  1.00  0.00    -0.351 N 
HETATM   12  H   UNL     1      -3.871   3.191 -33.030  1.00  0.00     0.163 HD
HETATM   13  O   UNL     1      -5.237   4.873 -30.719  1.00  0.00    -0.266 OA
BRANCH  11  14
HETATM   14  C   UNL     1      -2.661   4.496 -31.843  1.00  0.00     0.165 C 
BRANCH  14  15
HETATM   15  C   UNL     1      -2.286   5.580 -32.787  1.00  0.00     0.002 A 
HETATM   16  C   UNL     1      -1.199   6.495 -32.704  1.00  0.00     0.060 A 
HETATM   17  C   UNL     1      -0.157   6.607 -31.652  1.00  0.00     0.073 C 
HETATM   18  N   UNL     1      -1.186   7.347 -33.737  1.00  0.00    -0.180 NA
HETATM   19  N   UNL     1      -2.250   6.994 -34.469  1.00  0.00    -0.288 N 
HETATM   20  H   UNL     1      -2.449   7.518 -35.315  1.00  0.00     0.188 HD
HETATM   21  C   UNL     1      -2.941   5.945 -33.947  1.00  0.00     0.120 A 
ENDBRANCH  14  15
ENDBRANCH  11  14
ENDBRANCH   3  10
BRANCH   1  22
HETATM   22  N   UNL     1      -6.574   0.526 -34.574  1.00  0.00    -0.340 N 
HETATM   23  H   UNL     1      -6.907   0.718 -35.508  1.00  0.00     0.167 HD
BRANCH  22  24
HETATM   24  C   UNL     1      -5.960  -0.731 -34.437  1.00  0.00     0.034 A 
HETATM   25  C   UNL     1      -4.733  -0.803 -33.761  1.00  0.00     0.031 A 
HETATM   26  C   UNL     1      -4.087  -2.025 -33.556  1.00  0.00     0.022 A 
HETATM   27  C   UNL     1      -4.665  -3.208 -34.017  1.00  0.00     0.017 A 
HETATM   28  C   UNL     1      -5.889  -3.176 -34.694  1.00  0.00    -0.043 A 
HETATM   29 BR   UNL     1      -3.733  -4.828 -33.686  1.00  0.00    -0.051 Br
HETATM   30  C   UNL     1      -6.565  -4.421 -35.199  1.00  0.00     0.049 C 
HETATM   31  C   UNL     1      -6.518  -1.930 -34.893  1.00  0.00     0.037 A 
ENDBRANCH  22  24
ENDBRANCH   1  22
TORSDOF 5
ENDMDL
MODEL 3
REMARK VINA RESULT:      -8.9      3.444      5.524
REMARK  5 active torsions:
REMARK  status: ('A' for Active; 'I' for Inactive)
REMARK    1  A    between atoms: C_7  and  N_8 
REMARK    2  A    between atoms: N_8  and  C_9 
REMARK    3  A    between atoms: C_11  and  C_12 
REMARK       I    between atoms: C_12  and  N_13 
REMARK    4  A    between atoms: N_13  and  C_14 
REMARK    5  A    between atoms: C_14  and  C_15 
ROOT
HETATM    1  C   UNL     1      -7.306   1.520 -34.406  1.00  0.00     0.142 A 
HETATM    2  N   UNL     1      -6.332   2.472 -34.447  1.00  0.00    -0.225 NA
HETATM    3  C   UNL     1      -6.559   3.721 -33.941  1.00  0.00     0.129 A 
HETATM    4  C   UNL     1      -7.741   4.152 -33.369  1.00  0.00     0.075 A 
HETATM    5  C   UNL     1      -8.720   3.179 -33.363  1.00  0.00     0.091 A 
HETATM    6  C   UNL     1      -8.555   1.890 -33.853  1.00  0.00     0.046 A 
HETATM    7  O   UNL     1      -9.980   3.347 -32.874  1.00  0.00    -0.322 OA
HETATM    8  C   UNL     1     -10.635   2.173 -33.045  1.00  0.00     0.143 A 
HETATM    9  C   UNL     1      -9.810   1.245 -33.637  1.00  0.00     0.042 A 
ENDROOT
BRANCH   3  10
HETATM   10  C   UNL     1      -5.411   4.681 -34.028  1.00  0.00     0.270 C 
HETATM   11  N   UNL     1      -5.119   5.334 -32.855  1.00  0.00    -0.351 N 
HETATM   12  H   UNL     1      -5.734   5.161 -32.066  1.00  0.00     0.163 HD
HETATM   13  O   UNL     1      -4.795   4.849 -35.074  1.00  0.00    -0.266 OA
BRANCH  11  14
HETATM   14  C   UNL     1      -4.111   6.361 -32.775  1.00  0.00     0.165 C 
BRANCH  14  15
HETATM   15  C   UNL     1      -2.880   5.771 -32.189  1.00  0.00     0.002 A 
HETATM   16  C   UNL     1      -1.704   5.323 -32.854  1.00  0.00     0.060 A 
HETATM   17  C   UNL     1      -1.401   5.326 -34.307  1.00  0.00     0.073 C 
HETATM   18  N   UNL     1      -0.802   4.834 -31.993  1.00  0.00    -0.180 NA
HETATM   19  N   UNL     1      -1.389   4.955 -30.796  1.00  0.00    -0.288 N 
HETATM   20  H   UNL     1      -0.883   4.634 -29.976  1.00  0.00     0.188 HD
HETATM   21  C   UNL     1      -2.630   5.509 -30.856  1.00  0.00     0.120 A 
ENDBRANCH  14  15
ENDBRANCH  11  14
ENDBRANCH   3  10
BRANCH   1  22
HETATM   22  N   UNL     1      -7.104   0.226 -34.907  1.00  0.00    -0.340 N 
HETATM   23  H   UNL     1      -7.711   0.003 -35.684  1.00  0.00     0.167 HD
BRANCH  22  24
HETATM   24  C   UNL     1      -6.276  -0.837 -34.510  1.00  0.00     0.034 A 
HETATM   25  C   UNL     1      -6.451  -2.084 -35.129  1.00  0.00     0.031 A 
HETATM   26  C   UNL     1      -5.637  -3.174 -34.810  1.00  0.00     0.022 A 
HETATM   27  C   UNL     1      -4.618  -3.034 -33.866  1.00  0.00     0.017 A 
HETATM   28  C   UNL     1      -4.413  -1.805 -33.229  1.00  0.00    -0.043 A 
HETATM   29 BR   UNL     1      -3.545  -4.557 -33.499  1.00  0.00    -0.051 Br
HETATM   30  C   UNL     1      -3.321  -1.594 -32.216  1.00  0.00     0.049 C 
HETATM   31  C   UNL     1      -5.252  -0.723 -33.565  1.00  0.00     0.037 A 
ENDBRANCH  22  24
ENDBRANCH   1  22
TORSDOF 5
ENDMDL
MODEL 4
REMARK VINA RESULT:      -8.8      3.634      5.825
REMARK  5 active torsions:
REMARK  status: ('A' for Active; 'I' for Inactive)
REMARK    1  A    between atoms: C_7  and  N_8 
REMARK    2  A    between atoms: N_8  and  C_9 
REMARK    3  A    between atoms: C_11  and  C_12 
REMARK       I    between atoms: C_12  and  N_13 
REMARK    4  A    between atoms: N_13  and  C_14 
REMARK    5  A    between atoms: C_14  and  C_15 
ROOT
HETATM    1  C   UNL     1      -5.002   2.625 -32.523  1.00  0.00     0.142 A 
HETATM    2  N   UNL     1      -3.850   3.349 -32.593  1.00  0.00    -0.225 NA
HETATM    3  C   UNL     1      -3.839   4.585 -33.177  1.00  0.00     0.129 A 
HETATM    4  C   UNL     1      -4.931   5.211 -33.747  1.00  0.00     0.075 A 
HETATM    5  C   UNL     1      -6.080   4.448 -33.686  1.00  0.00     0.091 A 
HETATM    6  C   UNL     1      -6.162   3.190 -33.103  1.00  0.00     0.046 A 
HETATM    7  O   UNL     1      -7.289   4.822 -34.187  1.00  0.00    -0.322 OA
HETATM    8  C   UNL     1      -8.158   3.813 -33.933  1.00  0.00     0.143 A 
HETATM    9  C   UNL     1      -7.522   2.789 -33.268  1.00  0.00     0.042 A 
ENDROOT
BRANCH   3  10
HETATM   10  C   UNL     1      -2.519   5.294 -33.185  1.00  0.00     0.270 C 
HETATM   11  N   UNL     1      -1.617   4.836 -32.254  1.00  0.00    -0.351 N 
HETATM   12  H   UNL     1      -1.939   4.118 -31.614  1.00  0.00     0.163 HD
HETATM   13  O   UNL     1      -2.285   6.204 -33.972  1.00  0.00    -0.266 OA
BRANCH  11  14
HETATM   14  C   UNL     1      -0.334   5.460 -32.055  1.00  0.00     0.165 C 
BRANCH  14  15
HETATM   15  C   UNL     1      -0.100   5.608 -30.595  1.00  0.00     0.002 A 
HETATM   16  C   UNL     1      -0.617   6.594 -29.707  1.00  0.00     0.060 A 
HETATM   17  C   UNL     1      -1.521   7.732 -30.007  1.00  0.00     0.073 C 
HETATM   18  N   UNL     1      -0.173   6.417 -28.455  1.00  0.00    -0.180 NA
HETATM   19  N   UNL     1       0.621   5.342 -28.537  1.00  0.00    -0.288 N 
HETATM   20  H   UNL     1       1.084   5.020 -27.692  1.00  0.00     0.188 HD
HETATM   21  C   UNL     1       0.700   4.821 -29.791  1.00  0.00     0.120 A 
ENDBRANCH  14  15
ENDBRANCH  11  14
ENDBRANCH   3  10
BRANCH   1  22
HETATM   22  N   UNL     1      -5.050   1.359 -31.922  1.00  0.00    -0.340 N 
HETATM   23  H   UNL     1      -5.313   1.393 -30.947  1.00  0.00     0.167 HD
BRANCH  22  24
HETATM   24  C   UNL     1      -4.748   0.066 -32.383  1.00  0.00     0.034 A 
HETATM   25  C   UNL     1      -3.721  -0.645 -31.745  1.00  0.00     0.031 A 
HETATM   26  C   UNL     1      -3.394  -1.949 -32.128  1.00  0.00     0.022 A 
HETATM   27  C   UNL     1      -4.101  -2.574 -33.156  1.00  0.00     0.017 A 
HETATM   28  C   UNL     1      -5.132  -1.896 -33.815  1.00  0.00    -0.043 A 
HETATM   29 BR   UNL     1      -3.608  -4.351 -33.607  1.00  0.00    -0.051 Br
HETATM   30  C   UNL     1      -5.936  -2.526 -34.919  1.00  0.00     0.049 C 
HETATM   31  C   UNL     1      -5.438  -0.580 -33.414  1.00  0.00     0.037 A 
ENDBRANCH  22  24
ENDBRANCH   1  22
TORSDOF 5
ENDMDL
MODEL 5
REMARK VINA RESULT:      -8.7      3.190      7.709
REMARK  5 active torsions:
REMARK  status: ('A' for Active; 'I' for Inactive)
REMARK    1  A    between atoms: C_7  and  N_8 
REMARK    2  A    between atoms: N_8  and  C_9 
REMARK    3  A    between atoms: C_11  and  C_12 
REMARK       I    between atoms: C_12  and  N_13 
REMARK    4  A    between atoms: N_13  and  C_14 
REMARK    5  A    between atoms: C_14  and  C_15 
ROOT
HETATM    1  C   UNL     1      -5.632   1.223 -32.179  1.00  0.00     0.142 A 
HETATM    2  N   UNL     1      -6.982   1.401 -32.226  1.00  0.00    -0.225 NA
HETATM    3  C   UNL     1      -7.789   0.460 -32.801  1.00  0.00     0.129 A 
HETATM    4  C   UNL     1      -7.358  -0.716 -33.384  1.00  0.00     0.075 A 
HETATM    5  C   UNL     1      -5.986  -0.863 -33.348  1.00  0.00     0.091 A 
HETATM    6  C   UNL     1      -5.110   0.050 -32.774  1.00  0.00     0.046 A 
HETATM    7  O   UNL     1      -5.303  -1.920 -33.866  1.00  0.00    -0.322 OA
HETATM    8  C   UNL     1      -3.985  -1.699 -33.632  1.00  0.00     0.143 A 
HETATM    9  C   UNL     1      -3.810  -0.509 -32.965  1.00  0.00     0.042 A 
ENDROOT
BRANCH   3  10
HETATM   10  C   UNL     1      -9.258   0.757 -32.783  1.00  0.00     0.270 C 
HETATM   11  N   UNL     1      -9.574   2.089 -32.900  1.00  0.00    -0.351 N 
HETATM   12  H   UNL     1      -8.802   2.747 -32.923  1.00  0.00     0.163 HD
HETATM   13  O   UNL     1     -10.091  -0.136 -32.676  1.00  0.00    -0.266 OA
BRANCH  11  14
HETATM   14  C   UNL     1     -10.930   2.569 -32.807  1.00  0.00     0.165 C 
BRANCH  14  15
HETATM   15  C   UNL     1     -11.507   2.628 -34.174  1.00  0.00     0.002 A 
HETATM   16  C   UNL     1     -12.478   1.773 -34.768  1.00  0.00     0.060 A 
HETATM   17  C   UNL     1     -13.166   0.598 -34.177  1.00  0.00     0.073 C 
HETATM   18  N   UNL     1     -12.745   2.125 -36.032  1.00  0.00    -0.180 NA
HETATM   19  N   UNL     1     -11.954   3.183 -36.253  1.00  0.00    -0.288 N 
HETATM   20  H   UNL     1     -11.981   3.623 -37.168  1.00  0.00     0.188 HD
HETATM   21  C   UNL     1     -11.194   3.524 -35.178  1.00  0.00     0.120 A 
ENDBRANCH  14  15
ENDBRANCH  11  14
ENDBRANCH   3  10
BRANCH   1  22
HETATM   22  N   UNL     1      -4.777   2.163 -31.588  1.00  0.00    -0.340 N 
HETATM   23  H   UNL     1      -4.722   2.072 -30.583  1.00  0.00     0.167 HD
BRANCH  22  24
HETATM   24  C   UNL     1      -4.033   3.239 -32.101  1.00  0.00     0.034 A 
HETATM   25  C   UNL     1      -4.597   4.009 -33.129  1.00  0.00     0.031 A 
HETATM   26  C   UNL     1      -3.928   5.116 -33.660  1.00  0.00     0.022 A 
HETATM   27  C   UNL     1      -2.678   5.482 -33.161  1.00  0.00     0.017 A 
HETATM   28  C   UNL     1      -2.084   4.740 -32.134  1.00  0.00    -0.043 A 
HETATM   29 BR   UNL     1      -1.841   7.007 -33.922  1.00  0.00    -0.051 Br
HETATM   30  C   UNL     1      -0.746   5.099 -31.548  1.00  0.00     0.049 C 
HETATM   31  C   UNL     1      -2.777   3.624 -31.621  1.00  0.00     0.037 A 
ENDBRANCH  22  24
ENDBRANCH   1  22
TORSDOF 5
ENDMDL
MODEL 6
REMARK VINA RESULT:      -8.7      4.358      8.672
REMARK  5 active torsions:
REMARK  status: ('A' for Active; 'I' for Inactive)
REMARK    1  A    between atoms: C_7  and  N_8 
REMARK    2  A    between atoms: N_8  and  C_9 
REMARK    3  A    between atoms: C_11  and  C_12 
REMARK       I    between atoms: C_12  and  N_13 
REMARK    4  A    between atoms: N_13  and  C_14 
REMARK    5  A    between atoms: C_14  and  C_15 
ROOT
HETATM    1  C   UNL     1      -7.281   1.343 -33.370  1.00  0.00     0.142 A 
HETATM    2  N   UNL     1      -8.520   1.450 -33.927  1.00  0.00    -0.225 NA
HETATM    3  C   UNL     1      -9.541   2.048 -33.241  1.00  0.00     0.129 A 
HETATM    4  C   UNL     1      -9.449   2.576 -31.968  1.00  0.00     0.075 A 
HETATM    5  C   UNL     1      -8.192   2.433 -31.416  1.00  0.00     0.091 A 
HETATM    6  C   UNL     1      -7.111   1.843 -32.058  1.00  0.00     0.046 A 
HETATM    7  O   UNL     1      -7.838   2.851 -30.170  1.00  0.00    -0.322 OA
HETATM    8  C   UNL     1      -6.531   2.535 -29.998  1.00  0.00     0.143 A 
HETATM    9  C   UNL     1      -6.035   1.918 -31.123  1.00  0.00     0.042 A 
ENDROOT
BRANCH   3  10
HETATM   10  C   UNL     1     -10.856   2.121 -33.957  1.00  0.00     0.270 C 
HETATM   11  N   UNL     1     -11.555   3.286 -33.754  1.00  0.00    -0.351 N 
HETATM   12  H   UNL     1     -11.159   3.954 -33.100  1.00  0.00     0.163 HD
HETATM   13  O   UNL     1     -11.251   1.202 -34.665  1.00  0.00    -0.266 OA
BRANCH  11  14
HETATM   14  C   UNL     1     -12.878   3.492 -34.285  1.00  0.00     0.165 C 
BRANCH  14  15
HETATM   15  C   UNL     1     -13.870   3.031 -33.281  1.00  0.00     0.002 A 
HETATM   16  C   UNL     1     -14.669   1.853 -33.294  1.00  0.00     0.060 A 
HETATM   17  C   UNL     1     -14.721   0.778 -34.316  1.00  0.00     0.073 C 
HETATM   18  N   UNL     1     -15.464   1.779 -32.218  1.00  0.00    -0.180 NA
HETATM   19  N   UNL     1     -15.190   2.894 -31.529  1.00  0.00    -0.288 N 
HETATM   20  H   UNL     1     -15.691   3.060 -30.661  1.00  0.00     0.188 HD
HETATM   21  C   UNL     1     -14.246   3.676 -32.118  1.00  0.00     0.120 A 
ENDBRANCH  14  15
ENDBRANCH  11  14
ENDBRANCH   3  10
BRANCH   1  22
HETATM   22  N   UNL     1      -6.210   0.744 -34.049  1.00  0.00    -0.340 N 
HETATM   23  H   UNL     1      -5.749   1.372 -34.693  1.00  0.00     0.167 HD
BRANCH  22  24
HETATM   24  C   UNL     1      -5.690  -0.561 -34.060  1.00  0.00     0.034 A 
HETATM   25  C   UNL     1      -4.458  -0.793 -33.430  1.00  0.00     0.031 A 
HETATM   26  C   UNL     1      -3.902  -2.074 -33.370  1.00  0.00     0.022 A 
HETATM   27  C   UNL     1      -4.578  -3.157 -33.934  1.00  0.00     0.017 A 
HETATM   28  C   UNL     1      -5.810  -2.965 -34.569  1.00  0.00    -0.043 A 
HETATM   29 BR   UNL     1      -3.765  -4.867 -33.797  1.00  0.00    -0.051 Br
HETATM   30  C   UNL     1      -6.588  -4.097 -35.180  1.00  0.00     0.049 C 
HETATM   31  C   UNL     1      -6.346  -1.662 -34.621  1.00  0.00     0.037 A 
ENDBRANCH  22  24
ENDBRANCH   1  22
TORSDOF 5
ENDMDL
MODEL 7
REMARK VINA RESULT:      -8.6      3.832      5.737
REMARK  5 active torsions:
REMARK  status: ('A' for Active; 'I' for Inactive)
REMARK    1  A    between atoms: C_7  and  N_8 
REMARK    2  A    between atoms: N_8  and  C_9 
REMARK    3  A    between atoms: C_11  and  C_12 
REMARK       I    between atoms: C_12  and  N_13 
REMARK    4  A    between atoms: N_13  and  C_14 
REMARK    5  A    between atoms: C_14  and  C_15 
ROOT
HETATM    1  C   UNL     1      -5.479   2.082 -32.533  1.00  0.00     0.142 A 
HETATM    2  N   UNL     1      -4.263   2.667 -32.715  1.00  0.00    -0.225 NA
HETATM    3  C   UNL     1      -3.855   3.692 -31.908  1.00  0.00     0.129 A 
HETATM    4  C   UNL     1      -4.591   4.238 -30.873  1.00  0.00     0.075 A 
HETATM    5  C   UNL     1      -5.829   3.646 -30.724  1.00  0.00     0.091 A 
HETATM    6  C   UNL     1      -6.302   2.599 -31.504  1.00  0.00     0.046 A 
HETATM    7  O   UNL     1      -6.755   4.005 -29.793  1.00  0.00    -0.322 OA
HETATM    8  C   UNL     1      -7.829   3.196 -29.965  1.00  0.00     0.143 A 
HETATM    9  C   UNL     1      -7.606   2.314 -30.996  1.00  0.00     0.042 A 
ENDROOT
BRANCH   3  10
HETATM   10  C   UNL     1      -2.493   4.250 -32.193  1.00  0.00     0.270 C 
HETATM   11  N   UNL     1      -1.772   4.600 -31.077  1.00  0.00    -0.351 N 
HETATM   12  H   UNL     1      -2.238   4.513 -30.180  1.00  0.00     0.163 HD
HETATM   13  O   UNL     1      -2.078   4.369 -33.340  1.00  0.00    -0.266 OA
BRANCH  11  14
HETATM   14  C   UNL     1      -0.483   5.238 -31.163  1.00  0.00     0.165 C 
BRANCH  14  15
HETATM   15  C   UNL     1      -0.229   5.966 -29.894  1.00  0.00     0.002 A 
HETATM   16  C   UNL     1      -0.735   7.229 -29.475  1.00  0.00     0.060 A 
HETATM   17  C   UNL     1      -1.647   8.150 -30.199  1.00  0.00     0.073 C 
HETATM   18  N   UNL     1      -0.273   7.575 -28.267  1.00  0.00    -0.180 NA
HETATM   19  N   UNL     1       0.524   6.558 -27.916  1.00  0.00    -0.288 N 
HETATM   20  H   UNL     1       1.000   6.605 -27.020  1.00  0.00     0.188 HD
HETATM   21  C   UNL     1       0.586   5.571 -28.850  1.00  0.00     0.120 A 
ENDBRANCH  14  15
ENDBRANCH  11  14
ENDBRANCH   3  10
BRANCH   1  22
HETATM   22  N   UNL     1      -5.924   1.023 -33.337  1.00  0.00    -0.340 N 
HETATM   23  H   UNL     1      -6.769   1.240 -33.846  1.00  0.00     0.167 HD
BRANCH  22  24
HETATM   24  C   UNL     1      -5.468  -0.292 -33.528  1.00  0.00     0.034 A 
HETATM   25  C   UNL     1      -4.246  -0.665 -32.950  1.00  0.00     0.031 A 
HETATM   26  C   UNL     1      -3.752  -1.967 -33.069  1.00  0.00     0.022 A 
HETATM   27  C   UNL     1      -4.482  -2.931 -33.765  1.00  0.00     0.017 A 
HETATM   28  C   UNL     1      -5.706  -2.597 -34.354  1.00  0.00    -0.043 A 
HETATM   29 BR   UNL     1      -3.752  -4.680 -33.869  1.00  0.00    -0.051 Br
HETATM   30  C   UNL     1      -6.542  -3.599 -35.103  1.00  0.00     0.049 C 
HETATM   31  C   UNL     1      -6.179  -1.275 -34.225  1.00  0.00     0.037 A 
ENDBRANCH  22  24
ENDBRANCH   1  22
TORSDOF 5
ENDMDL
MODEL 8
REMARK VINA RESULT:      -8.6      4.256      6.521
REMARK  5 active torsions:
REMARK  status: ('A' for Active; 'I' for Inactive)
REMARK    1  A    between atoms: C_7  and  N_8 
REMARK    2  A    between atoms: N_8  and  C_9 
REMARK    3  A    between atoms: C_11  and  C_12 
REMARK       I    between atoms: C_12  and  N_13 
REMARK    4  A    between atoms: N_13  and  C_14 
REMARK    5  A    between atoms: C_14  and  C_15 
ROOT
HETATM    1  C   UNL     1      -3.669   2.930 -31.790  1.00  0.00     0.142 A 
HETATM    2  N   UNL     1      -2.490   3.364 -31.265  1.00  0.00    -0.225 NA
HETATM    3  C   UNL     1      -1.971   4.575 -31.628  1.00  0.00     0.129 A 
HETATM    4  C   UNL     1      -2.540   5.453 -32.530  1.00  0.00     0.075 A 
HETATM    5  C   UNL     1      -3.721   4.980 -33.068  1.00  0.00     0.091 A 
HETATM    6  C   UNL     1      -4.306   3.764 -32.739  1.00  0.00     0.046 A 
HETATM    7  O   UNL     1      -4.474   5.639 -33.991  1.00  0.00    -0.322 OA
HETATM    8  C   UNL     1      -5.546   4.856 -34.265  1.00  0.00     0.143 A 
HETATM    9  C   UNL     1      -5.496   3.698 -33.525  1.00  0.00     0.042 A 
ENDROOT
BRANCH   3  10
HETATM   10  C   UNL     1      -0.675   4.955 -30.976  1.00  0.00     0.270 C 
HETATM   11  N   UNL     1      -0.781   5.309 -29.653  1.00  0.00    -0.351 N 
HETATM   12  H   UNL     1      -1.716   5.344 -29.258  1.00  0.00     0.163 HD
HETATM   13  O   UNL     1       0.382   4.938 -31.596  1.00  0.00    -0.266 OA
BRANCH  11  14
HETATM   14  C   UNL     1       0.343   5.792 -28.892  1.00  0.00     0.165 C 
BRANCH  14  15
HETATM   15  C   UNL     1      -0.147   6.781 -27.899  1.00  0.00     0.002 A 
HETATM   16  C   UNL     1      -0.879   7.981 -28.123  1.00  0.00     0.060 A 
HETATM   17  C   UNL     1      -1.343   8.558 -29.409  1.00  0.00     0.073 C 
HETATM   18  N   UNL     1      -1.134   8.630 -26.980  1.00  0.00    -0.180 NA
HETATM   19  N   UNL     1      -0.569   7.867 -26.035  1.00  0.00    -0.288 N 
HETATM   20  H   UNL     1      -0.630   8.172 -25.068  1.00  0.00     0.188 HD
HETATM   21  C   UNL     1       0.034   6.752 -26.529  1.00  0.00     0.120 A 
ENDBRANCH  14  15
ENDBRANCH  11  14
ENDBRANCH   3  10
BRANCH   1  22
HETATM   22  N   UNL     1      -4.234   1.697 -31.433  1.00  0.00    -0.340 N 
HETATM   23  H   UNL     1      -4.768   1.740 -30.576  1.00  0.00     0.167 HD
BRANCH  22  24
HETATM   24  C   UNL     1      -4.157   0.409 -31.989  1.00  0.00     0.034 A 
HETATM   25  C   UNL     1      -3.196  -0.479 -31.484  1.00  0.00     0.031 A 
HETATM   26  C   UNL     1      -3.090  -1.787 -31.965  1.00  0.00     0.022 A 
HETATM   27  C   UNL     1      -3.956  -2.238 -32.960  1.00  0.00     0.017 A 
HETATM   28  C   UNL     1      -4.929  -1.382 -33.488  1.00  0.00    -0.043 A 
HETATM   29 BR   UNL     1      -3.760  -4.032 -33.550  1.00  0.00    -0.051 Br
HETATM   30  C   UNL     1      -5.899  -1.820 -34.551  1.00  0.00     0.049 C 
HETATM   31  C   UNL     1      -5.011  -0.065 -32.990  1.00  0.00     0.037 A 
ENDBRANCH  22  24
ENDBRANCH   1  22
TORSDOF 5
ENDMDL
MODEL 9
REMARK VINA RESULT:      -8.5      3.395      7.576
REMARK  5 active torsions:
REMARK  status: ('A' for Active; 'I' for Inactive)
REMARK    1  A    between atoms: C_7  and  N_8 
REMARK    2  A    between atoms: N_8  and  C_9 
REMARK    3  A    between atoms: C_11  and  C_12 
REMARK       I    between atoms: C_12  and  N_13 
REMARK    4  A    between atoms: N_13  and  C_14 
REMARK    5  A    between atoms: C_14  and  C_15 
ROOT
HETATM    1  C   UNL     1      -5.327   1.839 -32.674  1.00  0.00     0.142 A 
HETATM    2  N   UNL     1      -6.679   1.875 -32.514  1.00  0.00    -0.225 NA
HETATM    3  C   UNL     1      -7.331   3.068 -32.371  1.00  0.00     0.129 A 
HETATM    4  C   UNL     1      -6.730   4.312 -32.360  1.00  0.00     0.075 A 
HETATM    5  C   UNL     1      -5.358   4.249 -32.498  1.00  0.00     0.091 A 
HETATM    6  C   UNL     1      -4.635   3.073 -32.654  1.00  0.00     0.046 A 
HETATM    7  O   UNL     1      -4.526   5.326 -32.503  1.00  0.00    -0.322 OA
HETATM    8  C   UNL     1      -3.264   4.856 -32.661  1.00  0.00     0.143 A 
HETATM    9  C   UNL     1      -3.272   3.484 -32.761  1.00  0.00     0.042 A 
ENDROOT
BRANCH   3  10
HETATM   10  C   UNL     1      -8.819   2.987 -32.214  1.00  0.00     0.270 C 
HETATM   11  N   UNL     1      -9.534   3.667 -33.171  1.00  0.00    -0.351 N 
HETATM   12  H   UNL     1      -9.003   4.206 -33.848  1.00  0.00     0.163 HD
HETATM   13  O   UNL     1      -9.333   2.354 -31.299  1.00  0.00    -0.266 OA
BRANCH  11  14
HETATM   14  C   UNL     1     -10.970   3.778 -33.126  1.00  0.00     0.165 C 
BRANCH  14  15
HETATM   15  C   UNL     1     -11.529   3.216 -34.382  1.00  0.00     0.002 A 
HETATM   16  C   UNL     1     -12.085   1.926 -34.610  1.00  0.00     0.060 A 
HETATM   17  C   UNL     1     -12.249   0.803 -33.653  1.00  0.00     0.073 C 
HETATM   18  N   UNL     1     -12.475   1.770 -35.882  1.00  0.00    -0.180 NA
HETATM   19  N   UNL     1     -12.169   2.936 -36.466  1.00  0.00    -0.288 N 
HETATM   20  H   UNL     1     -12.372   3.048 -37.454  1.00  0.00     0.188 HD
HETATM   21  C   UNL     1     -11.602   3.834 -35.616  1.00  0.00     0.120 A 
ENDBRANCH  14  15
ENDBRANCH  11  14
ENDBRANCH   3  10
BRANCH   1  22
HETATM   22  N   UNL     1      -4.628   0.633 -32.834  1.00  0.00    -0.340 N 
HETATM   23  H   UNL     1      -3.667   0.689 -32.529  1.00  0.00     0.167 HD
BRANCH  22  24
HETATM   24  C   UNL     1      -4.977  -0.612 -33.385  1.00  0.00     0.034 A 
HETATM   25  C   UNL     1      -6.154  -0.698 -34.143  1.00  0.00     0.031 A 
HETATM   26  C   UNL     1      -6.540  -1.896 -34.751  1.00  0.00     0.022 A 
HETATM   27  C   UNL     1      -5.746  -3.035 -34.620  1.00  0.00     0.017 A 
HETATM   28  C   UNL     1      -4.564  -2.987 -33.872  1.00  0.00    -0.043 A 
HETATM   29 BR   UNL     1      -6.330  -4.619 -35.489  1.00  0.00    -0.051 Br
HETATM   30  C   UNL     1      -3.662  -4.180 -33.710  1.00  0.00     0.049 C 
HETATM   31  C   UNL     1      -4.200  -1.768 -33.264  1.00  0.00     0.037 A 
ENDBRANCH  22  24
ENDBRANCH   1  22
TORSDOF 5
ENDMDL
MODEL 10
REMARK VINA RESULT:      -8.5      4.135      9.384
REMARK  5 active torsions:
REMARK  status: ('A' for Active; 'I' for Inactive)
REMARK    1  A    between atoms: C_7  and  N_8 
REMARK    2  A    between atoms: N_8  and  C_9 
REMARK    3  A    between atoms: C_11  and  C_12 
REMARK       I    between atoms: C_12  and  N_13 
REMARK    4  A    between atoms: N_13  and  C_14 
REMARK    5  A    between atoms: C_14  and  C_15 
ROOT
HETATM    1  C   UNL     1      -1.499   4.591 -31.306  1.00  0.00     0.142 A 
HETATM    2  N   UNL     1      -2.287   3.539 -30.949  1.00  0.00    -0.225 NA
HETATM    3  C   UNL     1      -3.138   2.969 -31.854  1.00  0.00     0.129 A 
HETATM    4  C   UNL     1      -3.303   3.375 -33.165  1.00  0.00     0.075 A 
HETATM    5  C   UNL     1      -2.513   4.457 -33.496  1.00  0.00     0.091 A 
HETATM    6  C   UNL     1      -1.623   5.079 -32.628  1.00  0.00     0.046 A 
HETATM    7  O   UNL     1      -2.494   5.063 -34.715  1.00  0.00    -0.322 OA
HETATM    8  C   UNL     1      -1.596   6.077 -34.644  1.00  0.00     0.143 A 
HETATM    9  C   UNL     1      -1.031   6.131 -33.391  1.00  0.00     0.042 A 
ENDROOT
BRANCH   3  10
HETATM   10  C   UNL     1      -3.947   1.811 -31.353  1.00  0.00     0.270 C 
HETATM   11  N   UNL     1      -3.562   0.587 -31.847  1.00  0.00    -0.351 N 
HETATM   12  H   UNL     1      -2.822   0.582 -32.542  1.00  0.00     0.163 HD
HETATM   13  O   UNL     1      -4.871   1.969 -30.563  1.00  0.00    -0.266 OA
BRANCH  11  14
HETATM   14  C   UNL     1      -4.283  -0.624 -31.550  1.00  0.00     0.165 C 
BRANCH  14  15
HETATM   15  C   UNL     1      -5.098  -0.994 -32.735  1.00  0.00     0.002 A 
HETATM   16  C   UNL     1      -6.446  -0.647 -33.032  1.00  0.00     0.060 A 
HETATM   17  C   UNL     1      -7.391   0.174 -32.235  1.00  0.00     0.073 C 
HETATM   18  N   UNL     1      -6.852  -1.179 -34.193  1.00  0.00    -0.180 NA
HETATM   19  N   UNL     1      -5.789  -1.864 -34.631  1.00  0.00    -0.288 N 
HETATM   20  H   UNL     1      -5.868  -2.367 -35.510  1.00  0.00     0.188 HD
HETATM   21  C   UNL     1      -4.715  -1.787 -33.800  1.00  0.00     0.120 A 
ENDBRANCH  14  15
ENDBRANCH  11  14
ENDBRANCH   3  10
BRANCH   1  22
HETATM   22  N   UNL     1      -0.608   5.193 -30.406  1.00  0.00    -0.340 N 
HETATM   23  H   UNL     1       0.181   4.605 -30.178  1.00  0.00     0.167 HD
BRANCH  22  24
HETATM   24  C   UNL     1      -0.623   6.416 -29.714  1.00  0.00     0.034 A 
HETATM   25  C   UNL     1      -1.838   7.111 -29.618  1.00  0.00     0.031 A 
HETATM   26  C   UNL     1      -1.933   8.314 -28.912  1.00  0.00     0.022 A 
HETATM   27  C   UNL     1      -0.809   8.843 -28.276  1.00  0.00     0.017 A 
HETATM   28  C   UNL     1       0.420   8.177 -28.349  1.00  0.00    -0.043 A 
HETATM   29 BR   UNL     1      -1.022  10.471 -27.325  1.00  0.00    -0.051 Br
HETATM   30  C   UNL     1       1.659   8.692 -27.671  1.00  0.00     0.049 C 
HETATM   31  C   UNL     1       0.490   6.968 -29.072  1.00  0.00     0.037 A 
ENDBRANCH  22  24
ENDBRANCH   1  22
TORSDOF 5
ENDMDL
