MODEL 1
REMARK VINA RESULT:      -9.6      0.000      0.000
REMARK  8 active torsions:
REMARK  status: ('A' for Active; 'I' for Inactive)
REMARK    1  A    between atoms: C_4  and  O_5 
REMARK    2  A    between atoms: O_5  and  C_6 
REMARK    3  A    between atoms: C_9  and  N_10 
REMARK    4  A    between atoms: N_10  and  C_11 
REMARK    5  A    between atoms: C_13  and  N_14 
REMARK    6  A    between atoms: C_16  and  C_17 
REMARK    7  A    between atoms: C_17  and  N_18 
REMARK    8  A    between atoms: N_22  and  C_23 
ROOT
HETATM    1  C   UNL     1      -3.620   5.633 -33.714  1.00  0.00     0.731 A 
HETATM    2  N   UNL     1      -2.793   5.185 -34.651  1.00  0.00    -0.031 NA
HETATM    3  C   UNL     1      -1.580   5.710 -34.677  1.00  0.00     0.219 A 
HETATM    4  N   UNL     1      -1.138   6.627 -33.831  1.00  0.00    -0.200 NA
HETATM    5  C   UNL     1      -2.032   7.032 -32.934  1.00  0.00     0.174 A 
HETATM    6  N   UNL     1      -3.259   6.533 -32.803  1.00  0.00    -0.045 NA
ENDROOT
BRANCH   1   7
HETATM    7  N   UNL     1      -4.878   5.041 -33.687  1.00  0.00    -0.188 N 
HETATM    8  H   UNL     1      -5.591   5.760 -33.618  1.00  0.00     0.184 HD
BRANCH   7   9
HETATM    9  C   UNL     1      -5.329   3.734 -33.453  1.00  0.00     0.049 A 
HETATM   10  C   UNL     1      -6.315   3.099 -34.217  1.00  0.00     0.033 A 
HETATM   11  C   UNL     1      -6.748   1.804 -33.905  1.00  0.00     0.039 A 
HETATM   12  C   UNL     1      -6.196   1.125 -32.824  1.00  0.00     0.076 A 
HETATM   13  C   UNL     1      -5.248   1.752 -32.021  1.00  0.00     0.039 A 
HETATM   14  C   UNL     1      -4.819   3.045 -32.339  1.00  0.00     0.033 A 
BRANCH  12  15
HETATM   15  O   UNL     1      -6.682  -0.129 -32.550  1.00  0.00    -0.311 OA
BRANCH  15  16
HETATM   16  C   UNL     1      -6.178  -1.186 -33.275  1.00  0.00     0.076 A 
HETATM   17  C   UNL     1      -7.105  -1.918 -34.022  1.00  0.00     0.037 A 
HETATM   18  C   UNL     1      -6.678  -2.982 -34.818  1.00  0.00     0.003 A 
HETATM   19  C   UNL     1      -5.325  -3.309 -34.877  1.00  0.00     0.000 A 
HETATM   20  C   UNL     1      -4.394  -2.568 -34.149  1.00  0.00     0.003 A 
HETATM   21  C   UNL     1      -4.818  -1.500 -33.354  1.00  0.00     0.037 A 
ENDBRANCH  15  16
ENDBRANCH  12  15
ENDBRANCH   7   9
ENDBRANCH   1   7
BRANCH   3  22
HETATM   22  N   UNL     1      -0.698   5.239 -35.623  1.00  0.00    -0.270 NA
HETATM   23  H   UNL     1      -0.587   4.234 -35.544  1.00  0.00     0.127 HD
HETATM   24  H   UNL     1      -0.919   5.571 -36.553  1.00  0.00     0.127 HD
ENDBRANCH   3  22
BRANCH   5  25
HETATM   25  C   UNL     1      -1.544   7.956 -31.837  1.00  0.00     0.316 C 
BRANCH  25  26
HETATM   26  N   UNL     1      -1.381   7.315 -30.445  1.00  0.00    -0.061 N 
HETATM   27  H   UNL     1      -1.907   6.432 -30.500  1.00  0.00     0.280 HD
HETATM   28  C   UNL     1       0.071   6.966 -30.133  1.00  0.00     0.255 C 
HETATM   29  C   UNL     1       0.159   6.240 -28.768  1.00  0.00     0.152 C 
HETATM   30  N   UNL     1      -0.523   6.982 -27.676  1.00  0.00    -0.364 N 
HETATM   31  C   UNL     1      -1.908   7.419 -27.983  1.00  0.00     0.152 C 
HETATM   32  C   UNL     1      -1.997   8.163 -29.340  1.00  0.00     0.255 C 
BRANCH  30  33
HETATM   33  C   UNL     1       0.215   7.754 -26.798  1.00  0.00     0.102 A 
HETATM   34  N   UNL     1      -0.454   8.613 -26.007  1.00  0.00    -0.352 N 
HETATM   35  H   UNL     1      -1.470   8.610 -26.072  1.00  0.00     0.166 HD
HETATM   36  C   UNL     1       0.128   9.405 -25.095  1.00  0.00     0.089 A 
HETATM   37  C   UNL     1       1.501   9.366 -24.921  1.00  0.00     0.017 A 
HETATM   38  C   UNL     1       2.245   8.485 -25.691  1.00  0.00     0.005 A 
HETATM   39  C   UNL     1       1.603   7.671 -26.626  1.00  0.00     0.048 A 
ENDBRANCH  30  33
ENDBRANCH  25  26
ENDBRANCH   5  25
TORSDOF 8
ENDMDL
MODEL 2
REMARK VINA RESULT:      -9.4      5.797      7.747
REMARK  8 active torsions:
REMARK  status: ('A' for Active; 'I' for Inactive)
REMARK    1  A    between atoms: C_4  and  O_5 
REMARK    2  A    between atoms: O_5  and  C_6 
REMARK    3  A    between atoms: C_9  and  N_10 
REMARK    4  A    between atoms: N_10  and  C_11 
REMARK    5  A    between atoms: C_13  and  N_14 
REMARK    6  A    between atoms: C_16  and  C_17 
REMARK    7  A    between atoms: C_17  and  N_18 
REMARK    8  A    between atoms: N_22  and  C_23 
ROOT
HETATM    1  C   UNL     1     -10.810   2.252 -33.735  1.00  0.00     0.731 A 
HETATM    2  N   UNL     1     -12.135   2.215 -33.671  1.00  0.00    -0.031 NA
HETATM    3  C   UNL     1     -12.736   3.264 -33.136  1.00  0.00     0.219 A 
HETATM    4  N   UNL     1     -12.112   4.340 -32.683  1.00  0.00    -0.200 NA
HETATM    5  C   UNL     1     -10.786   4.291 -32.770  1.00  0.00     0.174 A 
HETATM    6  N   UNL     1     -10.097   3.300 -33.330  1.00  0.00    -0.045 NA
ENDROOT
BRANCH   1   7
HETATM    7  N   UNL     1     -10.204   1.152 -34.332  1.00  0.00    -0.188 N 
HETATM    8  H   UNL     1     -10.908   0.579 -34.784  1.00  0.00     0.184 HD
BRANCH   7   9
HETATM    9  C   UNL     1      -8.945   0.550 -34.198  1.00  0.00     0.049 A 
HETATM   10  C   UNL     1      -8.488  -0.053 -33.020  1.00  0.00     0.033 A 
HETATM   11  C   UNL     1      -7.203  -0.604 -32.940  1.00  0.00     0.039 A 
HETATM   12  C   UNL     1      -6.357  -0.561 -34.043  1.00  0.00     0.076 A 
HETATM   13  C   UNL     1      -6.769   0.073 -35.212  1.00  0.00     0.039 A 
HETATM   14  C   UNL     1      -8.055   0.620 -35.284  1.00  0.00     0.033 A 
BRANCH  12  15
HETATM   15  O   UNL     1      -5.099  -1.090 -33.897  1.00  0.00    -0.311 OA
BRANCH  15  16
HETATM   16  C   UNL     1      -4.949  -2.449 -34.061  1.00  0.00     0.076 A 
HETATM   17  C   UNL     1      -3.863  -3.033 -33.405  1.00  0.00     0.037 A 
HETATM   18  C   UNL     1      -3.657  -4.411 -33.483  1.00  0.00     0.003 A 
HETATM   19  C   UNL     1      -4.542  -5.209 -34.207  1.00  0.00     0.000 A 
HETATM   20  C   UNL     1      -5.639  -4.632 -34.846  1.00  0.00     0.003 A 
HETATM   21  C   UNL     1      -5.850  -3.254 -34.766  1.00  0.00     0.037 A 
ENDBRANCH  15  16
ENDBRANCH  12  15
ENDBRANCH   7   9
ENDBRANCH   1   7
BRANCH   3  22
HETATM   22  N   UNL     1     -14.112   3.257 -33.085  1.00  0.00    -0.270 NA
HETATM   23  H   UNL     1     -14.454   2.380 -32.709  1.00  0.00     0.127 HD
HETATM   24  H   UNL     1     -14.483   4.086 -32.640  1.00  0.00     0.127 HD
ENDBRANCH   3  22
BRANCH   5  25
HETATM   25  C   UNL     1     -10.022   5.551 -32.421  1.00  0.00     0.316 C 
BRANCH  25  26
HETATM   26  N   UNL     1      -8.820   5.365 -31.475  1.00  0.00    -0.061 N 
HETATM   27  H   UNL     1      -8.755   6.250 -30.955  1.00  0.00     0.280 HD
HETATM   28  C   UNL     1      -9.050   4.250 -30.458  1.00  0.00     0.255 C 
HETATM   29  C   UNL     1      -7.854   4.175 -29.477  1.00  0.00     0.152 C 
HETATM   30  N   UNL     1      -6.544   4.086 -30.172  1.00  0.00    -0.364 N 
HETATM   31  C   UNL     1      -6.325   5.098 -31.234  1.00  0.00     0.152 C 
HETATM   32  C   UNL     1      -7.512   5.164 -32.230  1.00  0.00     0.255 C 
BRANCH  30  33
HETATM   33  C   UNL     1      -5.918   2.861 -30.313  1.00  0.00     0.102 A 
HETATM   34  N   UNL     1      -6.372   1.838 -29.564  1.00  0.00    -0.352 N 
HETATM   35  H   UNL     1      -7.179   2.018 -28.972  1.00  0.00     0.166 HD
HETATM   36  C   UNL     1      -5.876   0.593 -29.613  1.00  0.00     0.089 A 
HETATM   37  C   UNL     1      -4.836   0.295 -30.477  1.00  0.00     0.017 A 
HETATM   38  C   UNL     1      -4.338   1.302 -31.291  1.00  0.00     0.005 A 
HETATM   39  C   UNL     1      -4.884   2.585 -31.217  1.00  0.00     0.048 A 
ENDBRANCH  30  33
ENDBRANCH  25  26
ENDBRANCH   5  25
TORSDOF 8
ENDMDL
MODEL 3
REMARK VINA RESULT:      -9.4      8.647     10.675
REMARK  8 active torsions:
REMARK  status: ('A' for Active; 'I' for Inactive)
REMARK    1  A    between atoms: C_4  and  O_5 
REMARK    2  A    between atoms: O_5  and  C_6 
REMARK    3  A    between atoms: C_9  and  N_10 
REMARK    4  A    between atoms: N_10  and  C_11 
REMARK    5  A    between atoms: C_13  and  N_14 
REMARK    6  A    between atoms: C_16  and  C_17 
REMARK    7  A    between atoms: C_17  and  N_18 
REMARK    8  A    between atoms: N_22  and  C_23 
ROOT
HETATM    1  C   UNL     1     -11.310   1.270 -33.573  1.00  0.00     0.731 A 
HETATM    2  N   UNL     1     -12.307   0.401 -33.466  1.00  0.00    -0.031 NA
HETATM    3  C   UNL     1     -13.399   0.655 -34.165  1.00  0.00     0.219 A 
HETATM    4  N   UNL     1     -13.554   1.696 -34.967  1.00  0.00    -0.200 NA
HETATM    5  C   UNL     1     -12.516   2.527 -35.007  1.00  0.00     0.174 A 
HETATM    6  N   UNL     1     -11.362   2.332 -34.374  1.00  0.00    -0.045 NA
ENDROOT
BRANCH   1   7
HETATM    7  N   UNL     1     -10.161   0.963 -32.854  1.00  0.00    -0.188 N 
HETATM    8  H   UNL     1     -10.222   1.364 -31.925  1.00  0.00     0.184 HD
BRANCH   7   9
HETATM    9  C   UNL     1      -8.888   0.497 -33.215  1.00  0.00     0.049 A 
HETATM   10  C   UNL     1      -8.461   0.337 -34.539  1.00  0.00     0.033 A 
HETATM   11  C   UNL     1      -7.190  -0.171 -34.832  1.00  0.00     0.039 A 
HETATM   12  C   UNL     1      -6.325  -0.523 -33.802  1.00  0.00     0.076 A 
HETATM   13  C   UNL     1      -6.742  -0.418 -32.478  1.00  0.00     0.039 A 
HETATM   14  C   UNL     1      -8.013   0.091 -32.192  1.00  0.00     0.033 A 
BRANCH  12  15
HETATM   15  O   UNL     1      -5.104  -1.043 -34.150  1.00  0.00    -0.311 OA
BRANCH  15  16
HETATM   16  C   UNL     1      -4.989  -2.413 -34.241  1.00  0.00     0.076 A 
HETATM   17  C   UNL     1      -3.920  -2.989 -33.550  1.00  0.00     0.037 A 
HETATM   18  C   UNL     1      -3.751  -4.374 -33.554  1.00  0.00     0.003 A 
HETATM   19  C   UNL     1      -4.654  -5.186 -34.239  1.00  0.00     0.000 A 
HETATM   20  C   UNL     1      -5.734  -4.615 -34.913  1.00  0.00     0.003 A 
HETATM   21  C   UNL     1      -5.908  -3.229 -34.908  1.00  0.00     0.037 A 
ENDBRANCH  15  16
ENDBRANCH  12  15
ENDBRANCH   7   9
ENDBRANCH   1   7
BRANCH   3  22
HETATM   22  N   UNL     1     -14.434  -0.249 -34.089  1.00  0.00    -0.270 NA
HETATM   23  H   UNL     1     -14.090  -1.199 -34.175  1.00  0.00     0.127 HD
HETATM   24  H   UNL     1     -15.031  -0.083 -33.289  1.00  0.00     0.127 HD
ENDBRANCH   3  22
BRANCH   5  25
HETATM   25  C   UNL     1     -12.563   3.646 -36.026  1.00  0.00     0.316 C 
BRANCH  25  26
HETATM   26  N   UNL     1     -12.221   5.051 -35.492  1.00  0.00    -0.061 N 
HETATM   27  H   UNL     1     -12.426   5.007 -34.485  1.00  0.00     0.280 HD
HETATM   28  C   UNL     1     -10.739   5.386 -35.646  1.00  0.00     0.255 C 
HETATM   29  C   UNL     1     -10.440   6.764 -35.007  1.00  0.00     0.152 C 
HETATM   30  N   UNL     1     -11.345   7.835 -35.497  1.00  0.00    -0.364 N 
HETATM   31  C   UNL     1     -12.791   7.506 -35.450  1.00  0.00     0.152 C 
HETATM   32  C   UNL     1     -13.099   6.135 -36.105  1.00  0.00     0.255 C 
BRANCH  30  33
HETATM   33  C   UNL     1     -10.916   8.707 -36.480  1.00  0.00     0.102 A 
HETATM   34  N   UNL     1      -9.860   9.493 -36.199  1.00  0.00    -0.352 N 
HETATM   35  H   UNL     1      -9.413   9.366 -35.294  1.00  0.00     0.166 HD
HETATM   36  C   UNL     1      -9.323  10.368 -37.062  1.00  0.00     0.089 A 
HETATM   37  C   UNL     1      -9.854  10.500 -38.334  1.00  0.00     0.017 A 
HETATM   38  C   UNL     1     -10.930   9.701 -38.692  1.00  0.00     0.005 A 
HETATM   39  C   UNL     1     -11.458   8.797 -37.769  1.00  0.00     0.048 A 
ENDBRANCH  30  33
ENDBRANCH  25  26
ENDBRANCH   5  25
TORSDOF 8
ENDMDL
MODEL 4
REMARK VINA RESULT:      -9.2      3.177      5.508
REMARK  8 active torsions:
REMARK  status: ('A' for Active; 'I' for Inactive)
REMARK    1  A    between atoms: C_4  and  O_5 
REMARK    2  A    between atoms: O_5  and  C_6 
REMARK    3  A    between atoms: C_9  and  N_10 
REMARK    4  A    between atoms: N_10  and  C_11 
REMARK    5  A    between atoms: C_13  and  N_14 
REMARK    6  A    between atoms: C_16  and  C_17 
REMARK    7  A    between atoms: C_17  and  N_18 
REMARK    8  A    between atoms: N_22  and  C_23 
ROOT
HETATM    1  C   UNL     1      -8.863   2.836 -30.861  1.00  0.00     0.731 A 
HETATM    2  N   UNL     1     -10.140   3.189 -30.780  1.00  0.00    -0.031 NA
HETATM    3  C   UNL     1     -10.393   4.449 -30.473  1.00  0.00     0.219 A 
HETATM    4  N   UNL     1      -9.468   5.373 -30.262  1.00  0.00    -0.200 NA
HETATM    5  C   UNL     1      -8.215   4.935 -30.346  1.00  0.00     0.174 A 
HETATM    6  N   UNL     1      -7.864   3.699 -30.691  1.00  0.00    -0.045 NA
ENDROOT
BRANCH   1   7
HETATM    7  N   UNL     1      -8.624   1.514 -31.218  1.00  0.00    -0.188 N 
HETATM    8  H   UNL     1      -9.211   0.900 -30.663  1.00  0.00     0.184 HD
BRANCH   7   9
HETATM    9  C   UNL     1      -7.598   0.872 -31.927  1.00  0.00     0.049 A 
HETATM   10  C   UNL     1      -7.378   1.034 -33.300  1.00  0.00     0.033 A 
HETATM   11  C   UNL     1      -6.359   0.334 -33.956  1.00  0.00     0.039 A 
HETATM   12  C   UNL     1      -5.541  -0.538 -33.244  1.00  0.00     0.076 A 
HETATM   13  C   UNL     1      -5.768  -0.751 -31.887  1.00  0.00     0.039 A 
HETATM   14  C   UNL     1      -6.787  -0.047 -31.238  1.00  0.00     0.033 A 
BRANCH  12  15
HETATM   15  O   UNL     1      -4.578  -1.218 -33.946  1.00  0.00    -0.311 OA
BRANCH  15  16
HETATM   16  C   UNL     1      -4.802  -2.549 -34.221  1.00  0.00     0.076 A 
HETATM   17  C   UNL     1      -3.902  -3.455 -33.655  1.00  0.00     0.037 A 
HETATM   18  C   UNL     1      -4.075  -4.827 -33.848  1.00  0.00     0.003 A 
HETATM   19  C   UNL     1      -5.154  -5.295 -34.596  1.00  0.00     0.000 A 
HETATM   20  C   UNL     1      -6.067  -4.394 -35.145  1.00  0.00     0.003 A 
HETATM   21  C   UNL     1      -5.898  -3.021 -34.951  1.00  0.00     0.037 A 
ENDBRANCH  15  16
ENDBRANCH  12  15
ENDBRANCH   7   9
ENDBRANCH   1   7
BRANCH   3  22
HETATM   22  N   UNL     1     -11.710   4.843 -30.411  1.00  0.00    -0.270 NA
HETATM   23  H   UNL     1     -12.320   4.042 -30.288  1.00  0.00     0.127 HD
HETATM   24  H   UNL     1     -11.856   5.595 -29.752  1.00  0.00     0.127 HD
ENDBRANCH   3  22
BRANCH   5  25
HETATM   25  C   UNL     1      -7.112   5.971 -30.277  1.00  0.00     0.316 C 
BRANCH  25  26
HETATM   26  N   UNL     1      -5.842   5.651 -31.089  1.00  0.00    -0.061 N 
HETATM   27  H   UNL     1      -6.178   5.116 -31.902  1.00  0.00     0.280 HD
HETATM   28  C   UNL     1      -5.159   6.909 -31.618  1.00  0.00     0.255 C 
HETATM   29  C   UNL     1      -3.950   6.521 -32.503  1.00  0.00     0.152 C 
HETATM   30  N   UNL     1      -3.020   5.578 -31.829  1.00  0.00    -0.364 N 
HETATM   31  C   UNL     1      -3.665   4.388 -31.220  1.00  0.00     0.152 C 
HETATM   32  C   UNL     1      -4.866   4.772 -30.318  1.00  0.00     0.255 C 
BRANCH  30  33
HETATM   33  C   UNL     1      -1.860   6.050 -31.244  1.00  0.00     0.102 A 
HETATM   34  N   UNL     1      -1.874   6.265 -29.915  1.00  0.00    -0.352 N 
HETATM   35  H   UNL     1      -2.725   6.024 -29.413  1.00  0.00     0.166 HD
HETATM   36  C   UNL     1      -0.817   6.699 -29.213  1.00  0.00     0.089 A 
HETATM   37  C   UNL     1       0.385   6.950 -29.854  1.00  0.00     0.017 A 
HETATM   38  C   UNL     1       0.469   6.726 -31.221  1.00  0.00     0.005 A 
HETATM   39  C   UNL     1      -0.651   6.268 -31.917  1.00  0.00     0.048 A 
ENDBRANCH  30  33
ENDBRANCH  25  26
ENDBRANCH   5  25
TORSDOF 8
ENDMDL
MODEL 5
REMARK VINA RESULT:      -9.1      3.138     11.347
REMARK  8 active torsions:
REMARK  status: ('A' for Active; 'I' for Inactive)
REMARK    1  A    between atoms: C_4  and  O_5 
REMARK    2  A    between atoms: O_5  and  C_6 
REMARK    3  A    between atoms: C_9  and  N_10 
REMARK    4  A    between atoms: N_10  and  C_11 
REMARK    5  A    between atoms: C_13  and  N_14 
REMARK    6  A    between atoms: C_16  and  C_17 
REMARK    7  A    between atoms: C_17  and  N_18 
REMARK    8  A    between atoms: N_22  and  C_23 
ROOT
HETATM    1  C   UNL     1      -2.031   6.032 -30.835  1.00  0.00     0.731 A 
HETATM    2  N   UNL     1      -1.576   6.930 -31.700  1.00  0.00    -0.031 NA
HETATM    3  C   UNL     1      -2.169   6.976 -32.880  1.00  0.00     0.219 A 
HETATM    4  N   UNL     1      -3.184   6.208 -33.242  1.00  0.00    -0.200 NA
HETATM    5  C   UNL     1      -3.570   5.326 -32.325  1.00  0.00     0.174 A 
HETATM    6  N   UNL     1      -3.063   5.235 -31.098  1.00  0.00    -0.045 NA
ENDROOT
BRANCH   1   7
HETATM    7  N   UNL     1      -1.412   6.026 -29.590  1.00  0.00    -0.188 N 
HETATM    8  H   UNL     1      -1.648   5.172 -29.096  1.00  0.00     0.184 HD
BRANCH   7   9
HETATM    9  C   UNL     1      -0.809   7.018 -28.803  1.00  0.00     0.049 A 
HETATM   10  C   UNL     1      -1.514   7.874 -27.949  1.00  0.00     0.033 A 
HETATM   11  C   UNL     1      -0.856   8.871 -27.219  1.00  0.00     0.039 A 
HETATM   12  C   UNL     1       0.522   9.023 -27.333  1.00  0.00     0.076 A 
HETATM   13  C   UNL     1       1.241   8.216 -28.210  1.00  0.00     0.039 A 
HETATM   14  C   UNL     1       0.576   7.221 -28.935  1.00  0.00     0.033 A 
BRANCH  12  15
HETATM   15  O   UNL     1       1.108  10.036 -26.616  1.00  0.00    -0.311 OA
BRANCH  15  16
HETATM   16  C   UNL     1       1.438   9.788 -25.302  1.00  0.00     0.076 A 
HETATM   17  C   UNL     1       2.597   9.039 -25.088  1.00  0.00     0.037 A 
HETATM   18  C   UNL     1       3.028   8.773 -23.788  1.00  0.00     0.003 A 
HETATM   19  C   UNL     1       2.309   9.264 -22.700  1.00  0.00     0.000 A 
HETATM   20  C   UNL     1       1.162  10.031 -22.910  1.00  0.00     0.003 A 
HETATM   21  C   UNL     1       0.730  10.302 -24.210  1.00  0.00     0.037 A 
ENDBRANCH  15  16
ENDBRANCH  12  15
ENDBRANCH   7   9
ENDBRANCH   1   7
BRANCH   3  22
HETATM   22  N   UNL     1      -1.730   7.919 -33.782  1.00  0.00    -0.270 NA
HETATM   23  H   UNL     1      -1.100   8.578 -33.337  1.00  0.00     0.127 HD
HETATM   24  H   UNL     1      -1.378   7.502 -34.633  1.00  0.00     0.127 HD
ENDBRANCH   3  22
BRANCH   5  25
HETATM   25  C   UNL     1      -4.827   4.531 -32.613  1.00  0.00     0.316 C 
BRANCH  25  26
HETATM   26  N   UNL     1      -4.861   3.103 -32.035  1.00  0.00    -0.061 N 
HETATM   27  H   UNL     1      -4.663   3.220 -31.032  1.00  0.00     0.280 HD
HETATM   28  C   UNL     1      -6.240   2.460 -32.158  1.00  0.00     0.255 C 
HETATM   29  C   UNL     1      -6.238   1.070 -31.477  1.00  0.00     0.152 C 
HETATM   30  N   UNL     1      -5.130   0.198 -31.949  1.00  0.00    -0.364 N 
HETATM   31  C   UNL     1      -3.786   0.826 -31.931  1.00  0.00     0.152 C 
HETATM   32  C   UNL     1      -3.779   2.210 -32.629  1.00  0.00     0.255 C 
BRANCH  30  33
HETATM   33  C   UNL     1      -5.374  -0.774 -32.901  1.00  0.00     0.102 A 
HETATM   34  N   UNL     1      -4.371  -1.622 -33.197  1.00  0.00    -0.352 N 
HETATM   35  H   UNL     1      -3.507  -1.524 -32.669  1.00  0.00     0.166 HD
HETATM   36  C   UNL     1      -4.472  -2.625 -34.082  1.00  0.00     0.089 A 
HETATM   37  C   UNL     1      -5.664  -2.841 -34.752  1.00  0.00     0.017 A 
HETATM   38  C   UNL     1      -6.743  -2.013 -34.473  1.00  0.00     0.005 A 
HETATM   39  C   UNL     1      -6.602  -0.983 -33.542  1.00  0.00     0.048 A 
ENDBRANCH  30  33
ENDBRANCH  25  26
ENDBRANCH   5  25
TORSDOF 8
ENDMDL
MODEL 6
REMARK VINA RESULT:      -9.0      4.477     10.377
REMARK  8 active torsions:
REMARK  status: ('A' for Active; 'I' for Inactive)
REMARK    1  A    between atoms: C_4  and  O_5 
REMARK    2  A    between atoms: O_5  and  C_6 
REMARK    3  A    between atoms: C_9  and  N_10 
REMARK    4  A    between atoms: N_10  and  C_11 
REMARK    5  A    between atoms: C_13  and  N_14 
REMARK    6  A    between atoms: C_16  and  C_17 
REMARK    7  A    between atoms: C_17  and  N_18 
REMARK    8  A    between atoms: N_22  and  C_23 
ROOT
HETATM    1  C   UNL     1      -8.375   4.619 -32.052  1.00  0.00     0.731 A 
HETATM    2  N   UNL     1      -9.483   4.990 -31.424  1.00  0.00    -0.031 NA
HETATM    3  C   UNL     1     -10.192   4.035 -30.847  1.00  0.00     0.219 A 
HETATM    4  N   UNL     1      -9.861   2.753 -30.841  1.00  0.00    -0.200 NA
HETATM    5  C   UNL     1      -8.747   2.462 -31.504  1.00  0.00     0.174 A 
HETATM    6  N   UNL     1      -7.947   3.359 -32.077  1.00  0.00    -0.045 NA
ENDROOT
BRANCH   1   7
HETATM    7  N   UNL     1      -7.631   5.646 -32.622  1.00  0.00    -0.188 N 
HETATM    8  H   UNL     1      -8.253   6.302 -33.082  1.00  0.00     0.184 HD
BRANCH   7   9
HETATM    9  C   UNL     1      -6.272   5.802 -32.929  1.00  0.00     0.049 A 
HETATM   10  C   UNL     1      -5.628   5.141 -33.981  1.00  0.00     0.033 A 
HETATM   11  C   UNL     1      -4.257   5.310 -34.211  1.00  0.00     0.039 A 
HETATM   12  C   UNL     1      -3.511   6.150 -33.390  1.00  0.00     0.076 A 
HETATM   13  C   UNL     1      -4.117   6.783 -32.309  1.00  0.00     0.039 A 
HETATM   14  C   UNL     1      -5.487   6.610 -32.087  1.00  0.00     0.033 A 
BRANCH  12  15
HETATM   15  O   UNL     1      -2.167   6.253 -33.646  1.00  0.00    -0.311 OA
BRANCH  15  16
HETATM   16  C   UNL     1      -1.299   6.141 -32.582  1.00  0.00     0.076 A 
HETATM   17  C   UNL     1      -1.341   4.934 -31.878  1.00  0.00     0.037 A 
HETATM   18  C   UNL     1      -0.469   4.717 -30.810  1.00  0.00     0.003 A 
HETATM   19  C   UNL     1       0.453   5.699 -30.451  1.00  0.00     0.000 A 
HETATM   20  C   UNL     1       0.511   6.897 -31.165  1.00  0.00     0.003 A 
HETATM   21  C   UNL     1      -0.358   7.115 -32.237  1.00  0.00     0.037 A 
ENDBRANCH  15  16
ENDBRANCH  12  15
ENDBRANCH   7   9
ENDBRANCH   1   7
BRANCH   3  22
HETATM   22  N   UNL     1     -11.331   4.402 -30.167  1.00  0.00    -0.270 NA
HETATM   23  H   UNL     1     -12.132   4.421 -30.789  1.00  0.00     0.127 HD
HETATM   24  H   UNL     1     -11.462   3.866 -29.320  1.00  0.00     0.127 HD
ENDBRANCH   3  22
BRANCH   5  25
HETATM   25  C   UNL     1      -8.226   1.044 -31.398  1.00  0.00     0.316 C 
BRANCH  25  26
HETATM   26  N   UNL     1      -7.157   0.644 -32.434  1.00  0.00    -0.061 N 
HETATM   27  H   UNL     1      -6.773   1.537 -32.772  1.00  0.00     0.280 HD
HETATM   28  C   UNL     1      -6.009  -0.144 -31.809  1.00  0.00     0.255 C 
HETATM   29  C   UNL     1      -4.924  -0.432 -32.875  1.00  0.00     0.152 C 
HETATM   30  N   UNL     1      -5.476  -1.058 -34.105  1.00  0.00    -0.364 N 
HETATM   31  C   UNL     1      -6.655  -0.369 -34.686  1.00  0.00     0.152 C 
HETATM   32  C   UNL     1      -7.752  -0.095 -33.626  1.00  0.00     0.255 C 
BRANCH  30  33
HETATM   33  C   UNL     1      -5.374  -2.424 -34.290  1.00  0.00     0.102 A 
HETATM   34  N   UNL     1      -4.241  -3.026 -33.883  1.00  0.00    -0.352 N 
HETATM   35  H   UNL     1      -3.545  -2.445 -33.421  1.00  0.00     0.166 HD
HETATM   36  C   UNL     1      -4.013  -4.345 -33.980  1.00  0.00     0.089 A 
HETATM   37  C   UNL     1      -4.979  -5.176 -34.521  1.00  0.00     0.017 A 
HETATM   38  C   UNL     1      -6.178  -4.618 -34.939  1.00  0.00     0.005 A 
HETATM   39  C   UNL     1      -6.382  -3.243 -34.817  1.00  0.00     0.048 A 
ENDBRANCH  30  33
ENDBRANCH  25  26
ENDBRANCH   5  25
TORSDOF 8
ENDMDL
MODEL 7
REMARK VINA RESULT:      -9.0      2.958     10.564
REMARK  8 active torsions:
REMARK  status: ('A' for Active; 'I' for Inactive)
REMARK    1  A    between atoms: C_4  and  O_5 
REMARK    2  A    between atoms: O_5  and  C_6 
REMARK    3  A    between atoms: C_9  and  N_10 
REMARK    4  A    between atoms: N_10  and  C_11 
REMARK    5  A    between atoms: C_13  and  N_14 
REMARK    6  A    between atoms: C_16  and  C_17 
REMARK    7  A    between atoms: C_17  and  N_18 
REMARK    8  A    between atoms: N_22  and  C_23 
ROOT
HETATM    1  C   UNL     1      -2.090   5.011 -32.759  1.00  0.00     0.731 A 
HETATM    2  N   UNL     1      -2.389   5.308 -34.017  1.00  0.00    -0.031 NA
HETATM    3  C   UNL     1      -3.611   5.014 -34.427  1.00  0.00     0.219 A 
HETATM    4  N   UNL     1      -4.547   4.467 -33.668  1.00  0.00    -0.200 NA
HETATM    5  C   UNL     1      -4.163   4.186 -32.427  1.00  0.00     0.174 A 
HETATM    6  N   UNL     1      -2.972   4.483 -31.913  1.00  0.00    -0.045 NA
ENDROOT
BRANCH   1   7
HETATM    7  N   UNL     1      -0.810   5.360 -32.344  1.00  0.00    -0.188 N 
HETATM    8  H   UNL     1      -0.134   5.065 -33.040  1.00  0.00     0.184 HD
BRANCH   7   9
HETATM    9  C   UNL     1      -0.263   5.743 -31.111  1.00  0.00     0.049 A 
HETATM   10  C   UNL     1       0.194   4.840 -30.144  1.00  0.00     0.033 A 
HETATM   11  C   UNL     1       0.695   5.288 -28.915  1.00  0.00     0.039 A 
HETATM   12  C   UNL     1       0.747   6.650 -28.639  1.00  0.00     0.076 A 
HETATM   13  C   UNL     1       0.256   7.567 -29.564  1.00  0.00     0.039 A 
HETATM   14  C   UNL     1      -0.241   7.112 -30.790  1.00  0.00     0.033 A 
BRANCH  12  15
HETATM   15  O   UNL     1       1.220   7.028 -27.407  1.00  0.00    -0.311 OA
BRANCH  15  16
HETATM   16  C   UNL     1       0.482   7.943 -26.688  1.00  0.00     0.076 A 
HETATM   17  C   UNL     1      -0.783   7.523 -26.272  1.00  0.00     0.037 A 
HETATM   18  C   UNL     1      -1.584   8.370 -25.504  1.00  0.00     0.003 A 
HETATM   19  C   UNL     1      -1.117   9.633 -25.142  1.00  0.00     0.000 A 
HETATM   20  C   UNL     1       0.155  10.047 -25.539  1.00  0.00     0.003 A 
HETATM   21  C   UNL     1       0.960   9.200 -26.304  1.00  0.00     0.037 A 
ENDBRANCH  15  16
ENDBRANCH  12  15
ENDBRANCH   7   9
ENDBRANCH   1   7
BRANCH   3  22
HETATM   22  N   UNL     1      -3.949   5.340 -35.720  1.00  0.00    -0.270 NA
HETATM   23  H   UNL     1      -4.911   5.084 -35.916  1.00  0.00     0.127 HD
HETATM   24  H   UNL     1      -3.707   6.294 -35.952  1.00  0.00     0.127 HD
ENDBRANCH   3  22
BRANCH   5  25
HETATM   25  C   UNL     1      -5.230   3.711 -31.462  1.00  0.00     0.316 C 
BRANCH  25  26
HETATM   26  N   UNL     1      -5.261   2.193 -31.194  1.00  0.00    -0.061 N 
HETATM   27  H   UNL     1      -5.179   2.105 -30.172  1.00  0.00     0.280 HD
HETATM   28  C   UNL     1      -6.588   1.558 -31.604  1.00  0.00     0.255 C 
HETATM   29  C   UNL     1      -6.595   0.058 -31.224  1.00  0.00     0.152 C 
HETATM   30  N   UNL     1      -5.404  -0.671 -31.731  1.00  0.00    -0.364 N 
HETATM   31  C   UNL     1      -4.100  -0.031 -31.431  1.00  0.00     0.152 C 
HETATM   32  C   UNL     1      -4.081   1.468 -31.828  1.00  0.00     0.255 C 
BRANCH  30  33
HETATM   33  C   UNL     1      -5.498  -1.431 -32.883  1.00  0.00     0.102 A 
HETATM   34  N   UNL     1      -4.432  -2.180 -33.224  1.00  0.00    -0.352 N 
HETATM   35  H   UNL     1      -3.638  -2.177 -32.589  1.00  0.00     0.166 HD
HETATM   36  C   UNL     1      -4.390  -2.981 -34.300  1.00  0.00     0.089 A 
HETATM   37  C   UNL     1      -5.490  -3.076 -35.135  1.00  0.00     0.017 A 
HETATM   38  C   UNL     1      -6.627  -2.345 -34.824  1.00  0.00     0.005 A 
HETATM   39  C   UNL     1      -6.636  -1.527 -33.693  1.00  0.00     0.048 A 
ENDBRANCH  30  33
ENDBRANCH  25  26
ENDBRANCH   5  25
TORSDOF 8
ENDMDL
MODEL 8
REMARK VINA RESULT:      -8.9      8.276     12.092
REMARK  8 active torsions:
REMARK  status: ('A' for Active; 'I' for Inactive)
REMARK    1  A    between atoms: C_4  and  O_5 
REMARK    2  A    between atoms: O_5  and  C_6 
REMARK    3  A    between atoms: C_9  and  N_10 
REMARK    4  A    between atoms: N_10  and  C_11 
REMARK    5  A    between atoms: C_13  and  N_14 
REMARK    6  A    between atoms: C_16  and  C_17 
REMARK    7  A    between atoms: C_17  and  N_18 
REMARK    8  A    between atoms: N_22  and  C_23 
ROOT
HETATM    1  C   UNL     1     -12.072   2.176 -34.568  1.00  0.00     0.731 A 
HETATM    2  N   UNL     1     -12.928   1.171 -34.431  1.00  0.00    -0.031 NA
HETATM    3  C   UNL     1     -12.547   0.161 -33.668  1.00  0.00     0.219 A 
HETATM    4  N   UNL     1     -11.391   0.098 -33.026  1.00  0.00    -0.200 NA
HETATM    5  C   UNL     1     -10.585   1.136 -33.228  1.00  0.00     0.174 A 
HETATM    6  N   UNL     1     -10.898   2.214 -33.943  1.00  0.00    -0.045 NA
ENDROOT
BRANCH   1   7
HETATM    7  N   UNL     1     -12.510   3.239 -35.349  1.00  0.00    -0.188 N 
HETATM    8  H   UNL     1     -13.013   2.885 -36.156  1.00  0.00     0.184 HD
BRANCH   7   9
HETATM    9  C   UNL     1     -12.172   4.599 -35.411  1.00  0.00     0.049 A 
HETATM   10  C   UNL     1     -13.110   5.639 -35.390  1.00  0.00     0.033 A 
HETATM   11  C   UNL     1     -12.708   6.976 -35.494  1.00  0.00     0.039 A 
HETATM   12  C   UNL     1     -11.359   7.292 -35.617  1.00  0.00     0.076 A 
HETATM   13  C   UNL     1     -10.411   6.275 -35.687  1.00  0.00     0.039 A 
HETATM   14  C   UNL     1     -10.819   4.941 -35.581  1.00  0.00     0.033 A 
BRANCH  12  15
HETATM   15  O   UNL     1     -11.029   8.617 -35.745  1.00  0.00    -0.311 OA
BRANCH  15  16
HETATM   16  C   UNL     1     -11.023   9.160 -37.011  1.00  0.00     0.076 A 
HETATM   17  C   UNL     1      -9.864   9.848 -37.381  1.00  0.00     0.037 A 
HETATM   18  C   UNL     1      -9.755  10.396 -38.660  1.00  0.00     0.003 A 
HETATM   19  C   UNL     1     -10.796  10.248 -39.574  1.00  0.00     0.000 A 
HETATM   20  C   UNL     1     -11.946   9.544 -39.215  1.00  0.00     0.003 A 
HETATM   21  C   UNL     1     -12.057   8.991 -37.937  1.00  0.00     0.037 A 
ENDBRANCH  15  16
ENDBRANCH  12  15
ENDBRANCH   7   9
ENDBRANCH   1   7
BRANCH   3  22
HETATM   22  N   UNL     1     -13.432  -0.878 -33.490  1.00  0.00    -0.270 NA
HETATM   23  H   UNL     1     -14.293  -0.550 -33.067  1.00  0.00     0.127 HD
HETATM   24  H   UNL     1     -13.552  -1.427 -34.330  1.00  0.00     0.127 HD
ENDBRANCH   3  22
BRANCH   5  25
HETATM   25  C   UNL     1      -9.319   1.203 -32.398  1.00  0.00     0.316 C 
BRANCH  25  26
HETATM   26  N   UNL     1      -8.017   0.830 -33.133  1.00  0.00    -0.061 N 
HETATM   27  H   UNL     1      -7.590   1.732 -33.386  1.00  0.00     0.280 HD
HETATM   28  C   UNL     1      -7.032   0.092 -32.231  1.00  0.00     0.255 C 
HETATM   29  C   UNL     1      -5.710  -0.169 -32.993  1.00  0.00     0.152 C 
HETATM   30  N   UNL     1      -5.924  -0.831 -34.307  1.00  0.00    -0.364 N 
HETATM   31  C   UNL     1      -6.946  -0.192 -35.173  1.00  0.00     0.152 C 
HETATM   32  C   UNL     1      -8.278   0.055 -34.419  1.00  0.00     0.255 C 
BRANCH  30  33
HETATM   33  C   UNL     1      -5.736  -2.194 -34.434  1.00  0.00     0.102 A 
HETATM   34  N   UNL     1      -4.534  -2.693 -34.087  1.00  0.00    -0.352 N 
HETATM   35  H   UNL     1      -3.851  -2.041 -33.709  1.00  0.00     0.166 HD
HETATM   36  C   UNL     1      -4.218  -3.996 -34.136  1.00  0.00     0.089 A 
HETATM   37  C   UNL     1      -5.157  -4.920 -34.561  1.00  0.00     0.017 A 
HETATM   38  C   UNL     1      -6.422  -4.471 -34.911  1.00  0.00     0.005 A 
HETATM   39  C   UNL     1      -6.717  -3.108 -34.841  1.00  0.00     0.048 A 
ENDBRANCH  30  33
ENDBRANCH  25  26
ENDBRANCH   5  25
TORSDOF 8
ENDMDL
MODEL 9
REMARK VINA RESULT:      -8.9      4.473     11.250
REMARK  8 active torsions:
REMARK  status: ('A' for Active; 'I' for Inactive)
REMARK    1  A    between atoms: C_4  and  O_5 
REMARK    2  A    between atoms: O_5  and  C_6 
REMARK    3  A    between atoms: C_9  and  N_10 
REMARK    4  A    between atoms: N_10  and  C_11 
REMARK    5  A    between atoms: C_13  and  N_14 
REMARK    6  A    between atoms: C_16  and  C_17 
REMARK    7  A    between atoms: C_17  and  N_18 
REMARK    8  A    between atoms: N_22  and  C_23 
ROOT
HETATM    1  C   UNL     1      -3.986   1.980 -31.963  1.00  0.00     0.731 A 
HETATM    2  N   UNL     1      -3.079   1.017 -31.865  1.00  0.00    -0.031 NA
HETATM    3  C   UNL     1      -3.517  -0.186 -31.536  1.00  0.00     0.219 A 
HETATM    4  N   UNL     1      -4.787  -0.491 -31.319  1.00  0.00    -0.200 NA
HETATM    5  C   UNL     1      -5.629   0.532 -31.421  1.00  0.00     0.174 A 
HETATM    6  N   UNL     1      -5.288   1.765 -31.789  1.00  0.00    -0.045 NA
ENDROOT
BRANCH   1   7
HETATM    7  N   UNL     1      -3.504   3.227 -32.343  1.00  0.00    -0.188 N 
HETATM    8  H   UNL     1      -3.257   3.212 -33.326  1.00  0.00     0.184 HD
BRANCH   7   9
HETATM    9  C   UNL     1      -3.039   4.343 -31.632  1.00  0.00     0.049 A 
HETATM   10  C   UNL     1      -3.875   5.263 -30.988  1.00  0.00     0.033 A 
HETATM   11  C   UNL     1      -3.349   6.379 -30.327  1.00  0.00     0.039 A 
HETATM   12  C   UNL     1      -1.974   6.588 -30.298  1.00  0.00     0.076 A 
HETATM   13  C   UNL     1      -1.124   5.715 -30.970  1.00  0.00     0.039 A 
HETATM   14  C   UNL     1      -1.657   4.601 -31.627  1.00  0.00     0.033 A 
BRANCH  12  15
HETATM   15  O   UNL     1      -1.518   7.715 -29.661  1.00  0.00    -0.311 OA
BRANCH  15  16
HETATM   16  C   UNL     1      -0.679   7.548 -28.581  1.00  0.00     0.076 A 
HETATM   17  C   UNL     1       0.569   8.172 -28.669  1.00  0.00     0.037 A 
HETATM   18  C   UNL     1       1.468   8.090 -27.605  1.00  0.00     0.003 A 
HETATM   19  C   UNL     1       1.118   7.395 -26.448  1.00  0.00     0.000 A 
HETATM   20  C   UNL     1      -0.134   6.788 -26.350  1.00  0.00     0.003 A 
HETATM   21  C   UNL     1      -1.038   6.872 -27.411  1.00  0.00     0.037 A 
ENDBRANCH  15  16
ENDBRANCH  12  15
ENDBRANCH   7   9
ENDBRANCH   1   7
BRANCH   3  22
HETATM   22  N   UNL     1      -2.595  -1.205 -31.456  1.00  0.00    -0.270 NA
HETATM   23  H   UNL     1      -1.664  -0.867 -31.674  1.00  0.00     0.127 HD
HETATM   24  H   UNL     1      -2.668  -1.722 -30.590  1.00  0.00     0.127 HD
ENDBRANCH   3  22
BRANCH   5  25
HETATM   25  C   UNL     1      -7.110   0.221 -31.346  1.00  0.00     0.316 C 
BRANCH  25  26
HETATM   26  N   UNL     1      -8.018   1.063 -32.265  1.00  0.00    -0.061 N 
HETATM   27  H   UNL     1      -7.375   1.693 -32.763  1.00  0.00     0.280 HD
HETATM   28  C   UNL     1      -8.732   0.213 -33.312  1.00  0.00     0.255 C 
HETATM   29  C   UNL     1      -9.550   1.121 -34.262  1.00  0.00     0.152 C 
HETATM   30  N   UNL     1     -10.452   2.052 -33.535  1.00  0.00    -0.364 N 
HETATM   31  C   UNL     1      -9.810   2.826 -32.444  1.00  0.00     0.152 C 
HETATM   32  C   UNL     1      -9.004   1.918 -31.480  1.00  0.00     0.255 C 
BRANCH  30  33
HETATM   33  C   UNL     1     -11.795   1.751 -33.405  1.00  0.00     0.102 A 
HETATM   34  N   UNL     1     -12.581   2.657 -32.793  1.00  0.00    -0.352 N 
HETATM   35  H   UNL     1     -12.146   3.530 -32.504  1.00  0.00     0.166 HD
HETATM   36  C   UNL     1     -13.903   2.510 -32.618  1.00  0.00     0.089 A 
HETATM   37  C   UNL     1     -14.540   1.372 -33.083  1.00  0.00     0.017 A 
HETATM   38  C   UNL     1     -13.788   0.410 -33.741  1.00  0.00     0.005 A 
HETATM   39  C   UNL     1     -12.416   0.601 -33.911  1.00  0.00     0.048 A 
ENDBRANCH  30  33
ENDBRANCH  25  26
ENDBRANCH   5  25
TORSDOF 8
ENDMDL
MODEL 10
REMARK VINA RESULT:      -8.8      4.590      7.437
REMARK  8 active torsions:
REMARK  status: ('A' for Active; 'I' for Inactive)
REMARK    1  A    between atoms: C_4  and  O_5 
REMARK    2  A    between atoms: O_5  and  C_6 
REMARK    3  A    between atoms: C_9  and  N_10 
REMARK    4  A    between atoms: N_10  and  C_11 
REMARK    5  A    between atoms: C_13  and  N_14 
REMARK    6  A    between atoms: C_16  and  C_17 
REMARK    7  A    between atoms: C_17  and  N_18 
REMARK    8  A    between atoms: N_22  and  C_23 
ROOT
HETATM    1  C   UNL     1     -10.601   2.015 -33.421  1.00  0.00     0.731 A 
HETATM    2  N   UNL     1     -11.153   2.391 -34.568  1.00  0.00    -0.031 NA
HETATM    3  C   UNL     1     -11.734   3.578 -34.590  1.00  0.00     0.219 A 
HETATM    4  N   UNL     1     -11.785   4.410 -33.561  1.00  0.00    -0.200 NA
HETATM    5  C   UNL     1     -11.223   3.952 -32.447  1.00  0.00     0.174 A 
HETATM    6  N   UNL     1     -10.579   2.793 -32.341  1.00  0.00    -0.045 NA
ENDROOT
BRANCH   1   7
HETATM    7  N   UNL     1      -9.968   0.777 -33.434  1.00  0.00    -0.188 N 
HETATM    8  H   UNL     1     -10.616   0.060 -33.128  1.00  0.00     0.184 HD
BRANCH   7   9
HETATM    9  C   UNL     1      -8.625   0.377 -33.493  1.00  0.00     0.049 A 
HETATM   10  C   UNL     1      -7.824   0.159 -32.366  1.00  0.00     0.033 A 
HETATM   11  C   UNL     1      -6.477  -0.202 -32.495  1.00  0.00     0.039 A 
HETATM   12  C   UNL     1      -5.914  -0.353 -33.758  1.00  0.00     0.076 A 
HETATM   13  C   UNL     1      -6.675  -0.097 -34.894  1.00  0.00     0.039 A 
HETATM   14  C   UNL     1      -8.020   0.262 -34.758  1.00  0.00     0.033 A 
BRANCH  12  15
HETATM   15  O   UNL     1      -4.582  -0.679 -33.821  1.00  0.00    -0.311 OA
BRANCH  15  16
HETATM   16  C   UNL     1      -4.217  -1.963 -33.482  1.00  0.00     0.076 A 
HETATM   17  C   UNL     1      -4.554  -2.962 -34.400  1.00  0.00     0.037 A 
HETATM   18  C   UNL     1      -4.188  -4.287 -34.157  1.00  0.00     0.003 A 
HETATM   19  C   UNL     1      -3.476  -4.614 -33.004  1.00  0.00     0.000 A 
HETATM   20  C   UNL     1      -3.120  -3.616 -32.097  1.00  0.00     0.003 A 
HETATM   21  C   UNL     1      -3.481  -2.289 -32.339  1.00  0.00     0.037 A 
ENDBRANCH  15  16
ENDBRANCH  12  15
ENDBRANCH   7   9
ENDBRANCH   1   7
BRANCH   3  22
HETATM   22  N   UNL     1     -12.288   4.000 -35.777  1.00  0.00    -0.270 NA
HETATM   23  H   UNL     1     -12.095   4.983 -35.936  1.00  0.00     0.127 HD
HETATM   24  H   UNL     1     -12.052   3.390 -36.548  1.00  0.00     0.127 HD
ENDBRANCH   3  22
BRANCH   5  25
HETATM   25  C   UNL     1     -11.103   4.915 -31.284  1.00  0.00     0.316 C 
BRANCH  25  26
HETATM   26  N   UNL     1      -9.690   5.473 -31.021  1.00  0.00    -0.061 N 
HETATM   27  H   UNL     1      -9.845   6.349 -30.505  1.00  0.00     0.280 HD
HETATM   28  C   UNL     1      -8.861   4.554 -30.127  1.00  0.00     0.255 C 
HETATM   29  C   UNL     1      -7.492   5.210 -29.820  1.00  0.00     0.152 C 
HETATM   30  N   UNL     1      -6.778   5.652 -31.046  1.00  0.00    -0.364 N 
HETATM   31  C   UNL     1      -7.585   6.469 -31.984  1.00  0.00     0.152 C 
HETATM   32  C   UNL     1      -8.949   5.808 -32.309  1.00  0.00     0.255 C 
BRANCH  30  33
HETATM   33  C   UNL     1      -5.770   4.869 -31.579  1.00  0.00     0.102 A 
HETATM   34  N   UNL     1      -4.501   5.176 -31.250  1.00  0.00    -0.352 N 
HETATM   35  H   UNL     1      -4.363   5.940 -30.592  1.00  0.00     0.166 HD
HETATM   36  C   UNL     1      -3.428   4.492 -31.673  1.00  0.00     0.089 A 
HETATM   37  C   UNL     1      -3.590   3.392 -32.498  1.00  0.00     0.017 A 
HETATM   38  C   UNL     1      -4.875   3.011 -32.855  1.00  0.00     0.005 A 
HETATM   39  C   UNL     1      -5.968   3.744 -32.389  1.00  0.00     0.048 A 
ENDBRANCH  30  33
ENDBRANCH  25  26
ENDBRANCH   5  25
TORSDOF 8
ENDMDL
