MODEL 1
REMARK VINA RESULT:     -10.2      0.000      0.000
REMARK  8 active torsions:
REMARK  status: ('A' for Active; 'I' for Inactive)
REMARK    1  A    between atoms: C_8  and  C_9 
REMARK    2  A    between atoms: C_9  and  C_10 
REMARK       I    between atoms: C_10  and  N_11 
REMARK    3  A    between atoms: N_11  and  C_27 
REMARK    4  A    between atoms: N_11  and  C_12 
REMARK    5  A    between atoms: C_12  and  C_13 
REMARK    6  A    between atoms: C_12  and  C_22 
REMARK       I    between atoms: C_13  and  N_14 
REMARK    7  A    between atoms: N_14  and  C_15 
REMARK    8  A    between atoms: C_27  and  C_28 
ROOT
HETATM    1  C   UNL     1      -7.225   1.180 -34.615  1.00  0.00     0.225 C 
HETATM    2  N   UNL     1      -7.584   2.182 -33.710  1.00  0.00    -0.330 N 
HETATM    3  O   UNL     1      -6.677   1.446 -35.689  1.00  0.00    -0.273 OA
ENDROOT
BRANCH   2   4
HETATM    4  C   UNL     1      -7.200   3.564 -34.050  1.00  0.00     0.165 C 
BRANCH   4   5
HETATM    5  C   UNL     1      -5.745   3.872 -33.768  1.00  0.00    -0.037 A 
HETATM    6  C   UNL     1      -5.127   4.983 -34.369  1.00  0.00     0.048 A 
HETATM    7  C   UNL     1      -3.788   5.201 -34.119  1.00  0.00     0.105 A 
HETATM    8  C   UNL     1      -3.062   4.380 -33.290  1.00  0.00     0.105 A 
HETATM    9  O   UNL     1      -3.032   6.200 -34.648  1.00  0.00    -0.323 OA
HETATM   10  O   UNL     1      -1.761   4.760 -33.187  1.00  0.00    -0.323 OA
HETATM   11  C   UNL     1      -3.636   3.302 -32.656  1.00  0.00     0.040 A 
HETATM   12  C   UNL     1      -1.749   5.916 -34.049  1.00  0.00     0.352 A 
HETATM   13  C   UNL     1      -4.991   3.054 -32.897  1.00  0.00     0.012 A 
ENDBRANCH   4   5
ENDBRANCH   2   4
BRANCH   2  14
HETATM   14  C   UNL     1      -8.588   1.957 -32.635  1.00  0.00     0.219 C 
BRANCH  14  15
HETATM   15  C   UNL     1     -10.048   1.814 -33.174  1.00  0.00     0.246 C 
HETATM   16  N   UNL     1     -10.483   2.708 -34.125  1.00  0.00    -0.354 N 
HETATM   17  H   UNL     1      -9.865   3.486 -34.331  1.00  0.00     0.162 HD
HETATM   18  O   UNL     1     -10.744   0.866 -32.808  1.00  0.00    -0.271 OA
BRANCH  16  19
HETATM   19  C   UNL     1     -11.842   2.833 -34.654  1.00  0.00     0.084 C 
HETATM   20  C   UNL     1     -12.429   1.556 -35.280  1.00  0.00     0.025 C 
HETATM   21  C   UNL     1     -13.289   0.691 -34.363  1.00  0.00     0.002 C 
HETATM   22  C   UNL     1     -14.272   1.508 -33.536  1.00  0.00     0.000 C 
HETATM   23  C   UNL     1     -13.572   2.616 -32.760  1.00  0.00     0.002 C 
HETATM   24  C   UNL     1     -12.797   3.545 -33.687  1.00  0.00     0.025 C 
ENDBRANCH  16  19
ENDBRANCH  14  15
BRANCH  14  25
HETATM   25  C   UNL     1      -8.416   2.910 -31.460  1.00  0.00     0.014 A 
HETATM   26  S   UNL     1      -9.546   4.202 -31.249  1.00  0.00    -0.104 SA
HETATM   27  C   UNL     1      -8.778   4.748 -29.827  1.00  0.00     0.050 A 
HETATM   28  C   UNL     1      -7.724   3.943 -29.472  1.00  0.00     0.008 A 
HETATM   29  C   UNL     1      -7.533   2.876 -30.394  1.00  0.00     0.017 A 
ENDBRANCH  14  25
ENDBRANCH   2  14
BRANCH   1  30
HETATM   30  C   UNL     1      -7.402  -0.277 -34.220  1.00  0.00     0.144 C 
BRANCH  30  31
HETATM   31  C   UNL     1      -6.177  -1.127 -34.058  1.00  0.00    -0.021 A 
HETATM   32  C   UNL     1      -5.938  -2.513 -34.358  1.00  0.00    -0.001 A 
HETATM   33  C   UNL     1      -6.700  -3.562 -34.915  1.00  0.00     0.014 A 
HETATM   34  C   UNL     1      -4.637  -2.811 -33.940  1.00  0.00     0.042 A 
HETATM   35  C   UNL     1      -6.159  -4.852 -34.999  1.00  0.00     0.001 A 
HETATM   36  C   UNL     1      -4.865  -5.112 -34.559  1.00  0.00     0.002 A 
HETATM   37  C   UNL     1      -4.076  -4.091 -34.029  1.00  0.00     0.030 A 
HETATM   38  N   UNL     1      -4.085  -1.650 -33.460  1.00  0.00    -0.365 N 
HETATM   39  H   UNL     1      -3.144  -1.569 -33.102  1.00  0.00     0.165 HD
HETATM   40  C   UNL     1      -4.999  -0.638 -33.517  1.00  0.00     0.097 A 
ENDBRANCH  30  31
ENDBRANCH   1  30
TORSDOF 8
ENDMDL
MODEL 2
REMARK VINA RESULT:     -10.2      1.309      1.730
REMARK  8 active torsions:
REMARK  status: ('A' for Active; 'I' for Inactive)
REMARK    1  A    between atoms: C_8  and  C_9 
REMARK    2  A    between atoms: C_9  and  C_10 
REMARK       I    between atoms: C_10  and  N_11 
REMARK    3  A    between atoms: N_11  and  C_27 
REMARK    4  A    between atoms: N_11  and  C_12 
REMARK    5  A    between atoms: C_12  and  C_13 
REMARK    6  A    between atoms: C_12  and  C_22 
REMARK       I    between atoms: C_13  and  N_14 
REMARK    7  A    between atoms: N_14  and  C_15 
REMARK    8  A    between atoms: C_27  and  C_28 
ROOT
HETATM    1  C   UNL     1      -6.790   1.532 -33.651  1.00  0.00     0.225 C 
HETATM    2  N   UNL     1      -6.822   2.696 -32.879  1.00  0.00    -0.330 N 
HETATM    3  O   UNL     1      -6.552   1.566 -34.862  1.00  0.00    -0.273 OA
ENDROOT
BRANCH   2   4
HETATM    4  C   UNL     1      -6.470   3.959 -33.553  1.00  0.00     0.165 C 
BRANCH   4   5
HETATM    5  C   UNL     1      -5.002   4.310 -33.446  1.00  0.00    -0.037 A 
HETATM    6  C   UNL     1      -4.535   5.553 -33.910  1.00  0.00     0.048 A 
HETATM    7  C   UNL     1      -3.183   5.813 -33.835  1.00  0.00     0.105 A 
HETATM    8  C   UNL     1      -2.298   4.906 -33.302  1.00  0.00     0.105 A 
HETATM    9  O   UNL     1      -2.563   6.942 -34.272  1.00  0.00    -0.323 OA
HETATM   10  O   UNL     1      -1.014   5.350 -33.331  1.00  0.00    -0.323 OA
HETATM   11  C   UNL     1      -2.718   3.693 -32.806  1.00  0.00     0.040 A 
HETATM   12  C   UNL     1      -1.189   6.642 -33.946  1.00  0.00     0.352 A 
HETATM   13  C   UNL     1      -4.082   3.400 -32.877  1.00  0.00     0.012 A 
ENDBRANCH   4   5
ENDBRANCH   2   4
BRANCH   2  14
HETATM   14  C   UNL     1      -7.495   2.750 -31.553  1.00  0.00     0.219 C 
BRANCH  14  15
HETATM   15  C   UNL     1      -9.055   2.735 -31.651  1.00  0.00     0.246 C 
HETATM   16  N   UNL     1      -9.636   3.062 -32.854  1.00  0.00    -0.354 N 
HETATM   17  H   UNL     1      -9.015   3.413 -33.575  1.00  0.00     0.162 HD
HETATM   18  O   UNL     1      -9.724   2.354 -30.689  1.00  0.00    -0.271 OA
BRANCH  16  19
HETATM   19  C   UNL     1     -11.065   3.241 -33.118  1.00  0.00     0.084 C 
HETATM   20  C   UNL     1     -11.427   4.422 -34.035  1.00  0.00     0.025 C 
HETATM   21  C   UNL     1     -11.597   4.097 -35.516  1.00  0.00     0.002 C 
HETATM   22  C   UNL     1     -12.411   2.833 -35.750  1.00  0.00     0.000 C 
HETATM   23  C   UNL     1     -11.845   1.646 -34.982  1.00  0.00     0.002 C 
HETATM   24  C   UNL     1     -11.773   1.931 -33.486  1.00  0.00     0.025 C 
ENDBRANCH  16  19
ENDBRANCH  14  15
BRANCH  14  25
HETATM   25  C   UNL     1      -6.908   3.815 -30.638  1.00  0.00     0.014 A 
HETATM   26  S   UNL     1      -7.754   5.310 -30.432  1.00  0.00    -0.104 SA
HETATM   27  C   UNL     1      -6.594   5.906 -29.332  1.00  0.00     0.050 A 
HETATM   28  C   UNL     1      -5.613   4.982 -29.069  1.00  0.00     0.008 A 
HETATM   29  C   UNL     1      -5.808   3.775 -29.798  1.00  0.00     0.017 A 
ENDBRANCH  14  25
ENDBRANCH   2  14
BRANCH   1  30
HETATM   30  C   UNL     1      -6.933   0.182 -32.968  1.00  0.00     0.144 C 
BRANCH  30  31
HETATM   31  C   UNL     1      -5.880  -0.857 -33.213  1.00  0.00    -0.021 A 
HETATM   32  C   UNL     1      -5.940  -2.129 -33.883  1.00  0.00    -0.001 A 
HETATM   33  C   UNL     1      -6.940  -2.857 -34.561  1.00  0.00     0.014 A 
HETATM   34  C   UNL     1      -4.681  -2.725 -33.756  1.00  0.00     0.042 A 
HETATM   35  C   UNL     1      -6.664  -4.141 -35.048  1.00  0.00     0.001 A 
HETATM   36  C   UNL     1      -5.403  -4.706 -34.889  1.00  0.00     0.002 A 
HETATM   37  C   UNL     1      -4.383  -4.003 -34.248  1.00  0.00     0.030 A 
HETATM   38  N   UNL     1      -3.872  -1.839 -33.091  1.00  0.00    -0.365 N 
HETATM   39  H   UNL     1      -2.900  -2.004 -32.872  1.00  0.00     0.165 HD
HETATM   40  C   UNL     1      -4.580  -0.721 -32.752  1.00  0.00     0.097 A 
ENDBRANCH  30  31
ENDBRANCH   1  30
TORSDOF 8
ENDMDL
MODEL 3
REMARK VINA RESULT:      -9.8      2.401      7.085
REMARK  8 active torsions:
REMARK  status: ('A' for Active; 'I' for Inactive)
REMARK    1  A    between atoms: C_8  and  C_9 
REMARK    2  A    between atoms: C_9  and  C_10 
REMARK       I    between atoms: C_10  and  N_11 
REMARK    3  A    between atoms: N_11  and  C_27 
REMARK    4  A    between atoms: N_11  and  C_12 
REMARK    5  A    between atoms: C_12  and  C_13 
REMARK    6  A    between atoms: C_12  and  C_22 
REMARK       I    between atoms: C_13  and  N_14 
REMARK    7  A    between atoms: N_14  and  C_15 
REMARK    8  A    between atoms: C_27  and  C_28 
ROOT
HETATM    1  C   UNL     1      -5.916   1.406 -30.884  1.00  0.00     0.225 C 
HETATM    2  N   UNL     1      -6.718   2.486 -31.258  1.00  0.00    -0.330 N 
HETATM    3  O   UNL     1      -6.299   0.572 -30.057  1.00  0.00    -0.273 OA
ENDROOT
BRANCH   2   4
HETATM    4  C   UNL     1      -8.079   2.541 -30.692  1.00  0.00     0.165 C 
BRANCH   4   5
HETATM    5  C   UNL     1      -9.147   2.049 -31.644  1.00  0.00    -0.037 A 
HETATM    6  C   UNL     1     -10.227   2.882 -31.988  1.00  0.00     0.048 A 
HETATM    7  C   UNL     1     -11.201   2.376 -32.824  1.00  0.00     0.105 A 
HETATM    8  C   UNL     1     -11.128   1.104 -33.337  1.00  0.00     0.105 A 
HETATM    9  O   UNL     1     -12.326   3.030 -33.222  1.00  0.00    -0.323 OA
HETATM   10  O   UNL     1     -12.191   0.797 -34.127  1.00  0.00    -0.323 OA
HETATM   11  C   UNL     1     -10.072   0.269 -33.053  1.00  0.00     0.040 A 
HETATM   12  C   UNL     1     -12.946   2.024 -34.051  1.00  0.00     0.352 A 
HETATM   13  C   UNL     1      -9.074   0.753 -32.203  1.00  0.00     0.012 A 
ENDBRANCH   4   5
ENDBRANCH   2   4
BRANCH   2  14
HETATM   14  C   UNL     1      -6.158   3.703 -31.906  1.00  0.00     0.219 C 
BRANCH  14  15
HETATM   15  C   UNL     1      -5.143   4.474 -31.001  1.00  0.00     0.246 C 
HETATM   16  N   UNL     1      -4.093   5.124 -31.606  1.00  0.00    -0.354 N 
HETATM   17  H   UNL     1      -3.973   4.961 -32.600  1.00  0.00     0.162 HD
HETATM   18  O   UNL     1      -5.346   4.557 -29.789  1.00  0.00    -0.271 OA
BRANCH  16  19
HETATM   19  C   UNL     1      -2.967   5.781 -30.940  1.00  0.00     0.084 C 
HETATM   20  C   UNL     1      -1.591   5.133 -31.170  1.00  0.00     0.025 C 
HETATM   21  C   UNL     1      -0.752   5.719 -32.302  1.00  0.00     0.002 C 
HETATM   22  C   UNL     1      -0.750   7.241 -32.306  1.00  0.00     0.000 C 
HETATM   23  C   UNL     1      -2.164   7.807 -32.312  1.00  0.00     0.002 C 
HETATM   24  C   UNL     1      -2.973   7.305 -31.121  1.00  0.00     0.025 C 
ENDBRANCH  16  19
ENDBRANCH  14  15
BRANCH  14  25
HETATM   25  C   UNL     1      -7.226   4.562 -32.568  1.00  0.00     0.014 A 
HETATM   26  S   UNL     1      -7.831   5.949 -31.730  1.00  0.00    -0.104 SA
HETATM   27  C   UNL     1      -8.867   6.373 -33.018  1.00  0.00     0.050 A 
HETATM   28  C   UNL     1      -8.725   5.529 -34.091  1.00  0.00     0.008 A 
HETATM   29  C   UNL     1      -7.766   4.506 -33.841  1.00  0.00     0.017 A 
ENDBRANCH  14  25
ENDBRANCH   2  14
BRANCH   1  30
HETATM   30  C   UNL     1      -4.592   1.181 -31.594  1.00  0.00     0.144 C 
BRANCH  30  31
HETATM   31  C   UNL     1      -4.322  -0.168 -32.193  1.00  0.00    -0.021 A 
HETATM   32  C   UNL     1      -5.041  -0.928 -33.180  1.00  0.00    -0.001 A 
HETATM   33  C   UNL     1      -6.201  -0.719 -33.955  1.00  0.00     0.014 A 
HETATM   34  C   UNL     1      -4.386  -2.157 -33.316  1.00  0.00     0.042 A 
HETATM   35  C   UNL     1      -6.676  -1.735 -34.795  1.00  0.00     0.001 A 
HETATM   36  C   UNL     1      -6.004  -2.950 -34.892  1.00  0.00     0.002 A 
HETATM   37  C   UNL     1      -4.839  -3.179 -34.160  1.00  0.00     0.030 A 
HETATM   38  N   UNL     1      -3.287  -2.129 -32.495  1.00  0.00    -0.365 N 
HETATM   39  H   UNL     1      -2.622  -2.884 -32.403  1.00  0.00     0.165 HD
HETATM   40  C   UNL     1      -3.243  -0.948 -31.811  1.00  0.00     0.097 A 
ENDBRANCH  30  31
ENDBRANCH   1  30
TORSDOF 8
ENDMDL
MODEL 4
REMARK VINA RESULT:      -9.7      3.920      8.195
REMARK  8 active torsions:
REMARK  status: ('A' for Active; 'I' for Inactive)
REMARK    1  A    between atoms: C_8  and  C_9 
REMARK    2  A    between atoms: C_9  and  C_10 
REMARK       I    between atoms: C_10  and  N_11 
REMARK    3  A    between atoms: N_11  and  C_27 
REMARK    4  A    between atoms: N_11  and  C_12 
REMARK    5  A    between atoms: C_12  and  C_13 
REMARK    6  A    between atoms: C_12  and  C_22 
REMARK       I    between atoms: C_13  and  N_14 
REMARK    7  A    between atoms: N_14  and  C_15 
REMARK    8  A    between atoms: C_27  and  C_28 
ROOT
HETATM    1  C   UNL     1      -4.619   2.884 -30.700  1.00  0.00     0.225 C 
HETATM    2  N   UNL     1      -4.547   4.270 -30.856  1.00  0.00    -0.330 N 
HETATM    3  O   UNL     1      -5.521   2.354 -30.044  1.00  0.00    -0.273 OA
ENDROOT
BRANCH   2   4
HETATM    4  C   UNL     1      -5.644   5.069 -30.281  1.00  0.00     0.165 C 
BRANCH   4   5
HETATM    5  C   UNL     1      -6.943   4.952 -31.049  1.00  0.00    -0.037 A 
HETATM    6  C   UNL     1      -6.965   5.168 -32.439  1.00  0.00     0.048 A 
HETATM    7  C   UNL     1      -8.177   5.095 -33.092  1.00  0.00     0.105 A 
HETATM    8  C   UNL     1      -9.343   4.798 -32.427  1.00  0.00     0.105 A 
HETATM    9  O   UNL     1      -8.381   5.314 -34.419  1.00  0.00    -0.323 OA
HETATM   10  O   UNL     1     -10.425   4.786 -33.250  1.00  0.00    -0.323 OA
HETATM   11  C   UNL     1      -9.360   4.547 -31.075  1.00  0.00     0.040 A 
HETATM   12  C   UNL     1      -9.808   5.114 -34.512  1.00  0.00     0.352 A 
HETATM   13  C   UNL     1      -8.146   4.621 -30.386  1.00  0.00     0.012 A 
ENDBRANCH   4   5
ENDBRANCH   2   4
BRANCH   2  14
HETATM   14  C   UNL     1      -3.293   4.958 -31.265  1.00  0.00     0.219 C 
BRANCH  14  15
HETATM   15  C   UNL     1      -3.009   6.262 -30.451  1.00  0.00     0.246 C 
HETATM   16  N   UNL     1      -2.051   6.220 -29.465  1.00  0.00    -0.354 N 
HETATM   17  H   UNL     1      -1.670   5.307 -29.244  1.00  0.00     0.162 HD
HETATM   18  O   UNL     1      -3.578   7.310 -30.759  1.00  0.00    -0.271 OA
BRANCH  16  19
HETATM   19  C   UNL     1      -1.732   7.279 -28.506  1.00  0.00     0.084 C 
HETATM   20  C   UNL     1      -1.536   6.819 -27.052  1.00  0.00     0.025 C 
HETATM   21  C   UNL     1      -0.099   6.540 -26.621  1.00  0.00     0.002 C 
HETATM   22  C   UNL     1       0.873   7.614 -27.088  1.00  0.00     0.000 C 
HETATM   23  C   UNL     1       0.778   7.847 -28.590  1.00  0.00     0.002 C 
HETATM   24  C   UNL     1      -0.637   8.230 -29.009  1.00  0.00     0.025 C 
ENDBRANCH  16  19
ENDBRANCH  14  15
BRANCH  14  25
HETATM   25  C   UNL     1      -3.159   5.089 -32.775  1.00  0.00     0.014 A 
HETATM   26  S   UNL     1      -1.581   5.185 -33.477  1.00  0.00    -0.104 SA
HETATM   27  C   UNL     1      -2.205   5.266 -35.063  1.00  0.00     0.050 A 
HETATM   28  C   UNL     1      -3.573   5.162 -35.083  1.00  0.00     0.008 A 
HETATM   29  C   UNL     1      -4.117   5.035 -33.773  1.00  0.00     0.017 A 
ENDBRANCH  14  25
ENDBRANCH   2  14
BRANCH   1  30
HETATM   30  C   UNL     1      -3.638   1.999 -31.450  1.00  0.00     0.144 C 
BRANCH  30  31
HETATM   31  C   UNL     1      -4.183   0.923 -32.342  1.00  0.00    -0.021 A 
HETATM   32  C   UNL     1      -5.313   0.912 -33.232  1.00  0.00    -0.001 A 
HETATM   33  C   UNL     1      -6.289   1.853 -33.623  1.00  0.00     0.014 A 
HETATM   34  C   UNL     1      -5.410  -0.378 -33.764  1.00  0.00     0.042 A 
HETATM   35  C   UNL     1      -7.325   1.471 -34.485  1.00  0.00     0.001 A 
HETATM   36  C   UNL     1      -7.396   0.174 -34.983  1.00  0.00     0.002 A 
HETATM   37  C   UNL     1      -6.432  -0.774 -34.638  1.00  0.00     0.030 A 
HETATM   38  N   UNL     1      -4.358  -1.106 -33.269  1.00  0.00    -0.365 N 
HETATM   39  H   UNL     1      -4.172  -2.072 -33.499  1.00  0.00     0.165 HD
HETATM   40  C   UNL     1      -3.622  -0.342 -32.411  1.00  0.00     0.097 A 
ENDBRANCH  30  31
ENDBRANCH   1  30
TORSDOF 8
ENDMDL
MODEL 5
REMARK VINA RESULT:      -9.7      2.376      7.832
REMARK  8 active torsions:
REMARK  status: ('A' for Active; 'I' for Inactive)
REMARK    1  A    between atoms: C_8  and  C_9 
REMARK    2  A    between atoms: C_9  and  C_10 
REMARK       I    between atoms: C_10  and  N_11 
REMARK    3  A    between atoms: N_11  and  C_27 
REMARK    4  A    between atoms: N_11  and  C_12 
REMARK    5  A    between atoms: C_12  and  C_13 
REMARK    6  A    between atoms: C_12  and  C_22 
REMARK       I    between atoms: C_13  and  N_14 
REMARK    7  A    between atoms: N_14  and  C_15 
REMARK    8  A    between atoms: C_27  and  C_28 
ROOT
HETATM    1  C   UNL     1      -8.508   0.892 -33.927  1.00  0.00     0.225 C 
HETATM    2  N   UNL     1      -7.118   0.973 -33.817  1.00  0.00    -0.330 N 
HETATM    3  O   UNL     1      -9.049   0.392 -34.918  1.00  0.00    -0.273 OA
ENDROOT
BRANCH   2   4
HETATM    4  C   UNL     1      -6.321   0.355 -34.892  1.00  0.00     0.165 C 
BRANCH   4   5
HETATM    5  C   UNL     1      -6.078  -1.124 -34.688  1.00  0.00    -0.037 A 
HETATM    6  C   UNL     1      -4.840  -1.577 -34.197  1.00  0.00     0.048 A 
HETATM    7  C   UNL     1      -4.646  -2.937 -34.069  1.00  0.00     0.105 A 
HETATM    8  C   UNL     1      -5.630  -3.843 -34.385  1.00  0.00     0.105 A 
HETATM    9  O   UNL     1      -3.502  -3.542 -33.649  1.00  0.00    -0.323 OA
HETATM   10  O   UNL     1      -5.234  -5.130 -34.198  1.00  0.00    -0.323 OA
HETATM   11  C   UNL     1      -6.866  -3.441 -34.835  1.00  0.00     0.040 A 
HETATM   12  C   UNL     1      -3.884  -4.932 -33.731  1.00  0.00     0.352 A 
HETATM   13  C   UNL     1      -7.088  -2.068 -34.982  1.00  0.00     0.012 A 
ENDBRANCH   4   5
ENDBRANCH   2   4
BRANCH   2  14
HETATM   14  C   UNL     1      -6.450   1.911 -32.874  1.00  0.00     0.219 C 
BRANCH  14  15
HETATM   15  C   UNL     1      -6.171   3.318 -33.495  1.00  0.00     0.246 C 
HETATM   16  N   UNL     1      -4.917   3.861 -33.339  1.00  0.00    -0.354 N 
HETATM   17  H   UNL     1      -4.282   3.366 -32.723  1.00  0.00     0.162 HD
HETATM   18  O   UNL     1      -7.037   3.868 -34.176  1.00  0.00    -0.271 OA
BRANCH  16  19
HETATM   19  C   UNL     1      -4.493   5.210 -33.720  1.00  0.00     0.084 C 
HETATM   20  C   UNL     1      -3.812   6.029 -32.609  1.00  0.00     0.025 C 
HETATM   21  C   UNL     1      -2.287   5.984 -32.578  1.00  0.00     0.002 C 
HETATM   22  C   UNL     1      -1.667   6.141 -33.959  1.00  0.00     0.000 C 
HETATM   23  C   UNL     1      -2.232   5.132 -34.950  1.00  0.00     0.002 C 
HETATM   24  C   UNL     1      -3.748   5.246 -35.061  1.00  0.00     0.025 C 
ENDBRANCH  16  19
ENDBRANCH  14  15
BRANCH  14  25
HETATM   25  C   UNL     1      -5.276   1.275 -32.144  1.00  0.00     0.014 A 
HETATM   26  S   UNL     1      -5.583   0.074 -30.936  1.00  0.00    -0.104 SA
HETATM   27  C   UNL     1      -3.920  -0.163 -30.637  1.00  0.00     0.050 A 
HETATM   28  C   UNL     1      -3.135   0.597 -31.467  1.00  0.00     0.008 A 
HETATM   29  C   UNL     1      -3.912   1.401 -32.348  1.00  0.00     0.017 A 
ENDBRANCH  14  25
ENDBRANCH   2  14
BRANCH   1  30
HETATM   30  C   UNL     1      -9.373   1.318 -32.753  1.00  0.00     0.144 C 
BRANCH  30  31
HETATM   31  C   UNL     1     -10.743   1.861 -33.035  1.00  0.00    -0.021 A 
HETATM   32  C   UNL     1     -11.983   1.198 -33.333  1.00  0.00    -0.001 A 
HETATM   33  C   UNL     1     -12.397  -0.146 -33.447  1.00  0.00     0.014 A 
HETATM   34  C   UNL     1     -12.937   2.190 -33.583  1.00  0.00     0.042 A 
HETATM   35  C   UNL     1     -13.711  -0.444 -33.835  1.00  0.00     0.001 A 
HETATM   36  C   UNL     1     -14.626   0.572 -34.090  1.00  0.00     0.002 A 
HETATM   37  C   UNL     1     -14.257   1.910 -33.959  1.00  0.00     0.030 A 
HETATM   38  N   UNL     1     -12.325   3.404 -33.393  1.00  0.00    -0.365 N 
HETATM   39  H   UNL     1     -12.783   4.298 -33.493  1.00  0.00     0.165 HD
HETATM   40  C   UNL     1     -11.010   3.221 -33.073  1.00  0.00     0.097 A 
ENDBRANCH  30  31
ENDBRANCH   1  30
TORSDOF 8
ENDMDL
MODEL 6
REMARK VINA RESULT:      -9.7      1.373      1.897
REMARK  8 active torsions:
REMARK  status: ('A' for Active; 'I' for Inactive)
REMARK    1  A    between atoms: C_8  and  C_9 
REMARK    2  A    between atoms: C_9  and  C_10 
REMARK       I    between atoms: C_10  and  N_11 
REMARK    3  A    between atoms: N_11  and  C_27 
REMARK    4  A    between atoms: N_11  and  C_12 
REMARK    5  A    between atoms: C_12  and  C_13 
REMARK    6  A    between atoms: C_12  and  C_22 
REMARK       I    between atoms: C_13  and  N_14 
REMARK    7  A    between atoms: N_14  and  C_15 
REMARK    8  A    between atoms: C_27  and  C_28 
ROOT
HETATM    1  C   UNL     1      -7.067   1.706 -34.238  1.00  0.00     0.225 C 
HETATM    2  N   UNL     1      -7.441   2.832 -33.501  1.00  0.00    -0.330 N 
HETATM    3  O   UNL     1      -6.205   1.768 -35.119  1.00  0.00    -0.273 OA
ENDROOT
BRANCH   2   4
HETATM    4  C   UNL     1      -6.701   4.080 -33.758  1.00  0.00     0.165 C 
BRANCH   4   5
HETATM    5  C   UNL     1      -5.329   4.109 -33.120  1.00  0.00    -0.037 A 
HETATM    6  C   UNL     1      -4.354   5.012 -33.578  1.00  0.00     0.048 A 
HETATM    7  C   UNL     1      -3.103   4.974 -32.998  1.00  0.00     0.105 A 
HETATM    8  C   UNL     1      -2.802   4.099 -31.981  1.00  0.00     0.105 A 
HETATM    9  O   UNL     1      -2.039   5.746 -33.347  1.00  0.00    -0.323 OA
HETATM   10  O   UNL     1      -1.515   4.214 -31.558  1.00  0.00    -0.323 OA
HETATM   11  C   UNL     1      -3.736   3.223 -31.481  1.00  0.00     0.040 A 
HETATM   12  C   UNL     1      -1.037   5.261 -32.427  1.00  0.00     0.352 A 
HETATM   13  C   UNL     1      -5.010   3.235 -32.055  1.00  0.00     0.012 A 
ENDBRANCH   4   5
ENDBRANCH   2   4
BRANCH   2  14
HETATM   14  C   UNL     1      -8.724   2.897 -32.749  1.00  0.00     0.219 C 
BRANCH  14  15
HETATM   15  C   UNL     1      -9.964   3.158 -33.664  1.00  0.00     0.246 C 
HETATM   16  N   UNL     1     -11.170   2.605 -33.300  1.00  0.00    -0.354 N 
HETATM   17  H   UNL     1     -11.154   1.958 -32.520  1.00  0.00     0.162 HD
HETATM   18  O   UNL     1      -9.861   3.913 -34.632  1.00  0.00    -0.271 OA
BRANCH  16  19
HETATM   19  C   UNL     1     -12.409   2.614 -34.080  1.00  0.00     0.084 C 
HETATM   20  C   UNL     1     -12.725   1.311 -34.835  1.00  0.00     0.025 C 
HETATM   21  C   UNL     1     -13.646   0.325 -34.121  1.00  0.00     0.002 C 
HETATM   22  C   UNL     1     -14.850   1.003 -33.482  1.00  0.00     0.000 C 
HETATM   23  C   UNL     1     -14.434   2.143 -32.562  1.00  0.00     0.002 C 
HETATM   24  C   UNL     1     -13.602   3.184 -33.301  1.00  0.00     0.025 C 
ENDBRANCH  16  19
ENDBRANCH  14  15
BRANCH  14  25
HETATM   25  C   UNL     1      -8.634   3.771 -31.506  1.00  0.00     0.014 A 
HETATM   26  S   UNL     1      -9.512   5.260 -31.457  1.00  0.00    -0.104 SA
HETATM   27  C   UNL     1      -8.984   5.611 -29.873  1.00  0.00     0.050 A 
HETATM   28  C   UNL     1      -8.209   4.603 -29.355  1.00  0.00     0.008 A 
HETATM   29  C   UNL     1      -8.030   3.538 -30.282  1.00  0.00     0.017 A 
ENDBRANCH  14  25
ENDBRANCH   2  14
BRANCH   1  30
HETATM   30  C   UNL     1      -7.644   0.349 -33.868  1.00  0.00     0.144 C 
BRANCH  30  31
HETATM   31  C   UNL     1      -6.727  -0.838 -33.860  1.00  0.00    -0.021 A 
HETATM   32  C   UNL     1      -5.539  -1.114 -33.097  1.00  0.00    -0.001 A 
HETATM   33  C   UNL     1      -4.814  -0.438 -32.094  1.00  0.00     0.014 A 
HETATM   34  C   UNL     1      -5.036  -2.342 -33.541  1.00  0.00     0.042 A 
HETATM   35  C   UNL     1      -3.619  -0.982 -31.605  1.00  0.00     0.001 A 
HETATM   36  C   UNL     1      -3.144  -2.199 -32.082  1.00  0.00     0.002 A 
HETATM   37  C   UNL     1      -3.851  -2.908 -33.054  1.00  0.00     0.030 A 
HETATM   38  N   UNL     1      -5.905  -2.823 -34.488  1.00  0.00    -0.365 N 
HETATM   39  H   UNL     1      -5.795  -3.704 -34.971  1.00  0.00     0.165 HD
HETATM   40  C   UNL     1      -6.915  -1.929 -34.694  1.00  0.00     0.097 A 
ENDBRANCH  30  31
ENDBRANCH   1  30
TORSDOF 8
ENDMDL
MODEL 7
REMARK VINA RESULT:      -9.6      2.509      5.945
REMARK  8 active torsions:
REMARK  status: ('A' for Active; 'I' for Inactive)
REMARK    1  A    between atoms: C_8  and  C_9 
REMARK    2  A    between atoms: C_9  and  C_10 
REMARK       I    between atoms: C_10  and  N_11 
REMARK    3  A    between atoms: N_11  and  C_27 
REMARK    4  A    between atoms: N_11  and  C_12 
REMARK    5  A    between atoms: C_12  and  C_13 
REMARK    6  A    between atoms: C_12  and  C_22 
REMARK       I    between atoms: C_13  and  N_14 
REMARK    7  A    between atoms: N_14  and  C_15 
REMARK    8  A    between atoms: C_27  and  C_28 
ROOT
HETATM    1  C   UNL     1      -4.707   0.425 -31.528  1.00  0.00     0.225 C 
HETATM    2  N   UNL     1      -5.991   0.972 -31.595  1.00  0.00    -0.330 N 
HETATM    3  O   UNL     1      -4.136   0.250 -30.447  1.00  0.00    -0.273 OA
ENDROOT
BRANCH   2   4
HETATM    4  C   UNL     1      -6.672   1.248 -30.317  1.00  0.00     0.165 C 
BRANCH   4   5
HETATM    5  C   UNL     1      -6.738   2.721 -29.976  1.00  0.00    -0.037 A 
HETATM    6  C   UNL     1      -7.980   3.378 -29.911  1.00  0.00     0.048 A 
HETATM    7  C   UNL     1      -7.990   4.730 -29.641  1.00  0.00     0.105 A 
HETATM    8  C   UNL     1      -6.831   5.434 -29.414  1.00  0.00     0.105 A 
HETATM    9  O   UNL     1      -9.095   5.522 -29.581  1.00  0.00    -0.323 OA
HETATM   10  O   UNL     1      -7.059   6.753 -29.178  1.00  0.00    -0.323 OA
HETATM   11  C   UNL     1      -5.599   4.823 -29.435  1.00  0.00     0.040 A 
HETATM   12  C   UNL     1      -8.496   6.802 -29.284  1.00  0.00     0.352 A 
HETATM   13  C   UNL     1      -5.558   3.454 -29.714  1.00  0.00     0.012 A 
ENDBRANCH   4   5
ENDBRANCH   2   4
BRANCH   2  14
HETATM   14  C   UNL     1      -6.532   1.572 -32.844  1.00  0.00     0.219 C 
BRANCH  14  15
HETATM   15  C   UNL     1      -6.156   3.079 -33.020  1.00  0.00     0.246 C 
HETATM   16  N   UNL     1      -4.827   3.408 -33.153  1.00  0.00    -0.354 N 
HETATM   17  H   UNL     1      -4.159   2.659 -33.006  1.00  0.00     0.162 HD
HETATM   18  O   UNL     1      -7.047   3.923 -33.122  1.00  0.00    -0.271 OA
BRANCH  16  19
HETATM   19  C   UNL     1      -4.256   4.756 -33.190  1.00  0.00     0.084 C 
HETATM   20  C   UNL     1      -3.151   5.036 -32.158  1.00  0.00     0.025 C 
HETATM   21  C   UNL     1      -1.716   4.843 -32.638  1.00  0.00     0.002 C 
HETATM   22  C   UNL     1      -1.471   5.443 -34.015  1.00  0.00     0.000 C 
HETATM   23  C   UNL     1      -2.475   4.931 -35.040  1.00  0.00     0.002 C 
HETATM   24  C   UNL     1      -3.909   5.219 -34.611  1.00  0.00     0.025 C 
ENDBRANCH  16  19
ENDBRANCH  14  15
BRANCH  14  25
HETATM   25  C   UNL     1      -7.999   1.235 -33.072  1.00  0.00     0.014 A 
HETATM   26  S   UNL     1      -8.877   2.074 -34.303  1.00  0.00    -0.104 SA
HETATM   27  C   UNL     1     -10.304   1.191 -33.999  1.00  0.00     0.050 A 
HETATM   28  C   UNL     1     -10.120   0.234 -33.032  1.00  0.00     0.008 A 
HETATM   29  C   UNL     1      -8.792   0.243 -32.519  1.00  0.00     0.017 A 
ENDBRANCH  14  25
ENDBRANCH   2  14
BRANCH   1  30
HETATM   30  C   UNL     1      -4.044  -0.077 -32.800  1.00  0.00     0.144 C 
BRANCH  30  31
HETATM   31  C   UNL     1      -4.043  -1.552 -33.071  1.00  0.00    -0.021 A 
HETATM   32  C   UNL     1      -4.906  -2.367 -33.883  1.00  0.00    -0.001 A 
HETATM   33  C   UNL     1      -6.015  -2.126 -34.721  1.00  0.00     0.014 A 
HETATM   34  C   UNL     1      -4.498  -3.696 -33.719  1.00  0.00     0.042 A 
HETATM   35  C   UNL     1      -6.685  -3.198 -35.324  1.00  0.00     0.001 A 
HETATM   36  C   UNL     1      -6.258  -4.507 -35.124  1.00  0.00     0.002 A 
HETATM   37  C   UNL     1      -5.148  -4.779 -34.324  1.00  0.00     0.030 A 
HETATM   38  N   UNL     1      -3.404  -3.689 -32.892  1.00  0.00    -0.365 N 
HETATM   39  H   UNL     1      -2.893  -4.514 -32.612  1.00  0.00     0.165 HD
HETATM   40  C   UNL     1      -3.127  -2.414 -32.490  1.00  0.00     0.097 A 
ENDBRANCH  30  31
ENDBRANCH   1  30
TORSDOF 8
ENDMDL
MODEL 8
REMARK VINA RESULT:      -9.6      2.974      7.846
REMARK  8 active torsions:
REMARK  status: ('A' for Active; 'I' for Inactive)
REMARK    1  A    between atoms: C_8  and  C_9 
REMARK    2  A    between atoms: C_9  and  C_10 
REMARK       I    between atoms: C_10  and  N_11 
REMARK    3  A    between atoms: N_11  and  C_27 
REMARK    4  A    between atoms: N_11  and  C_12 
REMARK    5  A    between atoms: C_12  and  C_13 
REMARK    6  A    between atoms: C_12  and  C_22 
REMARK       I    between atoms: C_13  and  N_14 
REMARK    7  A    between atoms: N_14  and  C_15 
REMARK    8  A    between atoms: C_27  and  C_28 
ROOT
HETATM    1  C   UNL     1      -3.490   2.798 -32.284  1.00  0.00     0.225 C 
HETATM    2  N   UNL     1      -4.715   2.211 -32.611  1.00  0.00    -0.330 N 
HETATM    3  O   UNL     1      -2.864   2.463 -31.273  1.00  0.00    -0.273 OA
ENDROOT
BRANCH   2   4
HETATM    4  C   UNL     1      -5.187   1.113 -31.749  1.00  0.00     0.165 C 
BRANCH   4   5
HETATM    5  C   UNL     1      -4.619  -0.238 -32.129  1.00  0.00    -0.037 A 
HETATM    6  C   UNL     1      -5.204  -0.984 -33.168  1.00  0.00     0.048 A 
HETATM    7  C   UNL     1      -4.682  -2.229 -33.451  1.00  0.00     0.105 A 
HETATM    8  C   UNL     1      -3.606  -2.738 -32.765  1.00  0.00     0.105 A 
HETATM    9  O   UNL     1      -5.150  -3.093 -34.392  1.00  0.00    -0.323 OA
HETATM   10  O   UNL     1      -3.255  -3.981 -33.190  1.00  0.00    -0.323 OA
HETATM   11  C   UNL     1      -2.983  -2.027 -31.766  1.00  0.00     0.040 A 
HETATM   12  C   UNL     1      -4.238  -4.200 -34.222  1.00  0.00     0.352 A 
HETATM   13  C   UNL     1      -3.496  -0.764 -31.452  1.00  0.00     0.012 A 
ENDBRANCH   4   5
ENDBRANCH   2   4
BRANCH   2  14
HETATM   14  C   UNL     1      -5.674   2.852 -33.551  1.00  0.00     0.219 C 
BRANCH  14  15
HETATM   15  C   UNL     1      -6.114   4.285 -33.105  1.00  0.00     0.246 C 
HETATM   16  N   UNL     1      -6.094   4.584 -31.762  1.00  0.00    -0.354 N 
HETATM   17  H   UNL     1      -5.911   3.813 -31.130  1.00  0.00     0.162 HD
HETATM   18  O   UNL     1      -6.382   5.134 -33.956  1.00  0.00    -0.271 OA
BRANCH  16  19
HETATM   19  C   UNL     1      -6.592   5.807 -31.129  1.00  0.00     0.084 C 
HETATM   20  C   UNL     1      -7.967   5.689 -30.451  1.00  0.00     0.025 C 
HETATM   21  C   UNL     1      -7.957   5.390 -28.955  1.00  0.00     0.002 C 
HETATM   22  C   UNL     1      -6.939   6.228 -28.195  1.00  0.00     0.000 C 
HETATM   23  C   UNL     1      -5.545   6.105 -28.796  1.00  0.00     0.002 C 
HETATM   24  C   UNL     1      -5.533   6.506 -30.267  1.00  0.00     0.025 C 
ENDBRANCH  16  19
ENDBRANCH  14  15
BRANCH  14  25
HETATM   25  C   UNL     1      -6.806   1.921 -33.962  1.00  0.00     0.014 A 
HETATM   26  S   UNL     1      -8.327   2.028 -33.145  1.00  0.00    -0.104 SA
HETATM   27  C   UNL     1      -9.023   0.806 -34.111  1.00  0.00     0.050 A 
HETATM   28  C   UNL     1      -8.156   0.360 -35.077  1.00  0.00     0.008 A 
HETATM   29  C   UNL     1      -6.895   1.017 -35.007  1.00  0.00     0.017 A 
ENDBRANCH  14  25
ENDBRANCH   2  14
BRANCH   1  30
HETATM   30  C   UNL     1      -2.854   3.782 -33.251  1.00  0.00     0.144 C 
BRANCH  30  31
HETATM   31  C   UNL     1      -2.477   5.142 -32.742  1.00  0.00    -0.021 A 
HETATM   32  C   UNL     1      -1.453   5.560 -31.823  1.00  0.00    -0.001 A 
HETATM   33  C   UNL     1      -0.436   4.909 -31.093  1.00  0.00     0.014 A 
HETATM   34  C   UNL     1      -1.592   6.941 -31.645  1.00  0.00     0.042 A 
HETATM   35  C   UNL     1       0.366   5.637 -30.205  1.00  0.00     0.001 A 
HETATM   36  C   UNL     1       0.187   7.008 -30.045  1.00  0.00     0.002 A 
HETATM   37  C   UNL     1      -0.791   7.687 -30.772  1.00  0.00     0.030 A 
HETATM   38  N   UNL     1      -2.614   7.357 -32.460  1.00  0.00    -0.365 N 
HETATM   39  H   UNL     1      -2.925   8.315 -32.544  1.00  0.00     0.165 HD
HETATM   40  C   UNL     1      -3.158   6.290 -33.114  1.00  0.00     0.097 A 
ENDBRANCH  30  31
ENDBRANCH   1  30
TORSDOF 8
ENDMDL
MODEL 9
REMARK VINA RESULT:      -9.5      2.783      6.469
REMARK  8 active torsions:
REMARK  status: ('A' for Active; 'I' for Inactive)
REMARK    1  A    between atoms: C_8  and  C_9 
REMARK    2  A    between atoms: C_9  and  C_10 
REMARK       I    between atoms: C_10  and  N_11 
REMARK    3  A    between atoms: N_11  and  C_27 
REMARK    4  A    between atoms: N_11  and  C_12 
REMARK    5  A    between atoms: C_12  and  C_13 
REMARK    6  A    between atoms: C_12  and  C_22 
REMARK       I    between atoms: C_13  and  N_14 
REMARK    7  A    between atoms: N_14  and  C_15 
REMARK    8  A    between atoms: C_27  and  C_28 
ROOT
HETATM    1  C   UNL     1      -8.042   3.923 -31.920  1.00  0.00     0.225 C 
HETATM    2  N   UNL     1      -6.648   3.905 -31.831  1.00  0.00    -0.330 N 
HETATM    3  O   UNL     1      -8.743   4.344 -30.995  1.00  0.00    -0.273 OA
ENDROOT
BRANCH   2   4
HETATM    4  C   UNL     1      -6.044   4.493 -30.621  1.00  0.00     0.165 C 
BRANCH   4   5
HETATM    5  C   UNL     1      -5.569   5.916 -30.816  1.00  0.00    -0.037 A 
HETATM    6  C   UNL     1      -4.250   6.274 -30.483  1.00  0.00     0.048 A 
HETATM    7  C   UNL     1      -3.873   7.592 -30.635  1.00  0.00     0.105 A 
HETATM    8  C   UNL     1      -4.739   8.544 -31.118  1.00  0.00     0.105 A 
HETATM    9  O   UNL     1      -2.655   8.113 -30.325  1.00  0.00    -0.323 OA
HETATM   10  O   UNL     1      -4.176   9.780 -31.179  1.00  0.00    -0.323 OA
HETATM   11  C   UNL     1      -6.027   8.229 -31.487  1.00  0.00     0.040 A 
HETATM   12  C   UNL     1      -2.854   9.499 -30.676  1.00  0.00     0.352 A 
HETATM   13  C   UNL     1      -6.438   6.902 -31.337  1.00  0.00     0.012 A 
ENDBRANCH   4   5
ENDBRANCH   2   4
BRANCH   2  14
HETATM   14  C   UNL     1      -5.808   3.050 -32.712  1.00  0.00     0.219 C 
BRANCH  14  15
HETATM   15  C   UNL     1      -5.709   1.568 -32.224  1.00  0.00     0.246 C 
HETATM   16  N   UNL     1      -5.907   0.564 -33.143  1.00  0.00    -0.354 N 
HETATM   17  H   UNL     1      -6.227   0.849 -34.062  1.00  0.00     0.162 HD
HETATM   18  O   UNL     1      -5.375   1.329 -31.062  1.00  0.00    -0.271 OA
BRANCH  16  19
HETATM   19  C   UNL     1      -5.993  -0.872 -32.869  1.00  0.00     0.084 C 
HETATM   20  C   UNL     1      -7.104  -1.624 -33.620  1.00  0.00     0.025 C 
HETATM   21  C   UNL     1      -6.696  -2.299 -34.927  1.00  0.00     0.002 C 
HETATM   22  C   UNL     1      -5.378  -3.052 -34.812  1.00  0.00     0.000 C 
HETATM   23  C   UNL     1      -4.265  -2.164 -34.273  1.00  0.00     0.002 C 
HETATM   24  C   UNL     1      -4.628  -1.571 -32.916  1.00  0.00     0.025 C 
ENDBRANCH  16  19
ENDBRANCH  14  15
BRANCH  14  25
HETATM   25  C   UNL     1      -4.485   3.706 -33.081  1.00  0.00     0.014 A 
HETATM   26  S   UNL     1      -4.483   5.043 -34.177  1.00  0.00    -0.104 SA
HETATM   27  C   UNL     1      -2.791   5.233 -34.067  1.00  0.00     0.050 A 
HETATM   28  C   UNL     1      -2.232   4.351 -33.176  1.00  0.00     0.008 A 
HETATM   29  C   UNL     1      -3.207   3.493 -32.593  1.00  0.00     0.017 A 
ENDBRANCH  14  25
ENDBRANCH   2  14
BRANCH   1  30
HETATM   30  C   UNL     1      -8.709   3.529 -33.228  1.00  0.00     0.144 C 
BRANCH  30  31
HETATM   31  C   UNL     1      -9.652   2.363 -33.226  1.00  0.00    -0.021 A 
HETATM   32  C   UNL     1     -10.941   2.185 -33.840  1.00  0.00    -0.001 A 
HETATM   33  C   UNL     1     -11.776   2.970 -34.662  1.00  0.00     0.014 A 
HETATM   34  C   UNL     1     -11.414   0.926 -33.454  1.00  0.00     0.042 A 
HETATM   35  C   UNL     1     -13.041   2.497 -35.032  1.00  0.00     0.001 A 
HETATM   36  C   UNL     1     -13.483   1.245 -34.615  1.00  0.00     0.002 A 
HETATM   37  C   UNL     1     -12.671   0.431 -33.825  1.00  0.00     0.030 A 
HETATM   38  N   UNL     1     -10.439   0.339 -32.688  1.00  0.00    -0.365 N 
HETATM   39  H   UNL     1     -10.508  -0.585 -32.283  1.00  0.00     0.165 HD
HETATM   40  C   UNL     1      -9.384   1.191 -32.536  1.00  0.00     0.097 A 
ENDBRANCH  30  31
ENDBRANCH   1  30
TORSDOF 8
ENDMDL
MODEL 10
REMARK VINA RESULT:      -9.4      2.742      6.185
REMARK  8 active torsions:
REMARK  status: ('A' for Active; 'I' for Inactive)
REMARK    1  A    between atoms: C_8  and  C_9 
REMARK    2  A    between atoms: C_9  and  C_10 
REMARK       I    between atoms: C_10  and  N_11 
REMARK    3  A    between atoms: N_11  and  C_27 
REMARK    4  A    between atoms: N_11  and  C_12 
REMARK    5  A    between atoms: C_12  and  C_13 
REMARK    6  A    between atoms: C_12  and  C_22 
REMARK       I    between atoms: C_13  and  N_14 
REMARK    7  A    between atoms: N_14  and  C_15 
REMARK    8  A    between atoms: C_27  and  C_28 
ROOT
HETATM    1  C   UNL     1      -5.555   1.538 -30.171  1.00  0.00     0.225 C 
HETATM    2  N   UNL     1      -6.169   2.790 -30.251  1.00  0.00    -0.330 N 
HETATM    3  O   UNL     1      -6.086   0.595 -29.576  1.00  0.00    -0.273 OA
ENDROOT
BRANCH   2   4
HETATM    4  C   UNL     1      -7.520   2.915 -29.672  1.00  0.00     0.165 C 
BRANCH   4   5
HETATM    5  C   UNL     1      -8.623   2.892 -30.707  1.00  0.00    -0.037 A 
HETATM    6  C   UNL     1      -8.772   1.783 -31.558  1.00  0.00     0.048 A 
HETATM    7  C   UNL     1      -9.764   1.823 -32.517  1.00  0.00     0.105 A 
HETATM    8  C   UNL     1     -10.610   2.899 -32.640  1.00  0.00     0.105 A 
HETATM    9  O   UNL     1     -10.018   0.858 -33.441  1.00  0.00    -0.323 OA
HETATM   10  O   UNL     1     -11.507   2.745 -33.651  1.00  0.00    -0.323 OA
HETATM   11  C   UNL     1     -10.520   3.989 -31.805  1.00  0.00     0.040 A 
HETATM   12  C   UNL     1     -11.126   1.448 -34.153  1.00  0.00     0.352 A 
HETATM   13  C   UNL     1      -9.520   3.978 -30.830  1.00  0.00     0.012 A 
ENDBRANCH   4   5
ENDBRANCH   2   4
BRANCH   2  14
HETATM   14  C   UNL     1      -5.410   4.027 -30.580  1.00  0.00     0.219 C 
BRANCH  14  15
HETATM   15  C   UNL     1      -5.825   5.257 -29.709  1.00  0.00     0.246 C 
HETATM   16  N   UNL     1      -6.794   6.103 -30.197  1.00  0.00    -0.354 N 
HETATM   17  H   UNL     1      -7.095   5.944 -31.152  1.00  0.00     0.162 HD
HETATM   18  O   UNL     1      -5.347   5.397 -28.583  1.00  0.00    -0.271 OA
BRANCH  16  19
HETATM   19  C   UNL     1      -7.224   7.374 -29.610  1.00  0.00     0.084 C 
HETATM   20  C   UNL     1      -7.400   8.536 -30.602  1.00  0.00     0.025 C 
HETATM   21  C   UNL     1      -8.812   8.758 -31.137  1.00  0.00     0.002 C 
HETATM   22  C   UNL     1      -9.871   8.682 -30.047  1.00  0.00     0.000 C 
HETATM   23  C   UNL     1      -9.774   7.385 -29.254  1.00  0.00     0.002 C 
HETATM   24  C   UNL     1      -8.394   7.213 -28.630  1.00  0.00     0.025 C 
ENDBRANCH  16  19
ENDBRANCH  14  15
BRANCH  14  25
HETATM   25  C   UNL     1      -5.325   4.285 -32.078  1.00  0.00     0.014 A 
HETATM   26  S   UNL     1      -4.104   5.350 -32.682  1.00  0.00    -0.104 SA
HETATM   27  C   UNL     1      -4.588   5.114 -34.301  1.00  0.00     0.050 A 
HETATM   28  C   UNL     1      -5.611   4.204 -34.404  1.00  0.00     0.008 A 
HETATM   29  C   UNL     1      -6.016   3.711 -33.132  1.00  0.00     0.017 A 
ENDBRANCH  14  25
ENDBRANCH   2  14
BRANCH   1  30
HETATM   30  C   UNL     1      -4.263   1.293 -30.933  1.00  0.00     0.144 C 
BRANCH  30  31
HETATM   31  C   UNL     1      -4.151   0.053 -31.768  1.00  0.00    -0.021 A 
HETATM   32  C   UNL     1      -4.968  -0.445 -32.843  1.00  0.00    -0.001 A 
HETATM   33  C   UNL     1      -6.115   0.014 -33.523  1.00  0.00     0.014 A 
HETATM   34  C   UNL     1      -4.449  -1.689 -33.218  1.00  0.00     0.042 A 
HETATM   35  C   UNL     1      -6.713  -0.785 -34.507  1.00  0.00     0.001 A 
HETATM   36  C   UNL     1      -6.176  -2.023 -34.841  1.00  0.00     0.002 A 
HETATM   37  C   UNL     1      -5.026  -2.494 -34.208  1.00  0.00     0.030 A 
HETATM   38  N   UNL     1      -3.335  -1.917 -32.450  1.00  0.00    -0.365 N 
HETATM   39  H   UNL     1      -2.752  -2.739 -32.518  1.00  0.00     0.165 HD
HETATM   40  C   UNL     1      -3.151  -0.887 -31.573  1.00  0.00     0.097 A 
ENDBRANCH  30  31
ENDBRANCH   1  30
TORSDOF 8
ENDMDL
