MODEL 1
REMARK VINA RESULT:      -8.3      0.000      0.000
REMARK  8 active torsions:
REMARK  status: ('A' for Active; 'I' for Inactive)
REMARK    1  A    between atoms: C_7  and  C_8 
REMARK       I    between atoms: C_8  and  N_9 
REMARK    2  A    between atoms: N_9  and  S_10 
REMARK    3  A    between atoms: S_10  and  N_11 
REMARK    4  A    between atoms: N_11  and  C_12 
REMARK    5  A    between atoms: C_12  and  C_13 
REMARK    6  A    between atoms: C_13  and  C_14 
REMARK    7  A    between atoms: C_16  and  O_17 
REMARK    8  A    between atoms: C_19  and  O_20 
ROOT
HETATM    1  S   UNL     1      -8.658   1.292 -32.669  1.00  0.00     0.303 S 
HETATM    2  O   UNL     1      -9.514   0.365 -33.366  1.00  0.00    -0.188 OA
HETATM    3  O   UNL     1      -8.926   1.676 -31.303  1.00  0.00    -0.188 OA
ENDROOT
BRANCH   1   4
HETATM    4  N   UNL     1      -7.128   0.675 -32.691  1.00  0.00    -0.237 N 
HETATM    5  C   UNL     1      -6.551   0.205 -33.877  1.00  0.00     0.268 C 
HETATM    6  O   UNL     1      -6.913   0.632 -34.968  1.00  0.00    -0.267 OA
HETATM    7  H   UNL     1      -6.968   0.136 -31.853  1.00  0.00     0.183 HD
BRANCH   5   8
HETATM    8  C   UNL     1      -5.522  -0.831 -33.733  1.00  0.00     0.067 A 
HETATM    9  C   UNL     1      -4.234  -0.743 -33.197  1.00  0.00     0.022 A 
HETATM   10  C   UNL     1      -3.433   0.377 -32.633  1.00  0.00     0.069 C 
HETATM   11  N   UNL     1      -3.668  -1.996 -33.271  1.00  0.00    -0.358 N 
HETATM   12  H   UNL     1      -2.737  -2.234 -32.952  1.00  0.00     0.166 HD
HETATM   13  C   UNL     1      -4.520  -2.892 -33.860  1.00  0.00     0.043 A 
HETATM   14  C   UNL     1      -5.689  -2.201 -34.165  1.00  0.00     0.008 A 
HETATM   15  C   UNL     1      -4.339  -4.252 -34.143  1.00  0.00     0.030 A 
HETATM   16  C   UNL     1      -6.736  -2.918 -34.787  1.00  0.00     0.015 A 
HETATM   17  C   UNL     1      -6.575  -4.277 -35.080  1.00  0.00     0.001 A 
HETATM   18  C   UNL     1      -5.392  -4.933 -34.761  1.00  0.00     0.002 A 
ENDBRANCH   5   8
ENDBRANCH   1   4
BRANCH   1  19
HETATM   19  N   UNL     1      -8.493   2.676 -33.601  1.00  0.00    -0.202 NA
HETATM   20  H   UNL     1      -9.430   3.099 -33.671  1.00  0.00     0.141 HD
BRANCH  19  21
HETATM   21  C   UNL     1      -7.552   3.694 -33.065  1.00  0.00     0.110 C 
BRANCH  21  22
HETATM   22  C   UNL     1      -6.374   3.970 -33.996  1.00  0.00     0.054 C 
BRANCH  22  23
HETATM   23  C   UNL     1      -5.092   4.067 -33.201  1.00  0.00    -0.054 A 
HETATM   24  C   UNL     1      -3.893   4.412 -33.846  1.00  0.00     0.046 A 
HETATM   25  C   UNL     1      -2.681   4.438 -33.145  1.00  0.00     0.102 A 
HETATM   26  C   UNL     1      -2.666   4.104 -31.778  1.00  0.00     0.101 A 
HETATM   27  C   UNL     1      -3.863   3.778 -31.131  1.00  0.00     0.040 A 
HETATM   28  C   UNL     1      -5.068   3.754 -31.839  1.00  0.00     0.010 A 
BRANCH  25  29
HETATM   29  O   UNL     1      -1.468   4.751 -33.706  1.00  0.00    -0.353 OA
HETATM   30  C   UNL     1      -1.474   5.450 -34.943  1.00  0.00     0.210 C 
ENDBRANCH  25  29
BRANCH  26  31
HETATM   31  O   UNL     1      -1.442   4.144 -31.156  1.00  0.00    -0.353 OA
HETATM   32  C   UNL     1      -1.060   5.375 -30.561  1.00  0.00     0.210 C 
ENDBRANCH  26  31
ENDBRANCH  22  23
ENDBRANCH  21  22
ENDBRANCH  19  21
ENDBRANCH   1  19
TORSDOF 8
ENDMDL
MODEL 2
REMARK VINA RESULT:      -8.3      1.398      2.365
REMARK  8 active torsions:
REMARK  status: ('A' for Active; 'I' for Inactive)
REMARK    1  A    between atoms: C_7  and  C_8 
REMARK       I    between atoms: C_8  and  N_9 
REMARK    2  A    between atoms: N_9  and  S_10 
REMARK    3  A    between atoms: S_10  and  N_11 
REMARK    4  A    between atoms: N_11  and  C_12 
REMARK    5  A    between atoms: C_12  and  C_13 
REMARK    6  A    between atoms: C_13  and  C_14 
REMARK    7  A    between atoms: C_16  and  O_17 
REMARK    8  A    between atoms: C_19  and  O_20 
ROOT
HETATM    1  S   UNL     1      -9.394   0.873 -32.694  1.00  0.00     0.303 S 
HETATM    2  O   UNL     1      -9.729   1.918 -33.628  1.00  0.00    -0.188 OA
HETATM    3  O   UNL     1     -10.087  -0.393 -32.707  1.00  0.00    -0.188 OA
ENDROOT
BRANCH   1   4
HETATM    4  N   UNL     1      -7.790   0.532 -32.878  1.00  0.00    -0.237 N 
HETATM    5  C   UNL     1      -7.313  -0.133 -34.014  1.00  0.00     0.268 C 
HETATM    6  O   UNL     1      -7.917  -0.074 -35.080  1.00  0.00    -0.267 OA
HETATM    7  H   UNL     1      -7.396   0.266 -31.987  1.00  0.00     0.183 HD
BRANCH   5   8
HETATM    8  C   UNL     1      -6.082  -0.912 -33.844  1.00  0.00     0.067 A 
HETATM    9  C   UNL     1      -4.841  -0.522 -33.331  1.00  0.00     0.022 A 
HETATM   10  C   UNL     1      -4.302   0.770 -32.824  1.00  0.00     0.069 C 
HETATM   11  N   UNL     1      -4.015  -1.622 -33.362  1.00  0.00    -0.358 N 
HETATM   12  H   UNL     1      -3.053  -1.636 -33.047  1.00  0.00     0.166 HD
HETATM   13  C   UNL     1      -4.652  -2.707 -33.901  1.00  0.00     0.043 A 
HETATM   14  C   UNL     1      -5.946  -2.302 -34.218  1.00  0.00     0.008 A 
HETATM   15  C   UNL     1      -4.180  -4.006 -34.132  1.00  0.00     0.030 A 
HETATM   16  C   UNL     1      -6.814  -3.257 -34.794  1.00  0.00     0.015 A 
HETATM   17  C   UNL     1      -6.361  -4.559 -35.035  1.00  0.00     0.001 A 
HETATM   18  C   UNL     1      -5.061  -4.926 -34.707  1.00  0.00     0.002 A 
ENDBRANCH   5   8
ENDBRANCH   1   4
BRANCH   1  19
HETATM   19  N   UNL     1      -9.443   1.504 -31.141  1.00  0.00    -0.202 NA
HETATM   20  H   UNL     1      -8.854   0.895 -30.555  1.00  0.00     0.141 HD
BRANCH  19  21
HETATM   21  C   UNL     1      -8.956   2.903 -31.009  1.00  0.00     0.110 C 
BRANCH  21  22
HETATM   22  C   UNL     1      -7.526   2.993 -30.482  1.00  0.00     0.054 C 
BRANCH  22  23
HETATM   23  C   UNL     1      -6.648   3.717 -31.477  1.00  0.00    -0.054 A 
HETATM   24  C   UNL     1      -5.362   4.137 -31.098  1.00  0.00     0.046 A 
HETATM   25  C   UNL     1      -4.558   4.872 -31.978  1.00  0.00     0.102 A 
HETATM   26  C   UNL     1      -5.051   5.200 -33.255  1.00  0.00     0.101 A 
HETATM   27  C   UNL     1      -6.324   4.765 -33.638  1.00  0.00     0.040 A 
HETATM   28  C   UNL     1      -7.120   4.033 -32.753  1.00  0.00     0.010 A 
BRANCH  25  29
HETATM   29  O   UNL     1      -3.299   5.330 -31.679  1.00  0.00    -0.353 OA
HETATM   30  C   UNL     1      -2.249   4.374 -31.609  1.00  0.00     0.210 C 
ENDBRANCH  25  29
BRANCH  26  31
HETATM   31  O   UNL     1      -4.212   5.928 -34.062  1.00  0.00    -0.353 OA
HETATM   32  C   UNL     1      -3.680   5.268 -35.202  1.00  0.00     0.210 C 
ENDBRANCH  26  31
ENDBRANCH  22  23
ENDBRANCH  21  22
ENDBRANCH  19  21
ENDBRANCH   1  19
TORSDOF 8
ENDMDL
MODEL 3
REMARK VINA RESULT:      -8.1      3.963      7.096
REMARK  8 active torsions:
REMARK  status: ('A' for Active; 'I' for Inactive)
REMARK    1  A    between atoms: C_7  and  C_8 
REMARK       I    between atoms: C_8  and  N_9 
REMARK    2  A    between atoms: N_9  and  S_10 
REMARK    3  A    between atoms: S_10  and  N_11 
REMARK    4  A    between atoms: N_11  and  C_12 
REMARK    5  A    between atoms: C_12  and  C_13 
REMARK    6  A    between atoms: C_13  and  C_14 
REMARK    7  A    between atoms: C_16  and  O_17 
REMARK    8  A    between atoms: C_19  and  O_20 
ROOT
HETATM    1  S   UNL     1      -8.844   1.275 -32.661  1.00  0.00     0.303 S 
HETATM    2  O   UNL     1      -9.714   0.246 -33.171  1.00  0.00    -0.188 OA
HETATM    3  O   UNL     1      -9.015   1.808 -31.331  1.00  0.00    -0.188 OA
ENDROOT
BRANCH   1   4
HETATM    4  N   UNL     1      -7.296   0.710 -32.744  1.00  0.00    -0.237 N 
HETATM    5  C   UNL     1      -6.780   0.174 -33.931  1.00  0.00     0.268 C 
HETATM    6  O   UNL     1      -7.229   0.508 -35.022  1.00  0.00    -0.267 OA
HETATM    7  H   UNL     1      -7.061   0.238 -31.883  1.00  0.00     0.183 HD
BRANCH   5   8
HETATM    8  C   UNL     1      -5.706  -0.815 -33.785  1.00  0.00     0.067 A 
HETATM    9  C   UNL     1      -4.425  -0.669 -33.244  1.00  0.00     0.022 A 
HETATM   10  C   UNL     1      -3.678   0.485 -32.675  1.00  0.00     0.069 C 
HETATM   11  N   UNL     1      -3.802  -1.895 -33.318  1.00  0.00    -0.358 N 
HETATM   12  H   UNL     1      -2.862  -2.090 -32.996  1.00  0.00     0.166 HD
HETATM   13  C   UNL     1      -4.610  -2.828 -33.912  1.00  0.00     0.043 A 
HETATM   14  C   UNL     1      -5.808  -2.190 -34.220  1.00  0.00     0.008 A 
HETATM   15  C   UNL     1      -4.367  -4.177 -34.196  1.00  0.00     0.030 A 
HETATM   16  C   UNL     1      -6.820  -2.953 -34.847  1.00  0.00     0.015 A 
HETATM   17  C   UNL     1      -6.596  -4.303 -35.142  1.00  0.00     0.001 A 
HETATM   18  C   UNL     1      -5.385  -4.904 -34.820  1.00  0.00     0.002 A 
ENDBRANCH   5   8
ENDBRANCH   1   4
BRANCH   1  19
HETATM   19  N   UNL     1      -8.814   2.545 -33.756  1.00  0.00    -0.202 NA
HETATM   20  H   UNL     1      -8.238   2.235 -34.553  1.00  0.00     0.141 HD
BRANCH  19  21
HETATM   21  C   UNL     1     -10.142   2.972 -34.269  1.00  0.00     0.110 C 
BRANCH  21  22
HETATM   22  C   UNL     1     -10.835   3.989 -33.365  1.00  0.00     0.054 C 
BRANCH  22  23
HETATM   23  C   UNL     1     -12.164   3.446 -32.892  1.00  0.00    -0.054 A 
HETATM   24  C   UNL     1     -12.619   2.203 -33.363  1.00  0.00     0.046 A 
HETATM   25  C   UNL     1     -13.878   1.712 -32.996  1.00  0.00     0.102 A 
HETATM   26  C   UNL     1     -14.701   2.481 -32.152  1.00  0.00     0.101 A 
HETATM   27  C   UNL     1     -14.240   3.711 -31.669  1.00  0.00     0.040 A 
HETATM   28  C   UNL     1     -12.982   4.192 -32.041  1.00  0.00     0.010 A 
BRANCH  25  29
HETATM   29  O   UNL     1     -14.399   0.516 -33.424  1.00  0.00    -0.353 OA
HETATM   30  C   UNL     1     -13.492  -0.556 -33.644  1.00  0.00     0.210 C 
ENDBRANCH  25  29
BRANCH  26  31
HETATM   31  O   UNL     1     -15.924   1.942 -31.840  1.00  0.00    -0.353 OA
HETATM   32  C   UNL     1     -17.065   2.761 -32.056  1.00  0.00     0.210 C 
ENDBRANCH  26  31
ENDBRANCH  22  23
ENDBRANCH  21  22
ENDBRANCH  19  21
ENDBRANCH   1  19
TORSDOF 8
ENDMDL
MODEL 4
REMARK VINA RESULT:      -7.9      1.007      1.968
REMARK  8 active torsions:
REMARK  status: ('A' for Active; 'I' for Inactive)
REMARK    1  A    between atoms: C_7  and  C_8 
REMARK       I    between atoms: C_8  and  N_9 
REMARK    2  A    between atoms: N_9  and  S_10 
REMARK    3  A    between atoms: S_10  and  N_11 
REMARK    4  A    between atoms: N_11  and  C_12 
REMARK    5  A    between atoms: C_12  and  C_13 
REMARK    6  A    between atoms: C_13  and  C_14 
REMARK    7  A    between atoms: C_16  and  O_17 
REMARK    8  A    between atoms: C_19  and  O_20 
ROOT
HETATM    1  S   UNL     1      -8.644   1.265 -32.944  1.00  0.00     0.303 S 
HETATM    2  O   UNL     1      -9.499   0.313 -33.607  1.00  0.00    -0.188 OA
HETATM    3  O   UNL     1      -8.950   1.749 -31.619  1.00  0.00    -0.188 OA
ENDROOT
BRANCH   1   4
HETATM    4  N   UNL     1      -7.131   0.614 -32.869  1.00  0.00    -0.237 N 
HETATM    5  C   UNL     1      -6.480   0.151 -34.018  1.00  0.00     0.268 C 
HETATM    6  O   UNL     1      -6.752   0.605 -35.124  1.00  0.00    -0.267 OA
HETATM    7  H   UNL     1      -7.044   0.056 -32.032  1.00  0.00     0.183 HD
BRANCH   5   8
HETATM    8  C   UNL     1      -5.488  -0.912 -33.821  1.00  0.00     0.067 A 
HETATM    9  C   UNL     1      -4.220  -0.854 -33.234  1.00  0.00     0.022 A 
HETATM   10  C   UNL     1      -3.411   0.250 -32.650  1.00  0.00     0.069 C 
HETATM   11  N   UNL     1      -3.687  -2.123 -33.270  1.00  0.00    -0.358 N 
HETATM   12  H   UNL     1      -2.777  -2.382 -32.911  1.00  0.00     0.166 HD
HETATM   13  C   UNL     1      -4.540  -3.002 -33.884  1.00  0.00     0.043 A 
HETATM   14  C   UNL     1      -5.675  -2.282 -34.245  1.00  0.00     0.008 A 
HETATM   15  C   UNL     1      -4.386  -4.370 -34.144  1.00  0.00     0.030 A 
HETATM   16  C   UNL     1      -6.716  -2.977 -34.900  1.00  0.00     0.015 A 
HETATM   17  C   UNL     1      -6.582  -4.344 -35.172  1.00  0.00     0.001 A 
HETATM   18  C   UNL     1      -5.432  -5.028 -34.797  1.00  0.00     0.002 A 
ENDBRANCH   5   8
ENDBRANCH   1   4
BRANCH   1  19
HETATM   19  N   UNL     1      -8.411   2.577 -33.963  1.00  0.00    -0.202 NA
HETATM   20  H   UNL     1      -9.090   2.479 -34.732  1.00  0.00     0.141 HD
BRANCH  19  21
HETATM   21  C   UNL     1      -8.599   3.911 -33.333  1.00  0.00     0.110 C 
BRANCH  21  22
HETATM   22  C   UNL     1      -7.608   4.957 -33.838  1.00  0.00     0.054 C 
BRANCH  22  23
HETATM   23  C   UNL     1      -6.205   4.596 -33.408  1.00  0.00    -0.054 A 
HETATM   24  C   UNL     1      -6.001   3.871 -32.222  1.00  0.00     0.046 A 
HETATM   25  C   UNL     1      -4.708   3.588 -31.766  1.00  0.00     0.102 A 
HETATM   26  C   UNL     1      -3.599   4.043 -32.504  1.00  0.00     0.101 A 
HETATM   27  C   UNL     1      -3.802   4.749 -33.694  1.00  0.00     0.040 A 
HETATM   28  C   UNL     1      -5.097   5.028 -34.141  1.00  0.00     0.010 A 
BRANCH  25  29
HETATM   29  O   UNL     1      -4.426   2.899 -30.613  1.00  0.00    -0.353 OA
HETATM   30  C   UNL     1      -5.507   2.261 -29.945  1.00  0.00     0.210 C 
ENDBRANCH  25  29
BRANCH  26  31
HETATM   31  O   UNL     1      -2.362   3.735 -31.994  1.00  0.00    -0.353 OA
HETATM   32  C   UNL     1      -1.553   4.820 -31.564  1.00  0.00     0.210 C 
ENDBRANCH  26  31
ENDBRANCH  22  23
ENDBRANCH  21  22
ENDBRANCH  19  21
ENDBRANCH   1  19
TORSDOF 8
ENDMDL
MODEL 5
REMARK VINA RESULT:      -7.8      2.206      2.993
REMARK  8 active torsions:
REMARK  status: ('A' for Active; 'I' for Inactive)
REMARK    1  A    between atoms: C_7  and  C_8 
REMARK       I    between atoms: C_8  and  N_9 
REMARK    2  A    between atoms: N_9  and  S_10 
REMARK    3  A    between atoms: S_10  and  N_11 
REMARK    4  A    between atoms: N_11  and  C_12 
REMARK    5  A    between atoms: C_12  and  C_13 
REMARK    6  A    between atoms: C_13  and  C_14 
REMARK    7  A    between atoms: C_16  and  O_17 
REMARK    8  A    between atoms: C_19  and  O_20 
ROOT
HETATM    1  S   UNL     1      -6.758   2.859 -31.719  1.00  0.00     0.303 S 
HETATM    2  O   UNL     1      -8.154   2.981 -31.387  1.00  0.00    -0.188 OA
HETATM    3  O   UNL     1      -5.730   3.310 -30.811  1.00  0.00    -0.188 OA
ENDROOT
BRANCH   1   4
HETATM    4  N   UNL     1      -6.451   1.267 -32.022  1.00  0.00    -0.237 N 
HETATM    5  C   UNL     1      -5.288   0.864 -32.690  1.00  0.00     0.268 C 
HETATM    6  O   UNL     1      -4.273   1.551 -32.660  1.00  0.00    -0.267 OA
HETATM    7  H   UNL     1      -7.311   0.797 -32.267  1.00  0.00     0.183 HD
BRANCH   5   8
HETATM    8  C   UNL     1      -5.370  -0.397 -33.435  1.00  0.00     0.067 A 
HETATM    9  C   UNL     1      -6.158  -0.733 -34.540  1.00  0.00     0.022 A 
HETATM   10  C   UNL     1      -7.192  -0.001 -35.322  1.00  0.00     0.069 C 
HETATM   11  N   UNL     1      -5.857  -2.031 -34.885  1.00  0.00    -0.358 N 
HETATM   12  H   UNL     1      -6.275  -2.540 -35.654  1.00  0.00     0.166 HD
HETATM   13  C   UNL     1      -4.928  -2.569 -34.035  1.00  0.00     0.043 A 
HETATM   14  C   UNL     1      -4.600  -1.578 -33.113  1.00  0.00     0.008 A 
HETATM   15  C   UNL     1      -4.361  -3.849 -34.016  1.00  0.00     0.030 A 
HETATM   16  C   UNL     1      -3.647  -1.892 -32.118  1.00  0.00     0.015 A 
HETATM   17  C   UNL     1      -3.070  -3.167 -32.080  1.00  0.00     0.001 A 
HETATM   18  C   UNL     1      -3.424  -4.131 -33.017  1.00  0.00     0.002 A 
ENDBRANCH   5   8
ENDBRANCH   1   4
BRANCH   1  19
HETATM   19  N   UNL     1      -6.501   3.559 -33.222  1.00  0.00    -0.202 NA
HETATM   20  H   UNL     1      -7.430   3.762 -33.617  1.00  0.00     0.141 HD
BRANCH  19  21
HETATM   21  C   UNL     1      -5.705   4.815 -33.210  1.00  0.00     0.110 C 
BRANCH  21  22
HETATM   22  C   UNL     1      -4.489   4.763 -34.132  1.00  0.00     0.054 C 
BRANCH  22  23
HETATM   23  C   UNL     1      -3.277   5.328 -33.428  1.00  0.00    -0.054 A 
HETATM   24  C   UNL     1      -3.169   6.714 -33.223  1.00  0.00     0.046 A 
HETATM   25  C   UNL     1      -2.024   7.267 -32.639  1.00  0.00     0.102 A 
HETATM   26  C   UNL     1      -0.964   6.423 -32.260  1.00  0.00     0.101 A 
HETATM   27  C   UNL     1      -1.079   5.041 -32.446  1.00  0.00     0.040 A 
HETATM   28  C   UNL     1      -2.226   4.497 -33.031  1.00  0.00     0.010 A 
BRANCH  25  29
HETATM   29  O   UNL     1      -1.837   8.610 -32.419  1.00  0.00    -0.353 OA
HETATM   30  C   UNL     1      -2.424   9.174 -31.254  1.00  0.00     0.210 C 
ENDBRANCH  25  29
BRANCH  26  31
HETATM   31  O   UNL     1       0.130   7.035 -31.699  1.00  0.00    -0.353 OA
HETATM   32  C   UNL     1       0.454   6.680 -30.363  1.00  0.00     0.210 C 
ENDBRANCH  26  31
ENDBRANCH  22  23
ENDBRANCH  21  22
ENDBRANCH  19  21
ENDBRANCH   1  19
TORSDOF 8
ENDMDL
MODEL 6
REMARK VINA RESULT:      -7.8      3.224      6.195
REMARK  8 active torsions:
REMARK  status: ('A' for Active; 'I' for Inactive)
REMARK    1  A    between atoms: C_7  and  C_8 
REMARK       I    between atoms: C_8  and  N_9 
REMARK    2  A    between atoms: N_9  and  S_10 
REMARK    3  A    between atoms: S_10  and  N_11 
REMARK    4  A    between atoms: N_11  and  C_12 
REMARK    5  A    between atoms: C_12  and  C_13 
REMARK    6  A    between atoms: C_13  and  C_14 
REMARK    7  A    between atoms: C_16  and  O_17 
REMARK    8  A    between atoms: C_19  and  O_20 
ROOT
HETATM    1  S   UNL     1      -4.621   2.777 -32.071  1.00  0.00     0.303 S 
HETATM    2  O   UNL     1      -3.471   2.248 -31.382  1.00  0.00    -0.188 OA
HETATM    3  O   UNL     1      -4.512   3.928 -32.934  1.00  0.00    -0.188 OA
ENDROOT
BRANCH   1   4
HETATM    4  N   UNL     1      -5.260   1.562 -32.986  1.00  0.00    -0.237 N 
HETATM    5  C   UNL     1      -5.607   0.329 -32.420  1.00  0.00     0.268 C 
HETATM    6  O   UNL     1      -5.899   0.240 -31.232  1.00  0.00    -0.267 OA
HETATM    7  H   UNL     1      -4.809   1.546 -33.889  1.00  0.00     0.183 HD
BRANCH   5   8
HETATM    8  C   UNL     1      -5.573  -0.831 -33.317  1.00  0.00     0.067 A 
HETATM    9  C   UNL     1      -6.307  -1.083 -34.480  1.00  0.00     0.022 A 
HETATM   10  C   UNL     1      -7.374  -0.338 -35.200  1.00  0.00     0.069 C 
HETATM   11  N   UNL     1      -5.898  -2.303 -34.972  1.00  0.00    -0.358 N 
HETATM   12  H   UNL     1      -6.256  -2.741 -35.811  1.00  0.00     0.166 HD
HETATM   13  C   UNL     1      -4.950  -2.872 -34.164  1.00  0.00     0.043 A 
HETATM   14  C   UNL     1      -4.722  -1.983 -33.117  1.00  0.00     0.008 A 
HETATM   15  C   UNL     1      -4.286  -4.100 -34.283  1.00  0.00     0.030 A 
HETATM   16  C   UNL     1      -3.771  -2.348 -32.137  1.00  0.00     0.015 A 
HETATM   17  C   UNL     1      -3.098  -3.571 -32.236  1.00  0.00     0.001 A 
HETATM   18  C   UNL     1      -3.355  -4.434 -33.296  1.00  0.00     0.002 A 
ENDBRANCH   5   8
ENDBRANCH   1   4
BRANCH   1  19
HETATM   19  N   UNL     1      -5.839   3.050 -30.950  1.00  0.00    -0.202 NA
HETATM   20  H   UNL     1      -5.503   3.796 -30.324  1.00  0.00     0.141 HD
BRANCH  19  21
HETATM   21  C   UNL     1      -7.147   3.464 -31.522  1.00  0.00     0.110 C 
BRANCH  21  22
HETATM   22  C   UNL     1      -8.341   2.865 -30.783  1.00  0.00     0.054 C 
BRANCH  22  23
HETATM   23  C   UNL     1      -9.353   2.332 -31.772  1.00  0.00    -0.054 A 
HETATM   24  C   UNL     1     -10.410   3.152 -32.201  1.00  0.00     0.046 A 
HETATM   25  C   UNL     1     -11.400   2.660 -33.059  1.00  0.00     0.102 A 
HETATM   26  C   UNL     1     -11.337   1.321 -33.490  1.00  0.00     0.101 A 
HETATM   27  C   UNL     1     -10.274   0.510 -33.078  1.00  0.00     0.040 A 
HETATM   28  C   UNL     1      -9.291   1.011 -32.220  1.00  0.00     0.010 A 
BRANCH  25  29
HETATM   29  O   UNL     1     -12.469   3.392 -33.511  1.00  0.00    -0.353 OA
HETATM   30  C   UNL     1     -12.258   4.247 -34.627  1.00  0.00     0.210 C 
ENDBRANCH  25  29
BRANCH  26  31
HETATM   31  O   UNL     1     -12.344   0.904 -34.325  1.00  0.00    -0.353 OA
HETATM   32  C   UNL     1     -13.311   0.019 -33.778  1.00  0.00     0.210 C 
ENDBRANCH  26  31
ENDBRANCH  22  23
ENDBRANCH  21  22
ENDBRANCH  19  21
ENDBRANCH   1  19
TORSDOF 8
ENDMDL
MODEL 7
REMARK VINA RESULT:      -7.5      1.570      2.138
REMARK  8 active torsions:
REMARK  status: ('A' for Active; 'I' for Inactive)
REMARK    1  A    between atoms: C_7  and  C_8 
REMARK       I    between atoms: C_8  and  N_9 
REMARK    2  A    between atoms: N_9  and  S_10 
REMARK    3  A    between atoms: S_10  and  N_11 
REMARK    4  A    between atoms: N_11  and  C_12 
REMARK    5  A    between atoms: C_12  and  C_13 
REMARK    6  A    between atoms: C_13  and  C_14 
REMARK    7  A    between atoms: C_16  and  O_17 
REMARK    8  A    between atoms: C_19  and  O_20 
ROOT
HETATM    1  S   UNL     1      -7.988   1.677 -32.520  1.00  0.00     0.303 S 
HETATM    2  O   UNL     1      -9.007   0.873 -33.146  1.00  0.00    -0.188 OA
HETATM    3  O   UNL     1      -8.110   2.103 -31.146  1.00  0.00    -0.188 OA
ENDROOT
BRANCH   1   4
HETATM    4  N   UNL     1      -6.562   0.856 -32.632  1.00  0.00    -0.237 N 
HETATM    5  C   UNL     1      -6.170   0.239 -33.827  1.00  0.00     0.268 C 
HETATM    6  O   UNL     1      -6.578   0.644 -34.910  1.00  0.00    -0.267 OA
HETATM    7  H   UNL     1      -6.393   0.352 -31.774  1.00  0.00     0.183 HD
BRANCH   5   8
HETATM    8  C   UNL     1      -5.278  -0.919 -33.698  1.00  0.00     0.067 A 
HETATM    9  C   UNL     1      -3.999  -1.004 -33.139  1.00  0.00     0.022 A 
HETATM   10  C   UNL     1      -3.080  -0.006 -32.526  1.00  0.00     0.069 C 
HETATM   11  N   UNL     1      -3.587  -2.314 -33.242  1.00  0.00    -0.358 N 
HETATM   12  H   UNL     1      -2.699  -2.671 -32.915  1.00  0.00     0.166 HD
HETATM   13  C   UNL     1      -4.529  -3.082 -33.873  1.00  0.00     0.043 A 
HETATM   14  C   UNL     1      -5.600  -2.245 -34.176  1.00  0.00     0.008 A 
HETATM   15  C   UNL     1      -4.509  -4.445 -34.196  1.00  0.00     0.030 A 
HETATM   16  C   UNL     1      -6.713  -2.811 -34.837  1.00  0.00     0.015 A 
HETATM   17  C   UNL     1      -6.712  -4.170 -35.171  1.00  0.00     0.001 A 
HETATM   18  C   UNL     1      -5.623  -4.974 -34.853  1.00  0.00     0.002 A 
ENDBRANCH   5   8
ENDBRANCH   1   4
BRANCH   1  19
HETATM   19  N   UNL     1      -7.698   3.020 -33.482  1.00  0.00    -0.202 NA
HETATM   20  H   UNL     1      -8.547   3.602 -33.444  1.00  0.00     0.141 HD
BRANCH  19  21
HETATM   21  C   UNL     1      -6.534   3.852 -33.076  1.00  0.00     0.110 C 
BRANCH  21  22
HETATM   22  C   UNL     1      -5.972   4.694 -34.218  1.00  0.00     0.054 C 
BRANCH  22  23
HETATM   23  C   UNL     1      -4.725   5.419 -33.767  1.00  0.00    -0.054 A 
HETATM   24  C   UNL     1      -4.744   6.170 -32.580  1.00  0.00     0.046 A 
HETATM   25  C   UNL     1      -3.625   6.909 -32.178  1.00  0.00     0.102 A 
HETATM   26  C   UNL     1      -2.468   6.904 -32.982  1.00  0.00     0.101 A 
HETATM   27  C   UNL     1      -2.443   6.141 -34.154  1.00  0.00     0.040 A 
HETATM   28  C   UNL     1      -3.566   5.408 -34.547  1.00  0.00     0.010 A 
BRANCH  25  29
HETATM   29  O   UNL     1      -3.569   7.677 -31.042  1.00  0.00    -0.353 OA
HETATM   30  C   UNL     1      -3.507   7.002 -29.793  1.00  0.00     0.210 C 
ENDBRANCH  25  29
BRANCH  26  31
HETATM   31  O   UNL     1      -1.412   7.656 -32.530  1.00  0.00    -0.353 OA
HETATM   32  C   UNL     1      -0.293   6.951 -32.011  1.00  0.00     0.210 C 
ENDBRANCH  26  31
ENDBRANCH  22  23
ENDBRANCH  21  22
ENDBRANCH  19  21
ENDBRANCH   1  19
TORSDOF 8
ENDMDL
MODEL 8
REMARK VINA RESULT:      -7.3      3.783      7.299
REMARK  8 active torsions:
REMARK  status: ('A' for Active; 'I' for Inactive)
REMARK    1  A    between atoms: C_7  and  C_8 
REMARK       I    between atoms: C_8  and  N_9 
REMARK    2  A    between atoms: N_9  and  S_10 
REMARK    3  A    between atoms: S_10  and  N_11 
REMARK    4  A    between atoms: N_11  and  C_12 
REMARK    5  A    between atoms: C_12  and  C_13 
REMARK    6  A    between atoms: C_13  and  C_14 
REMARK    7  A    between atoms: C_16  and  O_17 
REMARK    8  A    between atoms: C_19  and  O_20 
ROOT
HETATM    1  S   UNL     1      -7.545   2.916 -31.175  1.00  0.00     0.303 S 
HETATM    2  O   UNL     1      -7.013   3.823 -32.161  1.00  0.00    -0.188 OA
HETATM    3  O   UNL     1      -7.498   3.230 -29.767  1.00  0.00    -0.188 OA
ENDROOT
BRANCH   1   4
HETATM    4  N   UNL     1      -9.131   2.649 -31.543  1.00  0.00    -0.237 N 
HETATM    5  C   UNL     1      -9.516   2.179 -32.805  1.00  0.00     0.268 C 
HETATM    6  O   UNL     1      -8.745   1.522 -33.495  1.00  0.00    -0.267 OA
HETATM    7  H   UNL     1      -9.701   3.369 -31.124  1.00  0.00     0.183 HD
BRANCH   5   8
HETATM    8  C   UNL     1     -10.866   2.541 -33.250  1.00  0.00     0.067 A 
HETATM    9  C   UNL     1     -11.410   3.799 -33.522  1.00  0.00     0.022 A 
HETATM   10  C   UNL     1     -10.878   5.187 -33.436  1.00  0.00     0.069 C 
HETATM   11  N   UNL     1     -12.712   3.610 -33.927  1.00  0.00    -0.358 N 
HETATM   12  H   UNL     1     -13.352   4.348 -34.194  1.00  0.00     0.166 HD
HETATM   13  C   UNL     1     -13.052   2.284 -33.901  1.00  0.00     0.043 A 
HETATM   14  C   UNL     1     -11.925   1.583 -33.480  1.00  0.00     0.008 A 
HETATM   15  C   UNL     1     -14.267   1.660 -34.215  1.00  0.00     0.030 A 
HETATM   16  C   UNL     1     -12.023   0.178 -33.373  1.00  0.00     0.015 A 
HETATM   17  C   UNL     1     -13.228  -0.465 -33.680  1.00  0.00     0.001 A 
HETATM   18  C   UNL     1     -14.333   0.269 -34.096  1.00  0.00     0.002 A 
ENDBRANCH   5   8
ENDBRANCH   1   4
BRANCH   1  19
HETATM   19  N   UNL     1      -6.868   1.401 -31.418  1.00  0.00    -0.202 NA
HETATM   20  H   UNL     1      -7.238   1.052 -32.314  1.00  0.00     0.141 HD
BRANCH  19  21
HETATM   21  C   UNL     1      -5.382   1.371 -31.474  1.00  0.00     0.110 C 
BRANCH  21  22
HETATM   22  C   UNL     1      -4.839   1.246 -32.895  1.00  0.00     0.054 C 
BRANCH  22  23
HETATM   23  C   UNL     1      -5.027  -0.166 -33.403  1.00  0.00    -0.054 A 
HETATM   24  C   UNL     1      -4.190  -1.193 -32.938  1.00  0.00     0.046 A 
HETATM   25  C   UNL     1      -4.297  -2.493 -33.446  1.00  0.00     0.102 A 
HETATM   26  C   UNL     1      -5.253  -2.769 -34.443  1.00  0.00     0.101 A 
HETATM   27  C   UNL     1      -6.099  -1.750 -34.892  1.00  0.00     0.040 A 
HETATM   28  C   UNL     1      -5.983  -0.455 -34.379  1.00  0.00     0.010 A 
BRANCH  25  29
HETATM   29  O   UNL     1      -3.509  -3.547 -33.055  1.00  0.00    -0.353 OA
HETATM   30  C   UNL     1      -2.947  -3.500 -31.750  1.00  0.00     0.210 C 
ENDBRANCH  25  29
BRANCH  26  31
HETATM   31  O   UNL     1      -5.297  -4.064 -34.900  1.00  0.00    -0.353 OA
HETATM   32  C   UNL     1      -6.580  -4.603 -35.186  1.00  0.00     0.210 C 
ENDBRANCH  26  31
ENDBRANCH  22  23
ENDBRANCH  21  22
ENDBRANCH  19  21
ENDBRANCH   1  19
TORSDOF 8
ENDMDL
MODEL 9
REMARK VINA RESULT:      -7.2      3.751      7.332
REMARK  8 active torsions:
REMARK  status: ('A' for Active; 'I' for Inactive)
REMARK    1  A    between atoms: C_7  and  C_8 
REMARK       I    between atoms: C_8  and  N_9 
REMARK    2  A    between atoms: N_9  and  S_10 
REMARK    3  A    between atoms: S_10  and  N_11 
REMARK    4  A    between atoms: N_11  and  C_12 
REMARK    5  A    between atoms: C_12  and  C_13 
REMARK    6  A    between atoms: C_13  and  C_14 
REMARK    7  A    between atoms: C_16  and  O_17 
REMARK    8  A    between atoms: C_19  and  O_20 
ROOT
HETATM    1  S   UNL     1      -7.301   4.319 -33.442  1.00  0.00     0.303 S 
HETATM    2  O   UNL     1      -6.496   3.407 -34.213  1.00  0.00    -0.188 OA
HETATM    3  O   UNL     1      -6.875   5.678 -33.206  1.00  0.00    -0.188 OA
ENDROOT
BRANCH   1   4
HETATM    4  N   UNL     1      -8.783   4.411 -34.161  1.00  0.00    -0.237 N 
HETATM    5  C   UNL     1      -9.939   4.667 -33.414  1.00  0.00     0.268 C 
HETATM    6  O   UNL     1      -9.882   5.277 -32.352  1.00  0.00    -0.267 OA
HETATM    7  H   UNL     1      -8.848   3.716 -34.891  1.00  0.00     0.183 HD
BRANCH   5   8
HETATM    8  C   UNL     1     -11.197   4.145 -33.961  1.00  0.00     0.067 A 
HETATM    9  C   UNL     1     -12.227   4.814 -34.629  1.00  0.00     0.022 A 
HETATM   10  C   UNL     1     -12.458   6.240 -34.990  1.00  0.00     0.069 C 
HETATM   11  N   UNL     1     -13.182   3.880 -34.961  1.00  0.00    -0.358 N 
HETATM   12  H   UNL     1     -14.042   4.078 -35.456  1.00  0.00     0.166 HD
HETATM   13  C   UNL     1     -12.835   2.634 -34.511  1.00  0.00     0.043 A 
HETATM   14  C   UNL     1     -11.600   2.759 -33.879  1.00  0.00     0.008 A 
HETATM   15  C   UNL     1     -13.519   1.416 -34.617  1.00  0.00     0.030 A 
HETATM   16  C   UNL     1     -11.021   1.595 -33.326  1.00  0.00     0.015 A 
HETATM   17  C   UNL     1     -11.690   0.369 -33.418  1.00  0.00     0.001 A 
HETATM   18  C   UNL     1     -12.923   0.284 -34.056  1.00  0.00     0.002 A 
ENDBRANCH   5   8
ENDBRANCH   1   4
BRANCH   1  19
HETATM   19  N   UNL     1      -7.667   3.601 -31.972  1.00  0.00    -0.202 NA
HETATM   20  H   UNL     1      -8.623   3.223 -32.056  1.00  0.00     0.141 HD
BRANCH  19  21
HETATM   21  C   UNL     1      -6.758   2.499 -31.559  1.00  0.00     0.110 C 
BRANCH  21  22
HETATM   22  C   UNL     1      -7.486   1.179 -31.317  1.00  0.00     0.054 C 
BRANCH  22  23
HETATM   23  C   UNL     1      -6.997   0.127 -32.286  1.00  0.00    -0.054 A 
HETATM   24  C   UNL     1      -5.654  -0.284 -32.252  1.00  0.00     0.046 A 
HETATM   25  C   UNL     1      -5.160  -1.203 -33.185  1.00  0.00     0.102 A 
HETATM   26  C   UNL     1      -6.020  -1.714 -34.174  1.00  0.00     0.101 A 
HETATM   27  C   UNL     1      -7.362  -1.319 -34.197  1.00  0.00     0.040 A 
HETATM   28  C   UNL     1      -7.846  -0.400 -33.261  1.00  0.00     0.010 A 
BRANCH  25  29
HETATM   29  O   UNL     1      -3.860  -1.643 -33.226  1.00  0.00    -0.353 OA
HETATM   30  C   UNL     1      -3.317  -2.207 -32.040  1.00  0.00     0.210 C 
ENDBRANCH  25  29
BRANCH  26  31
HETATM   31  O   UNL     1      -5.466  -2.605 -35.060  1.00  0.00    -0.353 OA
HETATM   32  C   UNL     1      -6.022  -3.912 -35.092  1.00  0.00     0.210 C 
ENDBRANCH  26  31
ENDBRANCH  22  23
ENDBRANCH  21  22
ENDBRANCH  19  21
ENDBRANCH   1  19
TORSDOF 8
ENDMDL
MODEL 10
REMARK VINA RESULT:      -7.2      3.356      4.456
REMARK  8 active torsions:
REMARK  status: ('A' for Active; 'I' for Inactive)
REMARK    1  A    between atoms: C_7  and  C_8 
REMARK       I    between atoms: C_8  and  N_9 
REMARK    2  A    between atoms: N_9  and  S_10 
REMARK    3  A    between atoms: S_10  and  N_11 
REMARK    4  A    between atoms: N_11  and  C_12 
REMARK    5  A    between atoms: C_12  and  C_13 
REMARK    6  A    between atoms: C_13  and  C_14 
REMARK    7  A    between atoms: C_16  and  O_17 
REMARK    8  A    between atoms: C_19  and  O_20 
ROOT
HETATM    1  S   UNL     1      -9.394   0.813 -32.651  1.00  0.00     0.303 S 
HETATM    2  O   UNL     1      -9.724   1.872 -33.571  1.00  0.00    -0.188 OA
HETATM    3  O   UNL     1     -10.084  -0.454 -32.691  1.00  0.00    -0.188 OA
ENDROOT
BRANCH   1   4
HETATM    4  N   UNL     1      -7.788   0.479 -32.826  1.00  0.00    -0.237 N 
HETATM    5  C   UNL     1      -7.295  -0.136 -33.983  1.00  0.00     0.268 C 
HETATM    6  O   UNL     1      -7.883  -0.030 -35.054  1.00  0.00    -0.267 OA
HETATM    7  H   UNL     1      -7.408   0.174 -31.942  1.00  0.00     0.183 HD
BRANCH   5   8
HETATM    8  C   UNL     1      -6.067  -0.923 -33.829  1.00  0.00     0.067 A 
HETATM    9  C   UNL     1      -4.820  -0.544 -33.323  1.00  0.00     0.022 A 
HETATM   10  C   UNL     1      -4.270   0.741 -32.810  1.00  0.00     0.069 C 
HETATM   11  N   UNL     1      -3.999  -1.648 -33.369  1.00  0.00    -0.358 N 
HETATM   12  H   UNL     1      -3.035  -1.670 -33.062  1.00  0.00     0.166 HD
HETATM   13  C   UNL     1      -4.647  -2.726 -33.912  1.00  0.00     0.043 A 
HETATM   14  C   UNL     1      -5.942  -2.311 -34.215  1.00  0.00     0.008 A 
HETATM   15  C   UNL     1      -4.183  -4.024 -34.157  1.00  0.00     0.030 A 
HETATM   16  C   UNL     1      -6.819  -3.257 -34.792  1.00  0.00     0.015 A 
HETATM   17  C   UNL     1      -6.375  -4.559 -35.047  1.00  0.00     0.001 A 
HETATM   18  C   UNL     1      -5.074  -4.935 -34.732  1.00  0.00     0.002 A 
ENDBRANCH   5   8
ENDBRANCH   1   4
BRANCH   1  19
HETATM   19  N   UNL     1      -9.459   1.419 -31.089  1.00  0.00    -0.202 NA
HETATM   20  H   UNL     1      -8.714   0.946 -30.556  1.00  0.00     0.141 HD
BRANCH  19  21
HETATM   21  C   UNL     1      -9.267   2.889 -30.969  1.00  0.00     0.110 C 
BRANCH  21  22
HETATM   22  C   UNL     1      -7.821   3.282 -30.675  1.00  0.00     0.054 C 
BRANCH  22  23
HETATM   23  C   UNL     1      -7.784   4.483 -29.758  1.00  0.00    -0.054 A 
HETATM   24  C   UNL     1      -8.874   5.369 -29.720  1.00  0.00     0.046 A 
HETATM   25  C   UNL     1      -8.833   6.525 -28.933  1.00  0.00     0.102 A 
HETATM   26  C   UNL     1      -7.680   6.807 -28.176  1.00  0.00     0.101 A 
HETATM   27  C   UNL     1      -6.602   5.916 -28.200  1.00  0.00     0.040 A 
HETATM   28  C   UNL     1      -6.652   4.763 -28.989  1.00  0.00     0.010 A 
BRANCH  25  29
HETATM   29  O   UNL     1      -9.849   7.446 -28.853  1.00  0.00    -0.353 OA
HETATM   30  C   UNL     1     -10.175   8.171 -30.031  1.00  0.00     0.210 C 
ENDBRANCH  25  29
BRANCH  26  31
HETATM   31  O   UNL     1      -7.707   7.961 -27.433  1.00  0.00    -0.353 OA
HETATM   32  C   UNL     1      -6.825   9.003 -27.827  1.00  0.00     0.210 C 
ENDBRANCH  26  31
ENDBRANCH  22  23
ENDBRANCH  21  22
ENDBRANCH  19  21
ENDBRANCH   1  19
TORSDOF 8
ENDMDL
