MODEL 1
REMARK VINA RESULT:      -8.6      0.000      0.000
REMARK  7 active torsions:
REMARK  status: ('A' for Active; 'I' for Inactive)
REMARK    1  A    between atoms: C_2  and  O_3 
REMARK    2  A    between atoms: O_3  and  C_4 
REMARK    3  A    between atoms: C_7  and  N_8 
REMARK    4  A    between atoms: N_8  and  C_9 
REMARK    5  A    between atoms: C_9  and  C_10 
REMARK       I    between atoms: C_10  and  N_11 
REMARK    6  A    between atoms: N_11  and  N_12 
REMARK    7  A    between atoms: C_13  and  C_14 
ROOT
HETATM    1  C   UNL     1     -10.071   0.879 -33.832  1.00  0.00     0.255 C 
HETATM    2  N   UNL     1      -8.953   0.894 -34.671  1.00  0.00    -0.246 N 
HETATM    3  O   UNL     1     -10.225   0.134 -32.866  1.00  0.00    -0.270 OA
HETATM    4  H   UNL     1      -9.053   1.338 -35.579  1.00  0.00     0.192 HD
ENDROOT
BRANCH   2   5
HETATM    5  N   UNL     1      -7.972  -0.073 -34.649  1.00  0.00    -0.184 NA
HETATM    6  C   UNL     1      -6.869   0.204 -34.026  1.00  0.00     0.153 C 
BRANCH   6   7
HETATM    7  C   UNL     1      -5.829  -0.801 -33.885  1.00  0.00     0.018 A 
HETATM    8  C   UNL     1      -5.840  -2.186 -34.264  1.00  0.00     0.004 A 
HETATM    9  C   UNL     1      -4.611  -2.731 -33.891  1.00  0.00     0.043 A 
HETATM   10  C   UNL     1      -6.782  -3.040 -34.880  1.00  0.00     0.014 A 
HETATM   11  C   UNL     1      -4.277  -4.075 -34.100  1.00  0.00     0.030 A 
HETATM   12  N   UNL     1      -3.877  -1.723 -33.317  1.00  0.00    -0.358 N 
HETATM   13  C   UNL     1      -5.230  -4.895 -34.710  1.00  0.00     0.002 A 
HETATM   14  C   UNL     1      -6.467  -4.386 -35.097  1.00  0.00     0.001 A 
HETATM   15  H   UNL     1      -2.944  -1.840 -32.950  1.00  0.00     0.166 HD
HETATM   16  C   UNL     1      -4.593  -0.552 -33.300  1.00  0.00     0.018 A 
HETATM   17  C   UNL     1      -4.025   0.690 -32.713  1.00  0.00     0.069 C 
ENDBRANCH   6   7
ENDBRANCH   2   5
BRANCH   1  18
HETATM   18  C   UNL     1     -11.127   1.912 -34.236  1.00  0.00     0.224 C 
BRANCH  18  19
HETATM   19  N   UNL     1     -11.846   2.410 -33.064  1.00  0.00    -0.381 N 
HETATM   20  H   UNL     1     -11.436   3.222 -32.610  1.00  0.00     0.160 HD
BRANCH  19  21
HETATM   21  C   UNL     1     -13.236   2.358 -32.995  1.00  0.00     0.028 A 
HETATM   22  C   UNL     1     -14.013   1.418 -33.680  1.00  0.00     0.032 A 
HETATM   23  C   UNL     1     -15.402   1.337 -33.498  1.00  0.00     0.039 A 
HETATM   24  C   UNL     1     -16.042   2.186 -32.600  1.00  0.00     0.068 A 
HETATM   25  C   UNL     1     -15.281   3.118 -31.899  1.00  0.00     0.039 A 
HETATM   26  C   UNL     1     -13.895   3.194 -32.085  1.00  0.00     0.032 A 
BRANCH  24  27
HETATM   27  O   UNL     1     -17.380   2.198 -32.315  1.00  0.00    -0.352 OA
BRANCH  27  28
HETATM   28  C   UNL     1     -18.074   3.426 -32.534  1.00  0.00     0.171 C 
HETATM   29  C   UNL     1     -19.203   3.160 -33.514  1.00  0.00     0.034 C 
ENDBRANCH  27  28
ENDBRANCH  24  27
ENDBRANCH  19  21
ENDBRANCH  18  19
ENDBRANCH   1  18
TORSDOF 7
ENDMDL
MODEL 2
REMARK VINA RESULT:      -8.5      1.103      1.456
REMARK  7 active torsions:
REMARK  status: ('A' for Active; 'I' for Inactive)
REMARK    1  A    between atoms: C_2  and  O_3 
REMARK    2  A    between atoms: O_3  and  C_4 
REMARK    3  A    between atoms: C_7  and  N_8 
REMARK    4  A    between atoms: N_8  and  C_9 
REMARK    5  A    between atoms: C_9  and  C_10 
REMARK       I    between atoms: C_10  and  N_11 
REMARK    6  A    between atoms: N_11  and  N_12 
REMARK    7  A    between atoms: C_13  and  C_14 
ROOT
HETATM    1  C   UNL     1      -9.123   2.660 -34.174  1.00  0.00     0.255 C 
HETATM    2  N   UNL     1      -8.955   1.367 -34.677  1.00  0.00    -0.246 N 
HETATM    3  O   UNL     1      -8.212   3.433 -33.881  1.00  0.00    -0.270 OA
HETATM    4  H   UNL     1      -9.747   0.733 -34.617  1.00  0.00     0.192 HD
ENDROOT
BRANCH   2   5
HETATM    5  N   UNL     1      -7.743   0.713 -34.707  1.00  0.00    -0.184 NA
HETATM    6  C   UNL     1      -7.491  -0.129 -33.753  1.00  0.00     0.153 C 
BRANCH   6   7
HETATM    7  C   UNL     1      -6.273  -0.921 -33.772  1.00  0.00     0.018 A 
HETATM    8  C   UNL     1      -6.077  -2.286 -34.175  1.00  0.00     0.004 A 
HETATM    9  C   UNL     1      -4.729  -2.588 -33.979  1.00  0.00     0.043 A 
HETATM   10  C   UNL     1      -6.916  -3.303 -34.679  1.00  0.00     0.014 A 
HETATM   11  C   UNL     1      -4.181  -3.847 -34.258  1.00  0.00     0.030 A 
HETATM   12  N   UNL     1      -4.126  -1.458 -33.485  1.00  0.00    -0.358 N 
HETATM   13  C   UNL     1      -5.037  -4.834 -34.754  1.00  0.00     0.002 A 
HETATM   14  C   UNL     1      -6.387  -4.567 -34.964  1.00  0.00     0.001 A 
HETATM   15  H   UNL     1      -3.146  -1.397 -33.247  1.00  0.00     0.166 HD
HETATM   16  C   UNL     1      -5.038  -0.442 -33.349  1.00  0.00     0.018 A 
HETATM   17  C   UNL     1      -4.638   0.886 -32.816  1.00  0.00     0.069 C 
ENDBRANCH   6   7
ENDBRANCH   2   5
BRANCH   1  18
HETATM   18  C   UNL     1     -10.596   3.047 -34.016  1.00  0.00     0.224 C 
BRANCH  18  19
HETATM   19  N   UNL     1     -11.465   1.883 -34.186  1.00  0.00    -0.381 N 
HETATM   20  H   UNL     1     -11.001   0.980 -34.134  1.00  0.00     0.160 HD
BRANCH  19  21
HETATM   21  C   UNL     1     -12.773   1.884 -33.710  1.00  0.00     0.028 A 
HETATM   22  C   UNL     1     -13.259   2.805 -32.776  1.00  0.00     0.032 A 
HETATM   23  C   UNL     1     -14.612   2.832 -32.405  1.00  0.00     0.039 A 
HETATM   24  C   UNL     1     -15.517   1.948 -32.984  1.00  0.00     0.068 A 
HETATM   25  C   UNL     1     -15.052   1.034 -33.927  1.00  0.00     0.039 A 
HETATM   26  C   UNL     1     -13.701   1.012 -34.294  1.00  0.00     0.032 A 
BRANCH  24  27
HETATM   27  O   UNL     1     -16.859   1.884 -32.727  1.00  0.00    -0.352 OA
BRANCH  27  28
HETATM   28  C   UNL     1     -17.462   3.046 -32.160  1.00  0.00     0.171 C 
HETATM   29  C   UNL     1     -18.768   3.303 -32.890  1.00  0.00     0.034 C 
ENDBRANCH  27  28
ENDBRANCH  24  27
ENDBRANCH  19  21
ENDBRANCH  18  19
ENDBRANCH   1  18
TORSDOF 7
ENDMDL
MODEL 3
REMARK VINA RESULT:      -8.1      5.524      8.567
REMARK  7 active torsions:
REMARK  status: ('A' for Active; 'I' for Inactive)
REMARK    1  A    between atoms: C_2  and  O_3 
REMARK    2  A    between atoms: O_3  and  C_4 
REMARK    3  A    between atoms: C_7  and  N_8 
REMARK    4  A    between atoms: N_8  and  C_9 
REMARK    5  A    between atoms: C_9  and  C_10 
REMARK       I    between atoms: C_10  and  N_11 
REMARK    6  A    between atoms: N_11  and  N_12 
REMARK    7  A    between atoms: C_13  and  C_14 
ROOT
HETATM    1  C   UNL     1      -7.277   2.540 -33.282  1.00  0.00     0.255 C 
HETATM    2  N   UNL     1      -6.505   1.825 -32.362  1.00  0.00    -0.246 N 
HETATM    3  O   UNL     1      -7.917   2.045 -34.209  1.00  0.00    -0.270 OA
HETATM    4  H   UNL     1      -5.811   2.342 -31.830  1.00  0.00     0.192 HD
ENDROOT
BRANCH   2   5
HETATM    5  N   UNL     1      -6.189   0.492 -32.505  1.00  0.00    -0.184 NA
HETATM    6  C   UNL     1      -5.085   0.198 -33.118  1.00  0.00     0.153 C 
BRANCH   6   7
HETATM    7  C   UNL     1      -4.645  -1.183 -33.223  1.00  0.00     0.018 A 
HETATM    8  C   UNL     1      -5.248  -2.283 -33.922  1.00  0.00     0.004 A 
HETATM    9  C   UNL     1      -4.455  -3.408 -33.692  1.00  0.00     0.043 A 
HETATM   10  C   UNL     1      -6.400  -2.439 -34.723  1.00  0.00     0.014 A 
HETATM   11  C   UNL     1      -4.753  -4.672 -34.217  1.00  0.00     0.030 A 
HETATM   12  N   UNL     1      -3.411  -3.013 -32.894  1.00  0.00    -0.358 N 
HETATM   13  C   UNL     1      -5.902  -4.795 -35.004  1.00  0.00     0.002 A 
HETATM   14  C   UNL     1      -6.715  -3.694 -35.257  1.00  0.00     0.001 A 
HETATM   15  H   UNL     1      -2.683  -3.632 -32.566  1.00  0.00     0.166 HD
HETATM   16  C   UNL     1      -3.507  -1.677 -32.596  1.00  0.00     0.018 A 
HETATM   17  C   UNL     1      -2.502  -1.006 -31.729  1.00  0.00     0.069 C 
ENDBRANCH   6   7
ENDBRANCH   2   5
BRANCH   1  18
HETATM   18  C   UNL     1      -7.258   4.049 -33.026  1.00  0.00     0.224 C 
BRANCH  18  19
HETATM   19  N   UNL     1      -6.457   4.741 -34.035  1.00  0.00    -0.381 N 
HETATM   20  H   UNL     1      -6.921   5.510 -34.511  1.00  0.00     0.160 HD
BRANCH  19  21
HETATM   21  C   UNL     1      -5.085   4.914 -33.872  1.00  0.00     0.028 A 
HETATM   22  C   UNL     1      -4.188   5.054 -34.935  1.00  0.00     0.032 A 
HETATM   23  C   UNL     1      -2.829   5.331 -34.721  1.00  0.00     0.039 A 
HETATM   24  C   UNL     1      -2.342   5.501 -33.428  1.00  0.00     0.068 A 
HETATM   25  C   UNL     1      -3.226   5.379 -32.358  1.00  0.00     0.039 A 
HETATM   26  C   UNL     1      -4.581   5.103 -32.578  1.00  0.00     0.032 A 
BRANCH  24  27
HETATM   27  O   UNL     1      -1.052   5.793 -33.084  1.00  0.00    -0.352 OA
BRANCH  27  28
HETATM   28  C   UNL     1      -0.836   7.007 -32.365  1.00  0.00     0.171 C 
HETATM   29  C   UNL     1       0.303   6.779 -31.387  1.00  0.00     0.034 C 
ENDBRANCH  27  28
ENDBRANCH  24  27
ENDBRANCH  19  21
ENDBRANCH  18  19
ENDBRANCH   1  18
TORSDOF 7
ENDMDL
MODEL 4
REMARK VINA RESULT:      -8.1      6.002      9.682
REMARK  7 active torsions:
REMARK  status: ('A' for Active; 'I' for Inactive)
REMARK    1  A    between atoms: C_2  and  O_3 
REMARK    2  A    between atoms: O_3  and  C_4 
REMARK    3  A    between atoms: C_7  and  N_8 
REMARK    4  A    between atoms: N_8  and  C_9 
REMARK    5  A    between atoms: C_9  and  C_10 
REMARK       I    between atoms: C_10  and  N_11 
REMARK    6  A    between atoms: N_11  and  N_12 
REMARK    7  A    between atoms: C_13  and  C_14 
ROOT
HETATM    1  C   UNL     1      -5.901   2.230 -30.617  1.00  0.00     0.255 C 
HETATM    2  N   UNL     1      -4.745   2.270 -31.402  1.00  0.00    -0.246 N 
HETATM    3  O   UNL     1      -6.426   3.200 -30.075  1.00  0.00    -0.270 OA
HETATM    4  H   UNL     1      -4.254   1.395 -31.560  1.00  0.00     0.192 HD
ENDROOT
BRANCH   2   5
HETATM    5  N   UNL     1      -3.924   3.373 -31.493  1.00  0.00    -0.184 NA
HETATM    6  C   UNL     1      -3.112   3.435 -32.502  1.00  0.00     0.153 C 
BRANCH   6   7
HETATM    7  C   UNL     1      -2.284   4.612 -32.710  1.00  0.00     0.018 A 
HETATM    8  C   UNL     1      -1.291   5.194 -31.851  1.00  0.00     0.004 A 
HETATM    9  C   UNL     1      -0.799   6.331 -32.492  1.00  0.00     0.043 A 
HETATM   10  C   UNL     1      -0.766   4.872 -30.580  1.00  0.00     0.014 A 
HETATM   11  C   UNL     1       0.183   7.158 -31.933  1.00  0.00     0.030 A 
HETATM   12  N   UNL     1      -1.456   6.436 -33.693  1.00  0.00    -0.358 N 
HETATM   13  C   UNL     1       0.681   6.815 -30.673  1.00  0.00     0.002 A 
HETATM   14  C   UNL     1       0.216   5.687 -30.004  1.00  0.00     0.001 A 
HETATM   15  H   UNL     1      -1.299   7.176 -34.361  1.00  0.00     0.166 HD
HETATM   16  C   UNL     1      -2.358   5.412 -33.843  1.00  0.00     0.018 A 
HETATM   17  C   UNL     1      -3.211   5.309 -35.056  1.00  0.00     0.069 C 
ENDBRANCH   6   7
ENDBRANCH   2   5
BRANCH   1  18
HETATM   18  C   UNL     1      -6.480   0.817 -30.488  1.00  0.00     0.224 C 
BRANCH  18  19
HETATM   19  N   UNL     1      -7.234   0.449 -31.685  1.00  0.00    -0.381 N 
HETATM   20  H   UNL     1      -7.847   1.170 -32.056  1.00  0.00     0.160 HD
BRANCH  19  21
HETATM   21  C   UNL     1      -6.686  -0.389 -32.652  1.00  0.00     0.028 A 
HETATM   22  C   UNL     1      -5.350  -0.806 -32.653  1.00  0.00     0.032 A 
HETATM   23  C   UNL     1      -4.869  -1.734 -33.589  1.00  0.00     0.039 A 
HETATM   24  C   UNL     1      -5.728  -2.290 -34.533  1.00  0.00     0.068 A 
HETATM   25  C   UNL     1      -7.065  -1.897 -34.536  1.00  0.00     0.039 A 
HETATM   26  C   UNL     1      -7.539  -0.969 -33.600  1.00  0.00     0.032 A 
BRANCH  24  27
HETATM   27  O   UNL     1      -5.394  -3.215 -35.482  1.00  0.00    -0.352 OA
BRANCH  27  28
HETATM   28  C   UNL     1      -5.804  -4.561 -35.241  1.00  0.00     0.171 C 
HETATM   29  C   UNL     1      -4.799  -5.199 -34.299  1.00  0.00     0.034 C 
ENDBRANCH  27  28
ENDBRANCH  24  27
ENDBRANCH  19  21
ENDBRANCH  18  19
ENDBRANCH   1  18
TORSDOF 7
ENDMDL
MODEL 5
REMARK VINA RESULT:      -8.1      7.666     12.284
REMARK  7 active torsions:
REMARK  status: ('A' for Active; 'I' for Inactive)
REMARK    1  A    between atoms: C_2  and  O_3 
REMARK    2  A    between atoms: O_3  and  C_4 
REMARK    3  A    between atoms: C_7  and  N_8 
REMARK    4  A    between atoms: N_8  and  C_9 
REMARK    5  A    between atoms: C_9  and  C_10 
REMARK       I    between atoms: C_10  and  N_11 
REMARK    6  A    between atoms: N_11  and  N_12 
REMARK    7  A    between atoms: C_13  and  C_14 
ROOT
HETATM    1  C   UNL     1      -1.639   4.881 -31.447  1.00  0.00     0.255 C 
HETATM    2  N   UNL     1      -2.743   4.058 -31.211  1.00  0.00    -0.246 N 
HETATM    3  O   UNL     1      -0.866   4.778 -32.398  1.00  0.00    -0.270 OA
HETATM    4  H   UNL     1      -3.133   4.053 -30.273  1.00  0.00     0.192 HD
ENDROOT
BRANCH   2   5
HETATM    5  N   UNL     1      -2.983   2.889 -31.900  1.00  0.00    -0.184 NA
HETATM    6  C   UNL     1      -4.065   2.234 -31.613  1.00  0.00     0.153 C 
BRANCH   6   7
HETATM    7  C   UNL     1      -4.428   1.044 -32.364  1.00  0.00     0.018 A 
HETATM    8  C   UNL     1      -5.497   0.846 -33.301  1.00  0.00     0.004 A 
HETATM    9  C   UNL     1      -5.438  -0.482 -33.727  1.00  0.00     0.043 A 
HETATM   10  C   UNL     1      -6.523   1.663 -33.825  1.00  0.00     0.014 A 
HETATM   11  C   UNL     1      -6.345  -1.031 -34.642  1.00  0.00     0.030 A 
HETATM   12  N   UNL     1      -4.375  -1.067 -33.085  1.00  0.00    -0.358 N 
HETATM   13  C   UNL     1      -7.350  -0.198 -35.141  1.00  0.00     0.002 A 
HETATM   14  C   UNL     1      -7.439   1.132 -34.740  1.00  0.00     0.001 A 
HETATM   15  H   UNL     1      -4.104  -2.033 -33.205  1.00  0.00     0.166 HD
HETATM   16  C   UNL     1      -3.754  -0.167 -32.256  1.00  0.00     0.018 A 
HETATM   17  C   UNL     1      -2.581  -0.561 -31.433  1.00  0.00     0.069 C 
ENDBRANCH   6   7
ENDBRANCH   2   5
BRANCH   1  18
HETATM   18  C   UNL     1      -1.469   5.965 -30.379  1.00  0.00     0.224 C 
BRANCH  18  19
HETATM   19  N   UNL     1      -0.603   5.501 -29.295  1.00  0.00    -0.381 N 
HETATM   20  H   UNL     1      -0.130   4.617 -29.461  1.00  0.00     0.160 HD
BRANCH  19  21
HETATM   21  C   UNL     1       0.118   6.399 -28.514  1.00  0.00     0.028 A 
HETATM   22  C   UNL     1       0.790   7.512 -29.031  1.00  0.00     0.032 A 
HETATM   23  C   UNL     1       1.417   8.448 -28.193  1.00  0.00     0.039 A 
HETATM   24  C   UNL     1       1.361   8.301 -26.811  1.00  0.00     0.068 A 
HETATM   25  C   UNL     1       0.684   7.205 -26.280  1.00  0.00     0.039 A 
HETATM   26  C   UNL     1       0.060   6.275 -27.120  1.00  0.00     0.032 A 
BRANCH  24  27
HETATM   27  O   UNL     1       1.909   9.147 -25.887  1.00  0.00    -0.352 OA
BRANCH  27  28
HETATM   28  C   UNL     1       1.003   9.957 -25.138  1.00  0.00     0.171 C 
HETATM   29  C   UNL     1       0.678  11.188 -25.966  1.00  0.00     0.034 C 
ENDBRANCH  27  28
ENDBRANCH  24  27
ENDBRANCH  19  21
ENDBRANCH  18  19
ENDBRANCH   1  18
TORSDOF 7
ENDMDL
MODEL 6
REMARK VINA RESULT:      -8.0      2.386      3.118
REMARK  7 active torsions:
REMARK  status: ('A' for Active; 'I' for Inactive)
REMARK    1  A    between atoms: C_2  and  O_3 
REMARK    2  A    between atoms: O_3  and  C_4 
REMARK    3  A    between atoms: C_7  and  N_8 
REMARK    4  A    between atoms: N_8  and  C_9 
REMARK    5  A    between atoms: C_9  and  C_10 
REMARK       I    between atoms: C_10  and  N_11 
REMARK    6  A    between atoms: N_11  and  N_12 
REMARK    7  A    between atoms: C_13  and  C_14 
ROOT
HETATM    1  C   UNL     1      -7.425   3.659 -33.732  1.00  0.00     0.255 C 
HETATM    2  N   UNL     1      -7.786   2.323 -33.920  1.00  0.00    -0.246 N 
HETATM    3  O   UNL     1      -6.313   4.133 -33.955  1.00  0.00    -0.270 OA
HETATM    4  H   UNL     1      -8.623   1.991 -33.448  1.00  0.00     0.192 HD
ENDROOT
BRANCH   2   5
HETATM    5  N   UNL     1      -6.880   1.318 -34.179  1.00  0.00    -0.184 NA
HETATM    6  C   UNL     1      -6.394   0.671 -33.165  1.00  0.00     0.153 C 
BRANCH   6   7
HETATM    7  C   UNL     1      -5.505  -0.460 -33.369  1.00  0.00     0.018 A 
HETATM    8  C   UNL     1      -5.788  -1.757 -33.918  1.00  0.00     0.004 A 
HETATM    9  C   UNL     1      -4.604  -2.495 -33.875  1.00  0.00     0.043 A 
HETATM   10  C   UNL     1      -6.940  -2.384 -34.441  1.00  0.00     0.014 A 
HETATM   11  C   UNL     1      -4.514  -3.819 -34.322  1.00  0.00     0.030 A 
HETATM   12  N   UNL     1      -3.639  -1.684 -33.330  1.00  0.00    -0.358 N 
HETATM   13  C   UNL     1      -5.672  -4.414 -34.832  1.00  0.00     0.002 A 
HETATM   14  C   UNL     1      -6.869  -3.707 -34.893  1.00  0.00     0.001 A 
HETATM   15  H   UNL     1      -2.683  -1.968 -33.176  1.00  0.00     0.166 HD
HETATM   16  C   UNL     1      -4.161  -0.454 -33.015  1.00  0.00     0.018 A 
HETATM   17  C   UNL     1      -3.320   0.603 -32.395  1.00  0.00     0.069 C 
ENDBRANCH   6   7
ENDBRANCH   2   5
BRANCH   1  18
HETATM   18  C   UNL     1      -8.580   4.516 -33.204  1.00  0.00     0.224 C 
BRANCH  18  19
HETATM   19  N   UNL     1      -9.522   4.841 -34.274  1.00  0.00    -0.381 N 
HETATM   20  H   UNL     1      -9.104   5.182 -35.137  1.00  0.00     0.160 HD
BRANCH  19  21
HETATM   21  C   UNL     1     -10.689   4.105 -34.455  1.00  0.00     0.028 A 
HETATM   22  C   UNL     1     -11.261   3.850 -35.706  1.00  0.00     0.032 A 
HETATM   23  C   UNL     1     -12.379   3.015 -35.848  1.00  0.00     0.039 A 
HETATM   24  C   UNL     1     -12.937   2.393 -34.735  1.00  0.00     0.068 A 
HETATM   25  C   UNL     1     -12.371   2.625 -33.484  1.00  0.00     0.039 A 
HETATM   26  C   UNL     1     -11.254   3.459 -33.348  1.00  0.00     0.032 A 
BRANCH  24  27
HETATM   27  O   UNL     1     -14.009   1.544 -34.738  1.00  0.00    -0.352 OA
BRANCH  27  28
HETATM   28  C   UNL     1     -14.259   0.819 -33.534  1.00  0.00     0.171 C 
HETATM   29  C   UNL     1     -13.570  -0.529 -33.644  1.00  0.00     0.034 C 
ENDBRANCH  27  28
ENDBRANCH  24  27
ENDBRANCH  19  21
ENDBRANCH  18  19
ENDBRANCH   1  18
TORSDOF 7
ENDMDL
MODEL 7
REMARK VINA RESULT:      -7.9      3.301      4.162
REMARK  7 active torsions:
REMARK  status: ('A' for Active; 'I' for Inactive)
REMARK    1  A    between atoms: C_2  and  O_3 
REMARK    2  A    between atoms: O_3  and  C_4 
REMARK    3  A    between atoms: C_7  and  N_8 
REMARK    4  A    between atoms: N_8  and  C_9 
REMARK    5  A    between atoms: C_9  and  C_10 
REMARK       I    between atoms: C_10  and  N_11 
REMARK    6  A    between atoms: N_11  and  N_12 
REMARK    7  A    between atoms: C_13  and  C_14 
ROOT
HETATM    1  C   UNL     1     -10.399   0.622 -33.336  1.00  0.00     0.255 C 
HETATM    2  N   UNL     1      -9.034   0.881 -33.488  1.00  0.00    -0.246 N 
HETATM    3  O   UNL     1     -10.879  -0.408 -32.867  1.00  0.00    -0.270 OA
HETATM    4  H   UNL     1      -8.765   1.621 -34.130  1.00  0.00     0.192 HD
ENDROOT
BRANCH   2   5
HETATM    5  N   UNL     1      -8.054  -0.074 -33.327  1.00  0.00    -0.184 NA
HETATM    6  C   UNL     1      -7.000   0.015 -34.077  1.00  0.00     0.153 C 
BRANCH   6   7
HETATM    7  C   UNL     1      -5.888  -0.904 -33.897  1.00  0.00     0.018 A 
HETATM    8  C   UNL     1      -5.790  -2.296 -34.234  1.00  0.00     0.004 A 
HETATM    9  C   UNL     1      -4.527  -2.734 -33.834  1.00  0.00     0.043 A 
HETATM   10  C   UNL     1      -6.657  -3.237 -34.831  1.00  0.00     0.014 A 
HETATM   11  C   UNL     1      -4.089  -4.054 -33.999  1.00  0.00     0.030 A 
HETATM   12  N   UNL     1      -3.878  -1.656 -33.284  1.00  0.00    -0.358 N 
HETATM   13  C   UNL     1      -4.970  -4.962 -34.592  1.00  0.00     0.002 A 
HETATM   14  C   UNL     1      -6.238  -4.561 -35.005  1.00  0.00     0.001 A 
HETATM   15  H   UNL     1      -2.943  -1.691 -32.906  1.00  0.00     0.166 HD
HETATM   16  C   UNL     1      -4.682  -0.543 -33.309  1.00  0.00     0.018 A 
HETATM   17  C   UNL     1      -4.216   0.755 -32.755  1.00  0.00     0.069 C 
ENDBRANCH   6   7
ENDBRANCH   2   5
BRANCH   1  18
HETATM   18  C   UNL     1     -11.279   1.777 -33.823  1.00  0.00     0.224 C 
BRANCH  18  19
HETATM   19  N   UNL     1     -10.554   2.624 -34.770  1.00  0.00    -0.381 N 
HETATM   20  H   UNL     1     -10.193   2.150 -35.594  1.00  0.00     0.160 HD
BRANCH  19  21
HETATM   21  C   UNL     1     -10.932   3.946 -34.989  1.00  0.00     0.028 A 
HETATM   22  C   UNL     1     -10.027   5.009 -35.071  1.00  0.00     0.032 A 
HETATM   23  C   UNL     1     -10.445   6.308 -35.398  1.00  0.00     0.039 A 
HETATM   24  C   UNL     1     -11.784   6.566 -35.676  1.00  0.00     0.068 A 
HETATM   25  C   UNL     1     -12.696   5.515 -35.613  1.00  0.00     0.039 A 
HETATM   26  C   UNL     1     -12.273   4.221 -35.286  1.00  0.00     0.032 A 
BRANCH  24  27
HETATM   27  O   UNL     1     -12.316   7.776 -36.025  1.00  0.00    -0.352 OA
BRANCH  27  28
HETATM   28  C   UNL     1     -11.565   8.569 -36.944  1.00  0.00     0.171 C 
HETATM   29  C   UNL     1     -12.436   8.835 -38.159  1.00  0.00     0.034 C 
ENDBRANCH  27  28
ENDBRANCH  24  27
ENDBRANCH  19  21
ENDBRANCH  18  19
ENDBRANCH   1  18
TORSDOF 7
ENDMDL
MODEL 8
REMARK VINA RESULT:      -7.9      5.801     10.784
REMARK  7 active torsions:
REMARK  status: ('A' for Active; 'I' for Inactive)
REMARK    1  A    between atoms: C_2  and  O_3 
REMARK    2  A    between atoms: O_3  and  C_4 
REMARK    3  A    between atoms: C_7  and  N_8 
REMARK    4  A    between atoms: N_8  and  C_9 
REMARK    5  A    between atoms: C_9  and  C_10 
REMARK       I    between atoms: C_10  and  N_11 
REMARK    6  A    between atoms: N_11  and  N_12 
REMARK    7  A    between atoms: C_13  and  C_14 
ROOT
HETATM    1  C   UNL     1      -4.245   5.217 -34.158  1.00  0.00     0.255 C 
HETATM    2  N   UNL     1      -4.872   4.310 -33.299  1.00  0.00    -0.246 N 
HETATM    3  O   UNL     1      -4.335   5.213 -35.384  1.00  0.00    -0.270 OA
HETATM    4  H   UNL     1      -4.511   4.233 -32.352  1.00  0.00     0.192 HD
ENDROOT
BRANCH   2   5
HETATM    5  N   UNL     1      -5.501   3.163 -33.730  1.00  0.00    -0.184 NA
HETATM    6  C   UNL     1      -5.652   2.202 -32.871  1.00  0.00     0.153 C 
BRANCH   6   7
HETATM    7  C   UNL     1      -6.388   1.001 -33.231  1.00  0.00     0.018 A 
HETATM    8  C   UNL     1      -5.894  -0.291 -33.618  1.00  0.00     0.004 A 
HETATM    9  C   UNL     1      -7.001  -1.096 -33.889  1.00  0.00     0.043 A 
HETATM   10  C   UNL     1      -4.611  -0.857 -33.777  1.00  0.00     0.014 A 
HETATM   11  C   UNL     1      -6.892  -2.428 -34.309  1.00  0.00     0.030 A 
HETATM   12  N   UNL     1      -8.122  -0.333 -33.671  1.00  0.00    -0.358 N 
HETATM   13  C   UNL     1      -5.608  -2.959 -34.459  1.00  0.00     0.002 A 
HETATM   14  C   UNL     1      -4.481  -2.186 -34.195  1.00  0.00     0.001 A 
HETATM   15  H   UNL     1      -9.067  -0.666 -33.798  1.00  0.00     0.166 HD
HETATM   16  C   UNL     1      -7.775   0.935 -33.277  1.00  0.00     0.018 A 
HETATM   17  C   UNL     1      -8.811   1.964 -32.993  1.00  0.00     0.069 C 
ENDBRANCH   6   7
ENDBRANCH   2   5
BRANCH   1  18
HETATM   18  C   UNL     1      -3.405   6.257 -33.410  1.00  0.00     0.224 C 
BRANCH  18  19
HETATM   19  N   UNL     1      -1.980   5.939 -33.497  1.00  0.00    -0.381 N 
HETATM   20  H   UNL     1      -1.513   6.249 -34.346  1.00  0.00     0.160 HD
BRANCH  19  21
HETATM   21  C   UNL     1      -1.171   5.941 -32.365  1.00  0.00     0.028 A 
HETATM   22  C   UNL     1      -0.408   7.041 -31.957  1.00  0.00     0.032 A 
HETATM   23  C   UNL     1       0.310   7.032 -30.752  1.00  0.00     0.039 A 
HETATM   24  C   UNL     1       0.258   5.925 -29.911  1.00  0.00     0.068 A 
HETATM   25  C   UNL     1      -0.509   4.827 -30.295  1.00  0.00     0.039 A 
HETATM   26  C   UNL     1      -1.223   4.841 -31.499  1.00  0.00     0.032 A 
BRANCH  24  27
HETATM   27  O   UNL     1       0.891   5.797 -28.706  1.00  0.00    -0.352 OA
BRANCH  27  28
HETATM   28  C   UNL     1       0.335   6.518 -27.607  1.00  0.00     0.171 C 
HETATM   29  C   UNL     1       1.324   7.596 -27.202  1.00  0.00     0.034 C 
ENDBRANCH  27  28
ENDBRANCH  24  27
ENDBRANCH  19  21
ENDBRANCH  18  19
ENDBRANCH   1  18
TORSDOF 7
ENDMDL
MODEL 9
REMARK VINA RESULT:      -7.8      8.009     12.715
REMARK  7 active torsions:
REMARK  status: ('A' for Active; 'I' for Inactive)
REMARK    1  A    between atoms: C_2  and  O_3 
REMARK    2  A    between atoms: O_3  and  C_4 
REMARK    3  A    between atoms: C_7  and  N_8 
REMARK    4  A    between atoms: N_8  and  C_9 
REMARK    5  A    between atoms: C_9  and  C_10 
REMARK       I    between atoms: C_10  and  N_11 
REMARK    6  A    between atoms: N_11  and  N_12 
REMARK    7  A    between atoms: C_13  and  C_14 
ROOT
HETATM    1  C   UNL     1      -1.427   5.101 -31.193  1.00  0.00     0.255 C 
HETATM    2  N   UNL     1      -2.713   4.556 -31.134  1.00  0.00    -0.246 N 
HETATM    3  O   UNL     1      -0.555   4.778 -31.997  1.00  0.00    -0.270 OA
HETATM    4  H   UNL     1      -3.240   4.688 -30.275  1.00  0.00     0.192 HD
ENDROOT
BRANCH   2   5
HETATM    5  N   UNL     1      -3.098   3.434 -31.835  1.00  0.00    -0.184 NA
HETATM    6  C   UNL     1      -4.255   2.919 -31.554  1.00  0.00     0.153 C 
BRANCH   6   7
HETATM    7  C   UNL     1      -4.764   1.792 -32.318  1.00  0.00     0.018 A 
HETATM    8  C   UNL     1      -4.303   0.432 -32.357  1.00  0.00     0.004 A 
HETATM    9  C   UNL     1      -5.108  -0.255 -33.266  1.00  0.00     0.043 A 
HETATM   10  C   UNL     1      -3.270  -0.285 -31.715  1.00  0.00     0.014 A 
HETATM   11  C   UNL     1      -4.934  -1.612 -33.566  1.00  0.00     0.030 A 
HETATM   12  N   UNL     1      -6.025   0.642 -33.756  1.00  0.00    -0.358 N 
HETATM   13  C   UNL     1      -3.901  -2.294 -32.916  1.00  0.00     0.002 A 
HETATM   14  C   UNL     1      -3.080  -1.641 -32.001  1.00  0.00     0.001 A 
HETATM   15  H   UNL     1      -6.731   0.412 -34.440  1.00  0.00     0.166 HD
HETATM   16  C   UNL     1      -5.834   1.882 -33.201  1.00  0.00     0.018 A 
HETATM   17  C   UNL     1      -6.690   3.036 -33.580  1.00  0.00     0.069 C 
ENDBRANCH   6   7
ENDBRANCH   2   5
BRANCH   1  18
HETATM   18  C   UNL     1      -1.190   6.176 -30.129  1.00  0.00     0.224 C 
BRANCH  18  19
HETATM   19  N   UNL     1      -0.197   5.735 -29.151  1.00  0.00    -0.381 N 
HETATM   20  H   UNL     1       0.450   5.020 -29.475  1.00  0.00     0.160 HD
BRANCH  19  21
HETATM   21  C   UNL     1       0.347   6.621 -28.225  1.00  0.00     0.028 A 
HETATM   22  C   UNL     1       1.064   7.769 -28.577  1.00  0.00     0.032 A 
HETATM   23  C   UNL     1       1.503   8.688 -27.612  1.00  0.00     0.039 A 
HETATM   24  C   UNL     1       1.208   8.489 -26.267  1.00  0.00     0.068 A 
HETATM   25  C   UNL     1       0.482   7.358 -25.901  1.00  0.00     0.039 A 
HETATM   26  C   UNL     1       0.046   6.444 -26.868  1.00  0.00     0.032 A 
BRANCH  24  27
HETATM   27  O   UNL     1       1.556   9.313 -25.234  1.00  0.00    -0.352 OA
BRANCH  27  28
HETATM   28  C   UNL     1       2.920   9.279 -24.814  1.00  0.00     0.171 C 
HETATM   29  C   UNL     1       2.960   8.777 -23.381  1.00  0.00     0.034 C 
ENDBRANCH  27  28
ENDBRANCH  24  27
ENDBRANCH  19  21
ENDBRANCH  18  19
ENDBRANCH   1  18
TORSDOF 7
ENDMDL
MODEL 10
REMARK VINA RESULT:      -7.7      4.379      7.988
REMARK  7 active torsions:
REMARK  status: ('A' for Active; 'I' for Inactive)
REMARK    1  A    between atoms: C_2  and  O_3 
REMARK    2  A    between atoms: O_3  and  C_4 
REMARK    3  A    between atoms: C_7  and  N_8 
REMARK    4  A    between atoms: N_8  and  C_9 
REMARK    5  A    between atoms: C_9  and  C_10 
REMARK       I    between atoms: C_10  and  N_11 
REMARK    6  A    between atoms: N_11  and  N_12 
REMARK    7  A    between atoms: C_13  and  C_14 
ROOT
HETATM    1  C   UNL     1      -9.139   3.499 -33.589  1.00  0.00     0.255 C 
HETATM    2  N   UNL     1      -7.876   3.694 -34.154  1.00  0.00    -0.246 N 
HETATM    3  O   UNL     1      -9.454   3.790 -32.437  1.00  0.00    -0.270 OA
HETATM    4  H   UNL     1      -7.652   3.171 -34.996  1.00  0.00     0.192 HD
ENDROOT
BRANCH   2   5
HETATM    5  N   UNL     1      -6.759   4.040 -33.424  1.00  0.00    -0.184 NA
HETATM    6  C   UNL     1      -5.779   3.192 -33.388  1.00  0.00     0.153 C 
BRANCH   6   7
HETATM    7  C   UNL     1      -4.536   3.532 -32.714  1.00  0.00     0.018 A 
HETATM    8  C   UNL     1      -3.437   4.333 -33.174  1.00  0.00     0.004 A 
HETATM    9  C   UNL     1      -2.471   4.332 -32.168  1.00  0.00     0.043 A 
HETATM   10  C   UNL     1      -3.159   5.053 -34.356  1.00  0.00     0.014 A 
HETATM   11  C   UNL     1      -1.250   5.009 -32.281  1.00  0.00     0.030 A 
HETATM   12  N   UNL     1      -2.960   3.571 -31.135  1.00  0.00    -0.358 N 
HETATM   13  C   UNL     1      -1.003   5.712 -33.464  1.00  0.00     0.002 A 
HETATM   14  C   UNL     1      -1.945   5.736 -34.489  1.00  0.00     0.001 A 
HETATM   15  H   UNL     1      -2.460   3.396 -30.275  1.00  0.00     0.166 HD
HETATM   16  C   UNL     1      -4.202   3.076 -31.444  1.00  0.00     0.018 A 
HETATM   17  C   UNL     1      -4.942   2.205 -30.494  1.00  0.00     0.069 C 
ENDBRANCH   6   7
ENDBRANCH   2   5
BRANCH   1  18
HETATM   18  C   UNL     1     -10.135   2.870 -34.568  1.00  0.00     0.224 C 
BRANCH  18  19
HETATM   19  N   UNL     1     -10.163   1.415 -34.423  1.00  0.00    -0.381 N 
HETATM   20  H   UNL     1     -10.805   0.926 -35.041  1.00  0.00     0.160 HD
BRANCH  19  21
HETATM   21  C   UNL     1      -9.010   0.700 -34.112  1.00  0.00     0.028 A 
HETATM   22  C   UNL     1      -8.037   0.348 -35.053  1.00  0.00     0.032 A 
HETATM   23  C   UNL     1      -6.841  -0.282 -34.676  1.00  0.00     0.039 A 
HETATM   24  C   UNL     1      -6.582  -0.552 -33.335  1.00  0.00     0.068 A 
HETATM   25  C   UNL     1      -7.535  -0.195 -32.384  1.00  0.00     0.039 A 
HETATM   26  C   UNL     1      -8.726   0.434 -32.766  1.00  0.00     0.032 A 
BRANCH  24  27
HETATM   27  O   UNL     1      -5.454  -1.139 -32.834  1.00  0.00    -0.352 OA
BRANCH  27  28
HETATM   28  C   UNL     1      -4.270  -1.041 -33.626  1.00  0.00     0.171 C 
HETATM   29  C   UNL     1      -3.241  -0.249 -32.841  1.00  0.00     0.034 C 
ENDBRANCH  27  28
ENDBRANCH  24  27
ENDBRANCH  19  21
ENDBRANCH  18  19
ENDBRANCH   1  18
TORSDOF 7
ENDMDL
