MODEL 1
REMARK VINA RESULT:      -8.0      0.000      0.000
REMARK  9 active torsions:
REMARK  status: ('A' for Active; 'I' for Inactive)
REMARK    1  A    between atoms: C_2  and  C_3 
REMARK    2  A    between atoms: C_3  and  N_4 
REMARK    3  A    between atoms: C_7  and  C_8 
REMARK       I    between atoms: C_8  and  N_9 
REMARK    4  A    between atoms: N_9  and  C_10 
REMARK    5  A    between atoms: C_10  and  C_11 
REMARK    6  A    between atoms: C_13  and  O_14 
REMARK    7  A    between atoms: O_14  and  C_15 
REMARK    8  A    between atoms: C_15  and  C_16 
REMARK       I    between atoms: C_16  and  N_17 
REMARK    9  A    between atoms: C_23  and  C_24 
ROOT
HETATM    1  C   UNL     1      -5.257   1.899 -32.118  1.00  0.00     0.255 C 
HETATM    2  N   UNL     1      -4.304   2.661 -32.763  1.00  0.00    -0.353 N 
HETATM    3  O   UNL     1      -6.090   2.373 -31.350  1.00  0.00    -0.268 OA
HETATM    4  H   UNL     1      -3.805   2.246 -33.536  1.00  0.00     0.163 HD
ENDROOT
BRANCH   2   5
HETATM    5  C   UNL     1      -4.420   4.100 -32.686  1.00  0.00     0.161 C 
BRANCH   5   6
HETATM    6  C   UNL     1      -3.165   4.884 -32.976  1.00  0.00    -0.038 A 
HETATM    7  C   UNL     1      -2.483   5.641 -32.013  1.00  0.00     0.045 A 
HETATM    8  C   UNL     1      -1.385   6.440 -32.365  1.00  0.00     0.070 A 
HETATM    9  C   UNL     1      -0.970   6.491 -33.696  1.00  0.00     0.037 A 
HETATM   10  C   UNL     1      -1.643   5.749 -34.666  1.00  0.00     0.003 A 
HETATM   11  C   UNL     1      -2.730   4.955 -34.309  1.00  0.00     0.009 A 
BRANCH   8  12
HETATM   12  O   UNL     1      -0.810   7.125 -31.326  1.00  0.00    -0.342 OA
BRANCH  12  13
HETATM   13  C   UNL     1       0.540   6.786 -31.014  1.00  0.00     0.278 C 
BRANCH  13  14
HETATM   14  C   UNL     1       0.636   5.386 -30.411  1.00  0.00     0.239 C 
HETATM   15  N   UNL     1      -0.004   5.207 -29.219  1.00  0.00    -0.368 N 
HETATM   16  H   UNL     1      -0.323   6.012 -28.692  1.00  0.00     0.159 HD
HETATM   17  H   UNL     1       0.084   4.312 -28.759  1.00  0.00     0.159 HD
HETATM   18  O   UNL     1       1.201   4.451 -30.971  1.00  0.00    -0.271 OA
ENDBRANCH  13  14
ENDBRANCH  12  13
ENDBRANCH   8  12
ENDBRANCH   5   6
ENDBRANCH   2   5
BRANCH   1  19
HETATM   19  C   UNL     1      -5.283   0.500 -32.479  1.00  0.00     0.075 A 
HETATM   20  C   UNL     1      -4.589  -0.517 -31.789  1.00  0.00     0.158 A 
HETATM   21  N   UNL     1      -4.644  -1.695 -32.403  1.00  0.00    -0.183 NA
HETATM   22  N   UNL     1      -5.334  -1.437 -33.534  1.00  0.00    -0.268 N 
HETATM   23  C   UNL     1      -5.793  -0.134 -33.602  1.00  0.00     0.052 A 
BRANCH  22  24
HETATM   24  C   UNL     1      -5.383  -2.449 -34.593  1.00  0.00     0.106 C 
HETATM   25  C   UNL     1      -4.205  -3.417 -34.429  1.00  0.00     0.034 C 
BRANCH  24  26
HETATM   26  C   UNL     1      -6.702  -3.248 -34.667  1.00  0.00     0.022 C 
HETATM   27  C   UNL     1      -6.560  -4.575 -35.399  1.00  0.00     0.007 C 
ENDBRANCH  24  26
ENDBRANCH  22  24
BRANCH  23  28
HETATM   28  C   UNL     1      -6.606   0.437 -34.766  1.00  0.00     0.038 A 
HETATM   29  C   UNL     1      -8.063   0.065 -34.917  1.00  0.00     0.011 A 
HETATM   30  C   UNL     1      -7.696   1.454 -34.519  1.00  0.00     0.011 A 
ENDBRANCH  23  28
ENDBRANCH   1  19
TORSDOF 9
ENDMDL
MODEL 2
REMARK VINA RESULT:      -7.7      5.250      8.285
REMARK  9 active torsions:
REMARK  status: ('A' for Active; 'I' for Inactive)
REMARK    1  A    between atoms: C_2  and  C_3 
REMARK    2  A    between atoms: C_3  and  N_4 
REMARK    3  A    between atoms: C_7  and  C_8 
REMARK       I    between atoms: C_8  and  N_9 
REMARK    4  A    between atoms: N_9  and  C_10 
REMARK    5  A    between atoms: C_10  and  C_11 
REMARK    6  A    between atoms: C_13  and  O_14 
REMARK    7  A    between atoms: O_14  and  C_15 
REMARK    8  A    between atoms: C_15  and  C_16 
REMARK       I    between atoms: C_16  and  N_17 
REMARK    9  A    between atoms: C_23  and  C_24 
ROOT
HETATM    1  C   UNL     1      -8.234   1.919 -31.847  1.00  0.00     0.255 C 
HETATM    2  N   UNL     1      -7.809   0.948 -30.963  1.00  0.00    -0.353 N 
HETATM    3  O   UNL     1      -7.511   2.829 -32.242  1.00  0.00    -0.268 OA
HETATM    4  H   UNL     1      -8.376   0.119 -30.856  1.00  0.00     0.163 HD
ENDROOT
BRANCH   2   5
HETATM    5  C   UNL     1      -6.399   0.886 -30.648  1.00  0.00     0.161 C 
BRANCH   5   6
HETATM    6  C   UNL     1      -5.556   0.013 -31.543  1.00  0.00    -0.038 A 
HETATM    7  C   UNL     1      -6.053  -0.646 -32.676  1.00  0.00     0.045 A 
HETATM    8  C   UNL     1      -5.251  -1.534 -33.407  1.00  0.00     0.070 A 
HETATM    9  C   UNL     1      -3.940  -1.774 -32.996  1.00  0.00     0.037 A 
HETATM   10  C   UNL     1      -3.433  -1.131 -31.867  1.00  0.00     0.003 A 
HETATM   11  C   UNL     1      -4.235  -0.248 -31.148  1.00  0.00     0.009 A 
BRANCH   8  12
HETATM   12  O   UNL     1      -5.861  -2.107 -34.493  1.00  0.00    -0.342 OA
BRANCH  12  13
HETATM   13  C   UNL     1      -5.124  -3.123 -35.172  1.00  0.00     0.278 C 
BRANCH  13  14
HETATM   14  C   UNL     1      -5.713  -4.507 -34.905  1.00  0.00     0.239 C 
HETATM   15  N   UNL     1      -7.033  -4.660 -35.213  1.00  0.00    -0.368 N 
HETATM   16  H   UNL     1      -7.607  -3.844 -35.395  1.00  0.00     0.159 HD
HETATM   17  H   UNL     1      -7.475  -5.543 -34.997  1.00  0.00     0.159 HD
HETATM   18  O   UNL     1      -5.047  -5.452 -34.493  1.00  0.00    -0.271 OA
ENDBRANCH  13  14
ENDBRANCH  12  13
ENDBRANCH   8  12
ENDBRANCH   5   6
ENDBRANCH   2   5
BRANCH   1  19
HETATM   19  C   UNL     1      -9.570   1.745 -32.366  1.00  0.00     0.075 A 
HETATM   20  C   UNL     1     -10.002   0.623 -33.106  1.00  0.00     0.158 A 
HETATM   21  N   UNL     1     -11.226   0.768 -33.605  1.00  0.00    -0.183 NA
HETATM   22  N   UNL     1     -11.580   2.016 -33.237  1.00  0.00    -0.268 N 
HETATM   23  C   UNL     1     -10.635   2.632 -32.436  1.00  0.00     0.052 A 
BRANCH  22  24
HETATM   24  C   UNL     1     -12.776   2.626 -33.822  1.00  0.00     0.106 C 
HETATM   25  C   UNL     1     -12.649   2.637 -35.350  1.00  0.00     0.034 C 
BRANCH  24  26
HETATM   26  C   UNL     1     -14.109   1.959 -33.420  1.00  0.00     0.022 C 
HETATM   27  C   UNL     1     -14.698   2.520 -32.134  1.00  0.00     0.007 C 
ENDBRANCH  24  26
ENDBRANCH  22  24
BRANCH  23  28
HETATM   28  C   UNL     1     -10.771   4.047 -31.870  1.00  0.00     0.038 A 
HETATM   29  C   UNL     1     -11.734   4.311 -30.736  1.00  0.00     0.011 A 
HETATM   30  C   UNL     1     -10.266   4.374 -30.484  1.00  0.00     0.011 A 
ENDBRANCH  23  28
ENDBRANCH   1  19
TORSDOF 9
ENDMDL
MODEL 3
REMARK VINA RESULT:      -7.5      2.587      8.526
REMARK  9 active torsions:
REMARK  status: ('A' for Active; 'I' for Inactive)
REMARK    1  A    between atoms: C_2  and  C_3 
REMARK    2  A    between atoms: C_3  and  N_4 
REMARK    3  A    between atoms: C_7  and  C_8 
REMARK       I    between atoms: C_8  and  N_9 
REMARK    4  A    between atoms: N_9  and  C_10 
REMARK    5  A    between atoms: C_10  and  C_11 
REMARK    6  A    between atoms: C_13  and  O_14 
REMARK    7  A    between atoms: O_14  and  C_15 
REMARK    8  A    between atoms: C_15  and  C_16 
REMARK       I    between atoms: C_16  and  N_17 
REMARK    9  A    between atoms: C_23  and  C_24 
ROOT
HETATM    1  C   UNL     1      -5.192   3.815 -32.538  1.00  0.00     0.255 C 
HETATM    2  N   UNL     1      -5.577   2.732 -31.775  1.00  0.00    -0.353 N 
HETATM    3  O   UNL     1      -5.742   4.122 -33.592  1.00  0.00    -0.268 OA
HETATM    4  H   UNL     1      -5.234   2.670 -30.827  1.00  0.00     0.163 HD
ENDROOT
BRANCH   2   5
HETATM    5  C   UNL     1      -6.804   2.054 -32.128  1.00  0.00     0.161 C 
BRANCH   5   6
HETATM    6  C   UNL     1      -6.662   0.841 -33.013  1.00  0.00    -0.038 A 
HETATM    7  C   UNL     1      -5.630  -0.098 -32.883  1.00  0.00     0.045 A 
HETATM    8  C   UNL     1      -5.483  -1.145 -33.805  1.00  0.00     0.070 A 
HETATM    9  C   UNL     1      -6.373  -1.249 -34.874  1.00  0.00     0.037 A 
HETATM   10  C   UNL     1      -7.401  -0.318 -35.021  1.00  0.00     0.003 A 
HETATM   11  C   UNL     1      -7.542   0.717 -34.100  1.00  0.00     0.009 A 
BRANCH   8  12
HETATM   12  O   UNL     1      -4.435  -1.993 -33.558  1.00  0.00    -0.342 OA
BRANCH  12  13
HETATM   13  C   UNL     1      -4.222  -3.033 -34.511  1.00  0.00     0.278 C 
BRANCH  13  14
HETATM   14  C   UNL     1      -3.933  -4.365 -33.823  1.00  0.00     0.239 C 
HETATM   15  N   UNL     1      -4.599  -5.447 -34.321  1.00  0.00    -0.368 N 
HETATM   16  H   UNL     1      -5.381  -5.312 -34.952  1.00  0.00     0.159 HD
HETATM   17  H   UNL     1      -4.480  -6.337 -33.857  1.00  0.00     0.159 HD
HETATM   18  O   UNL     1      -3.117  -4.489 -32.915  1.00  0.00    -0.271 OA
ENDBRANCH  13  14
ENDBRANCH  12  13
ENDBRANCH   8  12
ENDBRANCH   5   6
ENDBRANCH   2   5
BRANCH   1  19
HETATM   19  C   UNL     1      -4.151   4.639 -31.969  1.00  0.00     0.075 A 
HETATM   20  C   UNL     1      -4.289   5.400 -30.788  1.00  0.00     0.158 A 
HETATM   21  N   UNL     1      -3.249   6.194 -30.555  1.00  0.00    -0.183 NA
HETATM   22  N   UNL     1      -2.445   5.994 -31.620  1.00  0.00    -0.268 N 
HETATM   23  C   UNL     1      -2.919   5.019 -32.480  1.00  0.00     0.052 A 
BRANCH  22  24
HETATM   24  C   UNL     1      -1.307   6.890 -31.840  1.00  0.00     0.106 C 
HETATM   25  C   UNL     1      -1.794   8.344 -31.840  1.00  0.00     0.034 C 
BRANCH  24  26
HETATM   26  C   UNL     1      -0.151   6.732 -30.829  1.00  0.00     0.022 C 
HETATM   27  C   UNL     1       0.518   5.367 -30.889  1.00  0.00     0.007 C 
ENDBRANCH  24  26
ENDBRANCH  22  24
BRANCH  23  28
HETATM   28  C   UNL     1      -2.213   4.582 -33.765  1.00  0.00     0.038 A 
HETATM   29  C   UNL     1      -2.653   5.153 -35.093  1.00  0.00     0.011 A 
HETATM   30  C   UNL     1      -1.332   5.545 -34.526  1.00  0.00     0.011 A 
ENDBRANCH  23  28
ENDBRANCH   1  19
TORSDOF 9
ENDMDL
MODEL 4
REMARK VINA RESULT:      -7.3      1.330      2.515
REMARK  9 active torsions:
REMARK  status: ('A' for Active; 'I' for Inactive)
REMARK    1  A    between atoms: C_2  and  C_3 
REMARK    2  A    between atoms: C_3  and  N_4 
REMARK    3  A    between atoms: C_7  and  C_8 
REMARK       I    between atoms: C_8  and  N_9 
REMARK    4  A    between atoms: N_9  and  C_10 
REMARK    5  A    between atoms: C_10  and  C_11 
REMARK    6  A    between atoms: C_13  and  O_14 
REMARK    7  A    between atoms: O_14  and  C_15 
REMARK    8  A    between atoms: C_15  and  C_16 
REMARK       I    between atoms: C_16  and  N_17 
REMARK    9  A    between atoms: C_23  and  C_24 
ROOT
HETATM    1  C   UNL     1      -5.629   1.928 -32.557  1.00  0.00     0.255 C 
HETATM    2  N   UNL     1      -4.500   2.706 -32.721  1.00  0.00    -0.353 N 
HETATM    3  O   UNL     1      -6.594   2.279 -31.884  1.00  0.00    -0.268 OA
HETATM    4  H   UNL     1      -3.852   2.456 -33.454  1.00  0.00     0.163 HD
ENDROOT
BRANCH   2   5
HETATM    5  C   UNL     1      -4.541   4.071 -32.248  1.00  0.00     0.161 C 
BRANCH   5   6
HETATM    6  C   UNL     1      -3.258   4.854 -32.367  1.00  0.00    -0.038 A 
HETATM    7  C   UNL     1      -2.846   5.816 -31.434  1.00  0.00     0.045 A 
HETATM    8  C   UNL     1      -1.700   6.593 -31.654  1.00  0.00     0.070 A 
HETATM    9  C   UNL     1      -0.962   6.414 -32.824  1.00  0.00     0.037 A 
HETATM   10  C   UNL     1      -1.363   5.467 -33.765  1.00  0.00     0.003 A 
HETATM   11  C   UNL     1      -2.501   4.696 -33.539  1.00  0.00     0.009 A 
BRANCH   8  12
HETATM   12  O   UNL     1      -1.410   7.492 -30.660  1.00  0.00    -0.342 OA
BRANCH  12  13
HETATM   13  C   UNL     1      -1.532   7.018 -29.320  1.00  0.00     0.278 C 
BRANCH  13  14
HETATM   14  C   UNL     1      -0.163   6.820 -28.674  1.00  0.00     0.239 C 
HETATM   15  N   UNL     1      -0.009   5.675 -27.948  1.00  0.00    -0.368 N 
HETATM   16  H   UNL     1      -0.822   5.125 -27.694  1.00  0.00     0.159 HD
HETATM   17  H   UNL     1       0.863   5.535 -27.457  1.00  0.00     0.159 HD
HETATM   18  O   UNL     1       0.771   7.601 -28.828  1.00  0.00    -0.271 OA
ENDBRANCH  13  14
ENDBRANCH  12  13
ENDBRANCH   8  12
ENDBRANCH   5   6
ENDBRANCH   2   5
BRANCH   1  19
HETATM   19  C   UNL     1      -5.652   0.698 -33.314  1.00  0.00     0.075 A 
HETATM   20  C   UNL     1      -6.411   0.494 -34.486  1.00  0.00     0.158 A 
HETATM   21  N   UNL     1      -6.388  -0.766 -34.910  1.00  0.00    -0.183 NA
HETATM   22  N   UNL     1      -5.653  -1.407 -33.978  1.00  0.00    -0.268 N 
HETATM   23  C   UNL     1      -5.136  -0.555 -33.018  1.00  0.00     0.052 A 
BRANCH  22  24
HETATM   24  C   UNL     1      -5.616  -2.871 -33.974  1.00  0.00     0.106 C 
HETATM   25  C   UNL     1      -6.829  -3.415 -34.737  1.00  0.00     0.034 C 
BRANCH  24  26
HETATM   26  C   UNL     1      -4.323  -3.490 -34.550  1.00  0.00     0.022 C 
HETATM   27  C   UNL     1      -3.693  -4.526 -33.631  1.00  0.00     0.007 C 
ENDBRANCH  24  26
ENDBRANCH  22  24
BRANCH  23  28
HETATM   28  C   UNL     1      -4.263  -1.004 -31.844  1.00  0.00     0.038 A 
HETATM   29  C   UNL     1      -2.779  -1.203 -32.045  1.00  0.00     0.011 A 
HETATM   30  C   UNL     1      -3.263  -0.058 -31.222  1.00  0.00     0.011 A 
ENDBRANCH  23  28
ENDBRANCH   1  19
TORSDOF 9
ENDMDL
MODEL 5
REMARK VINA RESULT:      -7.3      2.886      9.543
REMARK  9 active torsions:
REMARK  status: ('A' for Active; 'I' for Inactive)
REMARK    1  A    between atoms: C_2  and  C_3 
REMARK    2  A    between atoms: C_3  and  N_4 
REMARK    3  A    between atoms: C_7  and  C_8 
REMARK       I    between atoms: C_8  and  N_9 
REMARK    4  A    between atoms: N_9  and  C_10 
REMARK    5  A    between atoms: C_10  and  C_11 
REMARK    6  A    between atoms: C_13  and  O_14 
REMARK    7  A    between atoms: O_14  and  C_15 
REMARK    8  A    between atoms: C_15  and  C_16 
REMARK       I    between atoms: C_16  and  N_17 
REMARK    9  A    between atoms: C_23  and  C_24 
ROOT
HETATM    1  C   UNL     1      -1.693   4.677 -31.784  1.00  0.00     0.255 C 
HETATM    2  N   UNL     1      -2.699   3.851 -31.327  1.00  0.00    -0.353 N 
HETATM    3  O   UNL     1      -1.520   4.929 -32.973  1.00  0.00    -0.268 OA
HETATM    4  H   UNL     1      -2.916   3.866 -30.340  1.00  0.00     0.163 HD
ENDROOT
BRANCH   2   5
HETATM    5  C   UNL     1      -3.711   3.427 -32.267  1.00  0.00     0.161 C 
BRANCH   5   6
HETATM    6  C   UNL     1      -4.154   1.990 -32.164  1.00  0.00    -0.038 A 
HETATM    7  C   UNL     1      -5.364   1.511 -32.685  1.00  0.00     0.045 A 
HETATM    8  C   UNL     1      -5.776   0.189 -32.461  1.00  0.00     0.070 A 
HETATM    9  C   UNL     1      -4.973  -0.662 -31.701  1.00  0.00     0.037 A 
HETATM   10  C   UNL     1      -3.770  -0.199 -31.171  1.00  0.00     0.003 A 
HETATM   11  C   UNL     1      -3.366   1.114 -31.400  1.00  0.00     0.009 A 
BRANCH   8  12
HETATM   12  O   UNL     1      -6.977  -0.148 -33.029  1.00  0.00    -0.342 OA
BRANCH  12  13
HETATM   13  C   UNL     1      -7.980   0.867 -33.039  1.00  0.00     0.278 C 
BRANCH  13  14
HETATM   14  C   UNL     1      -9.214   0.436 -32.251  1.00  0.00     0.239 C 
HETATM   15  N   UNL     1      -9.356   0.998 -31.015  1.00  0.00    -0.368 N 
HETATM   16  H   UNL     1      -8.577   1.490 -30.592  1.00  0.00     0.159 HD
HETATM   17  H   UNL     1     -10.129   0.695 -30.438  1.00  0.00     0.159 HD
HETATM   18  O   UNL     1     -10.067  -0.324 -32.700  1.00  0.00    -0.271 OA
ENDBRANCH  13  14
ENDBRANCH  12  13
ENDBRANCH   8  12
ENDBRANCH   5   6
ENDBRANCH   2   5
BRANCH   1  19
HETATM   19  C   UNL     1      -0.901   5.319 -30.761  1.00  0.00     0.075 A 
HETATM   20  C   UNL     1       0.268   4.770 -30.192  1.00  0.00     0.158 A 
HETATM   21  N   UNL     1       0.729   5.475 -29.164  1.00  0.00    -0.183 NA
HETATM   22  N   UNL     1      -0.175   6.467 -29.021  1.00  0.00    -0.268 N 
HETATM   23  C   UNL     1      -1.153   6.451 -30.000  1.00  0.00     0.052 A 
BRANCH  22  24
HETATM   24  C   UNL     1      -0.136   7.309 -27.823  1.00  0.00     0.106 C 
HETATM   25  C   UNL     1      -0.355   6.439 -26.580  1.00  0.00     0.034 C 
BRANCH  24  26
HETATM   26  C   UNL     1       1.157   8.136 -27.653  1.00  0.00     0.022 C 
HETATM   27  C   UNL     1       1.837   7.918 -26.310  1.00  0.00     0.007 C 
ENDBRANCH  24  26
ENDBRANCH  22  24
BRANCH  23  28
HETATM   28  C   UNL     1      -2.303   7.456 -30.089  1.00  0.00     0.038 A 
HETATM   29  C   UNL     1      -2.028   8.872 -30.539  1.00  0.00     0.011 A 
HETATM   30  C   UNL     1      -2.791   7.952 -31.430  1.00  0.00     0.011 A 
ENDBRANCH  23  28
ENDBRANCH   1  19
TORSDOF 9
ENDMDL
MODEL 6
REMARK VINA RESULT:      -7.3      5.245      8.674
REMARK  9 active torsions:
REMARK  status: ('A' for Active; 'I' for Inactive)
REMARK    1  A    between atoms: C_2  and  C_3 
REMARK    2  A    between atoms: C_3  and  N_4 
REMARK    3  A    between atoms: C_7  and  C_8 
REMARK       I    between atoms: C_8  and  N_9 
REMARK    4  A    between atoms: N_9  and  C_10 
REMARK    5  A    between atoms: C_10  and  C_11 
REMARK    6  A    between atoms: C_13  and  O_14 
REMARK    7  A    between atoms: O_14  and  C_15 
REMARK    8  A    between atoms: C_15  and  C_16 
REMARK       I    between atoms: C_16  and  N_17 
REMARK    9  A    between atoms: C_23  and  C_24 
ROOT
HETATM    1  C   UNL     1      -7.917   1.410 -33.180  1.00  0.00     0.255 C 
HETATM    2  N   UNL     1      -8.029   2.532 -33.975  1.00  0.00    -0.353 N 
HETATM    3  O   UNL     1      -8.377   1.344 -32.044  1.00  0.00    -0.268 OA
HETATM    4  H   UNL     1      -7.826   2.440 -34.961  1.00  0.00     0.163 HD
ENDROOT
BRANCH   2   5
HETATM    5  C   UNL     1      -8.896   3.599 -33.528  1.00  0.00     0.161 C 
BRANCH   5   6
HETATM    6  C   UNL     1     -10.243   3.685 -34.198  1.00  0.00    -0.038 A 
HETATM    7  C   UNL     1     -11.017   2.565 -34.534  1.00  0.00     0.045 A 
HETATM    8  C   UNL     1     -12.211   2.699 -35.257  1.00  0.00     0.070 A 
HETATM    9  C   UNL     1     -12.632   3.968 -35.659  1.00  0.00     0.037 A 
HETATM   10  C   UNL     1     -11.870   5.091 -35.339  1.00  0.00     0.003 A 
HETATM   11  C   UNL     1     -10.687   4.949 -34.617  1.00  0.00     0.009 A 
BRANCH   8  12
HETATM   12  O   UNL     1     -12.869   1.525 -35.514  1.00  0.00    -0.342 OA
BRANCH  12  13
HETATM   13  C   UNL     1     -13.189   0.717 -34.382  1.00  0.00     0.278 C 
BRANCH  13  14
HETATM   14  C   UNL     1     -14.623   0.955 -33.917  1.00  0.00     0.239 C 
HETATM   15  N   UNL     1     -15.601   0.458 -34.729  1.00  0.00    -0.368 N 
HETATM   16  H   UNL     1     -15.371   0.152 -35.667  1.00  0.00     0.159 HD
HETATM   17  H   UNL     1     -16.564   0.645 -34.486  1.00  0.00     0.159 HD
HETATM   18  O   UNL     1     -14.902   1.509 -32.858  1.00  0.00    -0.271 OA
ENDBRANCH  13  14
ENDBRANCH  12  13
ENDBRANCH   8  12
ENDBRANCH   5   6
ENDBRANCH   2   5
BRANCH   1  19
HETATM   19  C   UNL     1      -7.303   0.262 -33.806  1.00  0.00     0.075 A 
HETATM   20  C   UNL     1      -7.611  -0.202 -35.103  1.00  0.00     0.158 A 
HETATM   21  N   UNL     1      -7.029  -1.362 -35.394  1.00  0.00    -0.183 NA
HETATM   22  N   UNL     1      -6.378  -1.690 -34.258  1.00  0.00    -0.268 N 
HETATM   23  C   UNL     1      -6.465  -0.712 -33.284  1.00  0.00     0.052 A 
BRANCH  22  24
HETATM   24  C   UNL     1      -5.820  -3.036 -34.113  1.00  0.00     0.106 C 
HETATM   25  C   UNL     1      -6.644  -4.024 -34.949  1.00  0.00     0.034 C 
BRANCH  24  26
HETATM   26  C   UNL     1      -4.327  -3.165 -34.486  1.00  0.00     0.022 C 
HETATM   27  C   UNL     1      -3.661  -4.393 -33.884  1.00  0.00     0.007 C 
ENDBRANCH  24  26
ENDBRANCH  22  24
BRANCH  23  28
HETATM   28  C   UNL     1      -5.822  -0.812 -31.899  1.00  0.00     0.038 A 
HETATM   29  C   UNL     1      -4.320  -0.717 -31.761  1.00  0.00     0.011 A 
HETATM   30  C   UNL     1      -5.176   0.396 -31.260  1.00  0.00     0.011 A 
ENDBRANCH  23  28
ENDBRANCH   1  19
TORSDOF 9
ENDMDL
MODEL 7
REMARK VINA RESULT:      -7.2      2.629      8.720
REMARK  9 active torsions:
REMARK  status: ('A' for Active; 'I' for Inactive)
REMARK    1  A    between atoms: C_2  and  C_3 
REMARK    2  A    between atoms: C_3  and  N_4 
REMARK    3  A    between atoms: C_7  and  C_8 
REMARK       I    between atoms: C_8  and  N_9 
REMARK    4  A    between atoms: N_9  and  C_10 
REMARK    5  A    between atoms: C_10  and  C_11 
REMARK    6  A    between atoms: C_13  and  O_14 
REMARK    7  A    between atoms: O_14  and  C_15 
REMARK    8  A    between atoms: C_15  and  C_16 
REMARK       I    between atoms: C_16  and  N_17 
REMARK    9  A    between atoms: C_23  and  C_24 
ROOT
HETATM    1  C   UNL     1      -4.522   3.188 -31.620  1.00  0.00     0.255 C 
HETATM    2  N   UNL     1      -5.754   3.167 -32.242  1.00  0.00    -0.353 N 
HETATM    3  O   UNL     1      -4.215   2.417 -30.714  1.00  0.00    -0.268 OA
HETATM    4  H   UNL     1      -5.857   3.671 -33.112  1.00  0.00     0.163 HD
ENDROOT
BRANCH   2   5
HETATM    5  C   UNL     1      -6.644   2.065 -31.953  1.00  0.00     0.161 C 
BRANCH   5   6
HETATM    6  C   UNL     1      -6.691   0.962 -32.980  1.00  0.00    -0.038 A 
HETATM    7  C   UNL     1      -5.962  -0.230 -32.873  1.00  0.00     0.045 A 
HETATM    8  C   UNL     1      -5.957  -1.172 -33.912  1.00  0.00     0.070 A 
HETATM    9  C   UNL     1      -6.681  -0.914 -35.076  1.00  0.00     0.037 A 
HETATM   10  C   UNL     1      -7.405   0.270 -35.201  1.00  0.00     0.003 A 
HETATM   11  C   UNL     1      -7.408   1.200 -34.164  1.00  0.00     0.009 A 
BRANCH   8  12
HETATM   12  O   UNL     1      -5.206  -2.294 -33.674  1.00  0.00    -0.342 OA
BRANCH  12  13
HETATM   13  C   UNL     1      -4.839  -3.066 -34.817  1.00  0.00     0.278 C 
BRANCH  13  14
HETATM   14  C   UNL     1      -5.297  -4.515 -34.678  1.00  0.00     0.239 C 
HETATM   15  N   UNL     1      -4.394  -5.373 -34.120  1.00  0.00    -0.368 N 
HETATM   16  H   UNL     1      -3.426  -5.090 -34.018  1.00  0.00     0.159 HD
HETATM   17  H   UNL     1      -4.637  -6.352 -34.064  1.00  0.00     0.159 HD
HETATM   18  O   UNL     1      -6.421  -4.898 -34.990  1.00  0.00    -0.271 OA
ENDBRANCH  13  14
ENDBRANCH  12  13
ENDBRANCH   8  12
ENDBRANCH   5   6
ENDBRANCH   2   5
BRANCH   1  19
HETATM   19  C   UNL     1      -3.563   4.117 -32.169  1.00  0.00     0.075 A 
HETATM   20  C   UNL     1      -2.747   3.855 -33.290  1.00  0.00     0.158 A 
HETATM   21  N   UNL     1      -1.838   4.801 -33.506  1.00  0.00    -0.183 NA
HETATM   22  N   UNL     1      -2.022   5.664 -32.486  1.00  0.00    -0.268 N 
HETATM   23  C   UNL     1      -3.093   5.326 -31.678  1.00  0.00     0.052 A 
BRANCH  22  24
HETATM   24  C   UNL     1      -1.031   6.717 -32.247  1.00  0.00     0.106 C 
HETATM   25  C   UNL     1      -1.688   8.089 -32.437  1.00  0.00     0.034 C 
BRANCH  24  26
HETATM   26  C   UNL     1      -0.344   6.660 -30.866  1.00  0.00     0.022 C 
HETATM   27  C   UNL     1       0.654   5.518 -30.738  1.00  0.00     0.007 C 
ENDBRANCH  24  26
ENDBRANCH  22  24
BRANCH  23  28
HETATM   28  C   UNL     1      -3.537   6.125 -30.451  1.00  0.00     0.038 A 
HETATM   29  C   UNL     1      -4.587   7.202 -30.596  1.00  0.00     0.011 A 
HETATM   30  C   UNL     1      -4.920   5.943 -29.871  1.00  0.00     0.011 A 
ENDBRANCH  23  28
ENDBRANCH   1  19
TORSDOF 9
ENDMDL
MODEL 8
REMARK VINA RESULT:      -7.1      2.131      3.427
REMARK  9 active torsions:
REMARK  status: ('A' for Active; 'I' for Inactive)
REMARK    1  A    between atoms: C_2  and  C_3 
REMARK    2  A    between atoms: C_3  and  N_4 
REMARK    3  A    between atoms: C_7  and  C_8 
REMARK       I    between atoms: C_8  and  N_9 
REMARK    4  A    between atoms: N_9  and  C_10 
REMARK    5  A    between atoms: C_10  and  C_11 
REMARK    6  A    between atoms: C_13  and  O_14 
REMARK    7  A    between atoms: O_14  and  C_15 
REMARK    8  A    between atoms: C_15  and  C_16 
REMARK       I    between atoms: C_16  and  N_17 
REMARK    9  A    between atoms: C_23  and  C_24 
ROOT
HETATM    1  C   UNL     1      -5.015   1.892 -32.543  1.00  0.00     0.255 C 
HETATM    2  N   UNL     1      -4.242   2.981 -32.891  1.00  0.00    -0.353 N 
HETATM    3  O   UNL     1      -4.643   1.031 -31.751  1.00  0.00    -0.268 OA
HETATM    4  H   UNL     1      -4.691   3.751 -33.367  1.00  0.00     0.163 HD
ENDROOT
BRANCH   2   5
HETATM    5  C   UNL     1      -3.031   3.223 -32.141  1.00  0.00     0.161 C 
BRANCH   5   6
HETATM    6  C   UNL     1      -2.197   4.398 -32.585  1.00  0.00    -0.038 A 
HETATM    7  C   UNL     1      -1.414   5.168 -31.713  1.00  0.00     0.045 A 
HETATM    8  C   UNL     1      -0.748   6.318 -32.162  1.00  0.00     0.070 A 
HETATM    9  C   UNL     1      -0.874   6.708 -33.496  1.00  0.00     0.037 A 
HETATM   10  C   UNL     1      -1.655   5.957 -34.373  1.00  0.00     0.003 A 
HETATM   11  C   UNL     1      -2.311   4.814 -33.921  1.00  0.00     0.009 A 
BRANCH   8  12
HETATM   12  O   UNL     1      -0.016   6.974 -31.207  1.00  0.00    -0.342 OA
BRANCH  12  13
HETATM   13  C   UNL     1       0.643   6.156 -30.241  1.00  0.00     0.278 C 
BRANCH  13  14
HETATM   14  C   UNL     1       0.440   6.694 -28.827  1.00  0.00     0.239 C 
HETATM   15  N   UNL     1      -0.181   5.849 -27.953  1.00  0.00    -0.368 N 
HETATM   16  H   UNL     1      -0.653   5.022 -28.301  1.00  0.00     0.159 HD
HETATM   17  H   UNL     1      -0.386   6.188 -27.024  1.00  0.00     0.159 HD
HETATM   18  O   UNL     1       0.848   7.792 -28.461  1.00  0.00    -0.271 OA
ENDBRANCH  13  14
ENDBRANCH  12  13
ENDBRANCH   8  12
ENDBRANCH   5   6
ENDBRANCH   2   5
BRANCH   1  19
HETATM   19  C   UNL     1      -6.349   1.872 -33.097  1.00  0.00     0.075 A 
HETATM   20  C   UNL     1      -7.183   3.005 -33.215  1.00  0.00     0.158 A 
HETATM   21  N   UNL     1      -8.417   2.705 -33.610  1.00  0.00    -0.183 NA
HETATM   22  N   UNL     1      -8.409   1.359 -33.700  1.00  0.00    -0.268 N 
HETATM   23  C   UNL     1      -7.164   0.808 -33.454  1.00  0.00     0.052 A 
BRANCH  22  24
HETATM   24  C   UNL     1      -9.675   0.642 -33.871  1.00  0.00     0.106 C 
HETATM   25  C   UNL     1     -10.037  -0.074 -32.564  1.00  0.00     0.034 C 
BRANCH  24  26
HETATM   26  C   UNL     1     -10.862   1.518 -34.326  1.00  0.00     0.022 C 
HETATM   27  C   UNL     1     -12.211   0.993 -33.856  1.00  0.00     0.007 C 
ENDBRANCH  24  26
ENDBRANCH  22  24
BRANCH  23  28
HETATM   28  C   UNL     1      -6.859  -0.691 -33.490  1.00  0.00     0.038 A 
HETATM   29  C   UNL     1      -6.962  -1.446 -34.794  1.00  0.00     0.011 A 
HETATM   30  C   UNL     1      -5.622  -1.210 -34.186  1.00  0.00     0.011 A 
ENDBRANCH  23  28
ENDBRANCH   1  19
TORSDOF 9
ENDMDL
MODEL 9
REMARK VINA RESULT:      -7.1      2.645      9.555
REMARK  9 active torsions:
REMARK  status: ('A' for Active; 'I' for Inactive)
REMARK    1  A    between atoms: C_2  and  C_3 
REMARK    2  A    between atoms: C_3  and  N_4 
REMARK    3  A    between atoms: C_7  and  C_8 
REMARK       I    between atoms: C_8  and  N_9 
REMARK    4  A    between atoms: N_9  and  C_10 
REMARK    5  A    between atoms: C_10  and  C_11 
REMARK    6  A    between atoms: C_13  and  O_14 
REMARK    7  A    between atoms: O_14  and  C_15 
REMARK    8  A    between atoms: C_15  and  C_16 
REMARK       I    between atoms: C_16  and  N_17 
REMARK    9  A    between atoms: C_23  and  C_24 
ROOT
HETATM    1  C   UNL     1      -1.660   4.657 -31.774  1.00  0.00     0.255 C 
HETATM    2  N   UNL     1      -2.600   3.803 -31.234  1.00  0.00    -0.353 N 
HETATM    3  O   UNL     1      -1.528   4.831 -32.983  1.00  0.00    -0.268 OA
HETATM    4  H   UNL     1      -2.798   3.876 -30.246  1.00  0.00     0.163 HD
ENDROOT
BRANCH   2   5
HETATM    5  C   UNL     1      -3.601   3.247 -32.117  1.00  0.00     0.161 C 
BRANCH   5   6
HETATM    6  C   UNL     1      -4.470   2.161 -31.536  1.00  0.00    -0.038 A 
HETATM    7  C   UNL     1      -4.677   0.919 -32.153  1.00  0.00     0.045 A 
HETATM    8  C   UNL     1      -5.584  -0.010 -31.623  1.00  0.00     0.070 A 
HETATM    9  C   UNL     1      -6.300   0.309 -30.469  1.00  0.00     0.037 A 
HETATM   10  C   UNL     1      -6.111   1.543 -29.848  1.00  0.00     0.003 A 
HETATM   11  C   UNL     1      -5.206   2.460 -30.378  1.00  0.00     0.009 A 
BRANCH   8  12
HETATM   12  O   UNL     1      -5.686  -1.184 -32.323  1.00  0.00    -0.342 OA
BRANCH  12  13
HETATM   13  C   UNL     1      -5.766  -1.071 -33.743  1.00  0.00     0.278 C 
BRANCH  13  14
HETATM   14  C   UNL     1      -5.450  -2.400 -34.425  1.00  0.00     0.239 C 
HETATM   15  N   UNL     1      -6.528  -3.128 -34.837  1.00  0.00    -0.368 N 
HETATM   16  H   UNL     1      -7.455  -2.886 -34.508  1.00  0.00     0.159 HD
HETATM   17  H   UNL     1      -6.362  -4.040 -35.241  1.00  0.00     0.159 HD
HETATM   18  O   UNL     1      -4.306  -2.784 -34.649  1.00  0.00    -0.271 OA
ENDBRANCH  13  14
ENDBRANCH  12  13
ENDBRANCH   8  12
ENDBRANCH   5   6
ENDBRANCH   2   5
BRANCH   1  19
HETATM   19  C   UNL     1      -0.891   5.421 -30.820  1.00  0.00     0.075 A 
HETATM   20  C   UNL     1       0.261   4.946 -30.157  1.00  0.00     0.158 A 
HETATM   21  N   UNL     1       0.698   5.774 -29.214  1.00  0.00    -0.183 NA
HETATM   22  N   UNL     1      -0.205   6.776 -29.219  1.00  0.00    -0.268 N 
HETATM   23  C   UNL     1      -1.158   6.639 -30.213  1.00  0.00     0.052 A 
BRANCH  22  24
HETATM   24  C   UNL     1      -0.193   7.762 -28.136  1.00  0.00     0.106 C 
HETATM   25  C   UNL     1      -0.686   7.104 -26.841  1.00  0.00     0.034 C 
BRANCH  24  26
HETATM   26  C   UNL     1       1.174   8.434 -27.884  1.00  0.00     0.022 C 
HETATM   27  C   UNL     1       1.772   8.091 -26.528  1.00  0.00     0.007 C 
ENDBRANCH  24  26
ENDBRANCH  22  24
BRANCH  23  28
HETATM   28  C   UNL     1      -2.302   7.626 -30.456  1.00  0.00     0.038 A 
HETATM   29  C   UNL     1      -2.019   8.954 -31.118  1.00  0.00     0.011 A 
HETATM   30  C   UNL     1      -2.788   7.912 -31.857  1.00  0.00     0.011 A 
ENDBRANCH  23  28
ENDBRANCH   1  19
TORSDOF 9
ENDMDL
MODEL 10
REMARK VINA RESULT:      -6.9      2.180      2.673
REMARK  9 active torsions:
REMARK  status: ('A' for Active; 'I' for Inactive)
REMARK    1  A    between atoms: C_2  and  C_3 
REMARK    2  A    between atoms: C_3  and  N_4 
REMARK    3  A    between atoms: C_7  and  C_8 
REMARK       I    between atoms: C_8  and  N_9 
REMARK    4  A    between atoms: N_9  and  C_10 
REMARK    5  A    between atoms: C_10  and  C_11 
REMARK    6  A    between atoms: C_13  and  O_14 
REMARK    7  A    between atoms: O_14  and  C_15 
REMARK    8  A    between atoms: C_15  and  C_16 
REMARK       I    between atoms: C_16  and  N_17 
REMARK    9  A    between atoms: C_23  and  C_24 
ROOT
HETATM    1  C   UNL     1      -4.246   2.881 -31.594  1.00  0.00     0.255 C 
HETATM    2  N   UNL     1      -3.315   3.533 -32.378  1.00  0.00    -0.353 N 
HETATM    3  O   UNL     1      -4.867   3.434 -30.691  1.00  0.00    -0.268 OA
HETATM    4  H   UNL     1      -3.012   3.083 -33.230  1.00  0.00     0.163 HD
ENDROOT
BRANCH   2   5
HETATM    5  C   UNL     1      -3.216   4.970 -32.262  1.00  0.00     0.161 C 
BRANCH   5   6
HETATM    6  C   UNL     1      -2.051   5.494 -31.461  1.00  0.00    -0.038 A 
HETATM    7  C   UNL     1      -2.182   6.411 -30.408  1.00  0.00     0.045 A 
HETATM    8  C   UNL     1      -1.054   6.949 -29.772  1.00  0.00     0.070 A 
HETATM    9  C   UNL     1       0.220   6.573 -30.198  1.00  0.00     0.037 A 
HETATM   10  C   UNL     1       0.367   5.667 -31.247  1.00  0.00     0.003 A 
HETATM   11  C   UNL     1      -0.758   5.135 -31.873  1.00  0.00     0.009 A 
BRANCH   8  12
HETATM   12  O   UNL     1      -1.326   7.830 -28.758  1.00  0.00    -0.342 OA
BRANCH  12  13
HETATM   13  C   UNL     1      -2.201   7.365 -27.731  1.00  0.00     0.278 C 
BRANCH  13  14
HETATM   14  C   UNL     1      -1.431   7.031 -26.455  1.00  0.00     0.239 C 
HETATM   15  N   UNL     1      -0.864   5.790 -26.411  1.00  0.00    -0.368 N 
HETATM   16  H   UNL     1      -1.133   5.088 -27.091  1.00  0.00     0.159 HD
HETATM   17  H   UNL     1      -0.395   5.509 -25.561  1.00  0.00     0.159 HD
HETATM   18  O   UNL     1      -1.272   7.830 -25.538  1.00  0.00    -0.271 OA
ENDBRANCH  13  14
ENDBRANCH  12  13
ENDBRANCH   8  12
ENDBRANCH   5   6
ENDBRANCH   2   5
BRANCH   1  19
HETATM   19  C   UNL     1      -4.525   1.514 -31.966  1.00  0.00     0.075 A 
HETATM   20  C   UNL     1      -3.887   0.387 -31.405  1.00  0.00     0.158 A 
HETATM   21  N   UNL     1      -4.201  -0.750 -32.020  1.00  0.00    -0.183 NA
HETATM   22  N   UNL     1      -5.009  -0.359 -33.027  1.00  0.00    -0.268 N 
HETATM   23  C   UNL     1      -5.283   0.997 -33.006  1.00  0.00     0.052 A 
BRANCH  22  24
HETATM   24  C   UNL     1      -5.359  -1.316 -34.080  1.00  0.00     0.106 C 
HETATM   25  C   UNL     1      -4.339  -2.461 -34.090  1.00  0.00     0.034 C 
BRANCH  24  26
HETATM   26  C   UNL     1      -6.786  -1.897 -33.981  1.00  0.00     0.022 C 
HETATM   27  C   UNL     1      -6.918  -3.276 -34.611  1.00  0.00     0.007 C 
ENDBRANCH  24  26
ENDBRANCH  22  24
BRANCH  23  28
HETATM   28  C   UNL     1      -6.170   1.716 -34.024  1.00  0.00     0.038 A 
HETATM   29  C   UNL     1      -7.672   1.692 -33.858  1.00  0.00     0.011 A 
HETATM   30  C   UNL     1      -6.928   2.965 -33.640  1.00  0.00     0.011 A 
ENDBRANCH  23  28
ENDBRANCH   1  19
TORSDOF 9
ENDMDL
