MODEL 1
REMARK VINA RESULT:      -8.7      0.000      0.000
REMARK  9 active torsions:
REMARK  status: ('A' for Active; 'I' for Inactive)
REMARK    1  A    between atoms: C_2  and  O_3 
REMARK    2  A    between atoms: O_3  and  C_4 
REMARK    3  A    between atoms: C_7  and  C_8 
REMARK    4  A    between atoms: C_9  and  C_10 
REMARK       I    between atoms: C_10  and  N_11 
REMARK    5  A    between atoms: N_11  and  C_12 
REMARK    6  A    between atoms: C_22  and  S_23 
REMARK    7  A    between atoms: S_23  and  C_24 
REMARK    8  A    between atoms: C_24  and  C_25 
REMARK       I    between atoms: C_25  and  N_26 
REMARK    9  A    between atoms: N_26  and  C_27 
ROOT
HETATM    1  C   UNL     1      -5.741   2.920 -32.243  1.00  0.00     0.104 C 
HETATM    2  C   UNL     1      -5.662   1.576 -31.513  1.00  0.00     0.046 C 
HETATM    3  C   UNL     1      -6.149   1.454 -30.258  1.00  0.00     0.019 C 
HETATM    4  C   UNL     1      -5.953   0.262 -29.352  1.00  0.00     0.069 C 
HETATM    5  N   UNL     1      -6.892   2.489 -29.714  1.00  0.00    -0.353 N 
HETATM    6  C   UNL     1      -7.347   3.594 -30.420  1.00  0.00     0.087 C 
HETATM    7  C   UNL     1      -6.769   3.868 -31.622  1.00  0.00     0.055 C 
HETATM    8  C   UNL     1      -7.124   5.127 -32.397  1.00  0.00     0.019 C 
HETATM    9  N   UNL     1      -7.418   6.170 -33.041  1.00  0.00    -0.096 N 
HETATM   10  H   UNL     1      -7.309   2.290 -28.805  1.00  0.00     0.166 HD
ENDROOT
BRANCH   1  11
HETATM   11  C   UNL     1      -4.380   3.609 -32.362  1.00  0.00    -0.044 A 
HETATM   12  C   UNL     1      -3.979   4.160 -33.589  1.00  0.00     0.011 A 
HETATM   13  C   UNL     1      -2.743   4.804 -33.720  1.00  0.00     0.037 A 
HETATM   14  C   UNL     1      -1.885   4.904 -32.626  1.00  0.00     0.068 A 
HETATM   15  C   UNL     1      -2.278   4.364 -31.401  1.00  0.00     0.037 A 
HETATM   16  C   UNL     1      -3.516   3.732 -31.263  1.00  0.00     0.011 A 
BRANCH  14  17
HETATM   17  O   UNL     1      -0.650   5.492 -32.622  1.00  0.00    -0.352 OA
BRANCH  17  18
HETATM   18  C   UNL     1       0.092   5.428 -31.405  1.00  0.00     0.171 C 
HETATM   19  C   UNL     1       0.645   6.813 -31.123  1.00  0.00     0.034 C 
ENDBRANCH  17  18
ENDBRANCH  14  17
ENDBRANCH   1  11
BRANCH   6  20
HETATM   20  S   UNL     1      -8.680   4.620 -29.884  1.00  0.00    -0.102 SA
BRANCH  20  21
HETATM   21  C   UNL     1      -7.990   5.800 -28.714  1.00  0.00     0.184 C 
BRANCH  21  22
HETATM   22  C   UNL     1      -6.994   6.759 -29.333  1.00  0.00     0.231 C 
HETATM   23  N   UNL     1      -5.703   6.279 -29.434  1.00  0.00    -0.326 N 
HETATM   24  H   UNL     1      -5.596   5.274 -29.377  1.00  0.00     0.169 HD
HETATM   25  O   UNL     1      -7.388   7.854 -29.737  1.00  0.00    -0.272 OA
BRANCH  23  26
HETATM   26  C   UNL     1      -4.561   7.033 -29.800  1.00  0.00     0.040 A 
HETATM   27  C   UNL     1      -3.658   7.460 -28.804  1.00  0.00    -0.035 A 
HETATM   28  C   UNL     1      -3.809   7.074 -27.358  1.00  0.00     0.050 C 
HETATM   29  C   UNL     1      -2.562   8.264 -29.169  1.00  0.00     0.009 A 
HETATM   30  C   UNL     1      -2.355   8.639 -30.495  1.00  0.00     0.001 A 
HETATM   31  C   UNL     1      -3.241   8.212 -31.476  1.00  0.00     0.002 A 
HETATM   32  C   UNL     1      -4.335   7.414 -31.130  1.00  0.00     0.030 A 
ENDBRANCH  23  26
ENDBRANCH  21  22
ENDBRANCH  20  21
ENDBRANCH   6  20
BRANCH   2  33
HETATM   33  C   UNL     1      -5.064   0.441 -32.286  1.00  0.00     0.255 C 
HETATM   34  N   UNL     1      -6.018  -0.359 -32.886  1.00  0.00    -0.323 N 
HETATM   35  H   UNL     1      -6.987  -0.099 -32.752  1.00  0.00     0.169 HD
HETATM   36  O   UNL     1      -3.852   0.343 -32.402  1.00  0.00    -0.268 OA
BRANCH  34  37
HETATM   37  C   UNL     1      -5.814  -1.547 -33.618  1.00  0.00     0.035 A 
HETATM   38  C   UNL     1      -4.565  -2.129 -33.835  1.00  0.00     0.029 A 
HETATM   39  C   UNL     1      -4.456  -3.320 -34.559  1.00  0.00     0.002 A 
HETATM   40  C   UNL     1      -5.595  -3.946 -35.062  1.00  0.00     0.000 A 
HETATM   41  C   UNL     1      -6.846  -3.376 -34.849  1.00  0.00     0.002 A 
HETATM   42  C   UNL     1      -6.955  -2.179 -34.136  1.00  0.00     0.029 A 
ENDBRANCH  34  37
ENDBRANCH   2  33
TORSDOF 9
ENDMDL
MODEL 2
REMARK VINA RESULT:      -8.7      2.045      8.355
REMARK  9 active torsions:
REMARK  status: ('A' for Active; 'I' for Inactive)
REMARK    1  A    between atoms: C_2  and  O_3 
REMARK    2  A    between atoms: O_3  and  C_4 
REMARK    3  A    between atoms: C_7  and  C_8 
REMARK    4  A    between atoms: C_9  and  C_10 
REMARK       I    between atoms: C_10  and  N_11 
REMARK    5  A    between atoms: N_11  and  C_12 
REMARK    6  A    between atoms: C_22  and  S_23 
REMARK    7  A    between atoms: S_23  and  C_24 
REMARK    8  A    between atoms: C_24  and  C_25 
REMARK       I    between atoms: C_25  and  N_26 
REMARK    9  A    between atoms: N_26  and  C_27 
ROOT
HETATM    1  C   UNL     1      -5.700   4.368 -32.736  1.00  0.00     0.104 C 
HETATM    2  C   UNL     1      -4.472   3.477 -32.529  1.00  0.00     0.046 C 
HETATM    3  C   UNL     1      -4.613   2.136 -32.422  1.00  0.00     0.019 C 
HETATM    4  C   UNL     1      -3.530   1.169 -32.012  1.00  0.00     0.069 C 
HETATM    5  N   UNL     1      -5.843   1.560 -32.697  1.00  0.00    -0.353 N 
HETATM    6  C   UNL     1      -6.923   2.225 -33.259  1.00  0.00     0.087 C 
HETATM    7  C   UNL     1      -6.915   3.587 -33.242  1.00  0.00     0.055 C 
HETATM    8  C   UNL     1      -8.114   4.387 -33.726  1.00  0.00     0.019 C 
HETATM    9  N   UNL     1      -9.107   5.051 -34.127  1.00  0.00    -0.096 N 
HETATM   10  H   UNL     1      -5.853   0.540 -32.691  1.00  0.00     0.166 HD
ENDROOT
BRANCH   1  11
HETATM   11  C   UNL     1      -6.062   5.175 -31.489  1.00  0.00    -0.044 A 
HETATM   12  C   UNL     1      -6.515   4.516 -30.335  1.00  0.00     0.011 A 
HETATM   13  C   UNL     1      -6.844   5.233 -29.179  1.00  0.00     0.037 A 
HETATM   14  C   UNL     1      -6.728   6.621 -29.157  1.00  0.00     0.068 A 
HETATM   15  C   UNL     1      -6.274   7.284 -30.298  1.00  0.00     0.037 A 
HETATM   16  C   UNL     1      -5.933   6.572 -31.450  1.00  0.00     0.011 A 
BRANCH  14  17
HETATM   17  O   UNL     1      -7.029   7.439 -28.103  1.00  0.00    -0.352 OA
BRANCH  17  18
HETATM   18  C   UNL     1      -5.996   8.313 -27.648  1.00  0.00     0.171 C 
HETATM   19  C   UNL     1      -4.899   7.460 -27.036  1.00  0.00     0.034 C 
ENDBRANCH  17  18
ENDBRANCH  14  17
ENDBRANCH   1  11
BRANCH   6  20
HETATM   20  S   UNL     1      -8.268   1.411 -34.061  1.00  0.00    -0.102 SA
BRANCH  20  21
HETATM   21  C   UNL     1      -7.562   0.069 -35.030  1.00  0.00     0.184 C 
BRANCH  21  22
HETATM   22  C   UNL     1      -6.812  -0.953 -34.199  1.00  0.00     0.231 C 
HETATM   23  N   UNL     1      -5.816  -1.636 -34.868  1.00  0.00    -0.326 N 
HETATM   24  H   UNL     1      -5.477  -1.207 -35.721  1.00  0.00     0.169 HD
HETATM   25  O   UNL     1      -7.095  -1.078 -33.007  1.00  0.00    -0.272 OA
BRANCH  23  26
HETATM   26  C   UNL     1      -5.102  -2.757 -34.378  1.00  0.00     0.040 A 
HETATM   27  C   UNL     1      -5.505  -4.057 -34.748  1.00  0.00    -0.035 A 
HETATM   28  C   UNL     1      -6.623  -4.309 -35.722  1.00  0.00     0.050 C 
HETATM   29  C   UNL     1      -4.831  -5.167 -34.204  1.00  0.00     0.009 A 
HETATM   30  C   UNL     1      -3.774  -4.998 -33.312  1.00  0.00     0.001 A 
HETATM   31  C   UNL     1      -3.374  -3.718 -32.954  1.00  0.00     0.002 A 
HETATM   32  C   UNL     1      -4.033  -2.606 -33.484  1.00  0.00     0.030 A 
ENDBRANCH  23  26
ENDBRANCH  21  22
ENDBRANCH  20  21
ENDBRANCH   6  20
BRANCH   2  33
HETATM   33  C   UNL     1      -3.148   4.177 -32.499  1.00  0.00     0.255 C 
HETATM   34  N   UNL     1      -2.832   4.670 -31.246  1.00  0.00    -0.323 N 
HETATM   35  H   UNL     1      -3.500   4.504 -30.505  1.00  0.00     0.169 HD
HETATM   36  O   UNL     1      -2.437   4.198 -33.492  1.00  0.00    -0.268 OA
BRANCH  34  37
HETATM   37  C   UNL     1      -1.709   5.441 -30.878  1.00  0.00     0.035 A 
HETATM   38  C   UNL     1      -0.393   5.106 -31.193  1.00  0.00     0.029 A 
HETATM   39  C   UNL     1       0.661   5.939 -30.804  1.00  0.00     0.002 A 
HETATM   40  C   UNL     1       0.406   7.119 -30.107  1.00  0.00     0.000 A 
HETATM   41  C   UNL     1      -0.905   7.464 -29.791  1.00  0.00     0.002 A 
HETATM   42  C   UNL     1      -1.956   6.625 -30.169  1.00  0.00     0.029 A 
ENDBRANCH  34  37
ENDBRANCH   2  33
TORSDOF 9
ENDMDL
MODEL 3
REMARK VINA RESULT:      -8.6      4.143      8.440
REMARK  9 active torsions:
REMARK  status: ('A' for Active; 'I' for Inactive)
REMARK    1  A    between atoms: C_2  and  O_3 
REMARK    2  A    between atoms: O_3  and  C_4 
REMARK    3  A    between atoms: C_7  and  C_8 
REMARK    4  A    between atoms: C_9  and  C_10 
REMARK       I    between atoms: C_10  and  N_11 
REMARK    5  A    between atoms: N_11  and  C_12 
REMARK    6  A    between atoms: C_22  and  S_23 
REMARK    7  A    between atoms: S_23  and  C_24 
REMARK    8  A    between atoms: C_24  and  C_25 
REMARK       I    between atoms: C_25  and  N_26 
REMARK    9  A    between atoms: N_26  and  C_27 
ROOT
HETATM    1  C   UNL     1      -8.271   2.635 -32.231  1.00  0.00     0.104 C 
HETATM    2  C   UNL     1      -8.579   1.487 -33.196  1.00  0.00     0.046 C 
HETATM    3  C   UNL     1      -7.628   1.039 -34.047  1.00  0.00     0.019 C 
HETATM    4  C   UNL     1      -7.851   0.070 -35.182  1.00  0.00     0.069 C 
HETATM    5  N   UNL     1      -6.325   1.488 -33.905  1.00  0.00    -0.353 N 
HETATM    6  C   UNL     1      -5.855   2.233 -32.833  1.00  0.00     0.087 C 
HETATM    7  C   UNL     1      -6.769   2.854 -32.036  1.00  0.00     0.055 C 
HETATM    8  C   UNL     1      -6.333   3.787 -30.919  1.00  0.00     0.019 C 
HETATM    9  N   UNL     1      -5.972   4.562 -29.991  1.00  0.00    -0.096 N 
HETATM   10  H   UNL     1      -5.644   1.036 -34.516  1.00  0.00     0.166 HD
ENDROOT
BRANCH   1  11
HETATM   11  C   UNL     1      -8.955   3.943 -32.631  1.00  0.00    -0.044 A 
HETATM   12  C   UNL     1      -9.858   4.559 -31.750  1.00  0.00     0.011 A 
HETATM   13  C   UNL     1     -10.489   5.761 -32.090  1.00  0.00     0.037 A 
HETATM   14  C   UNL     1     -10.231   6.367 -33.318  1.00  0.00     0.068 A 
HETATM   15  C   UNL     1      -9.331   5.765 -34.198  1.00  0.00     0.037 A 
HETATM   16  C   UNL     1      -8.689   4.571 -33.858  1.00  0.00     0.011 A 
BRANCH  14  17
HETATM   17  O   UNL     1     -10.788   7.528 -33.777  1.00  0.00    -0.352 OA
BRANCH  17  18
HETATM   18  C   UNL     1     -12.125   7.453 -34.270  1.00  0.00     0.171 C 
HETATM   19  C   UNL     1     -12.069   7.538 -35.784  1.00  0.00     0.034 C 
ENDBRANCH  17  18
ENDBRANCH  14  17
ENDBRANCH   1  11
BRANCH   6  20
HETATM   20  S   UNL     1      -4.149   2.364 -32.400  1.00  0.00    -0.102 SA
BRANCH  20  21
HETATM   21  C   UNL     1      -3.780   0.977 -31.315  1.00  0.00     0.184 C 
BRANCH  21  22
HETATM   22  C   UNL     1      -4.451  -0.317 -31.731  1.00  0.00     0.231 C 
HETATM   23  N   UNL     1      -3.694  -1.134 -32.547  1.00  0.00    -0.326 N 
HETATM   24  H   UNL     1      -2.696  -0.961 -32.549  1.00  0.00     0.169 HD
HETATM   25  O   UNL     1      -5.573  -0.575 -31.296  1.00  0.00    -0.272 OA
BRANCH  23  26
HETATM   26  C   UNL     1      -4.151  -2.295 -33.217  1.00  0.00     0.040 A 
HETATM   27  C   UNL     1      -3.646  -3.559 -32.848  1.00  0.00    -0.035 A 
HETATM   28  C   UNL     1      -2.691  -3.743 -31.700  1.00  0.00     0.050 C 
HETATM   29  C   UNL     1      -4.056  -4.700 -33.563  1.00  0.00     0.009 A 
HETATM   30  C   UNL     1      -4.955  -4.598 -34.623  1.00  0.00     0.001 A 
HETATM   31  C   UNL     1      -5.458  -3.354 -34.981  1.00  0.00     0.002 A 
HETATM   32  C   UNL     1      -5.059  -2.212 -34.282  1.00  0.00     0.030 A 
ENDBRANCH  23  26
ENDBRANCH  21  22
ENDBRANCH  20  21
ENDBRANCH   6  20
BRANCH   2  33
HETATM   33  C   UNL     1      -9.951   0.894 -33.098  1.00  0.00     0.255 C 
HETATM   34  N   UNL     1     -10.933   1.733 -33.589  1.00  0.00    -0.323 N 
HETATM   35  H   UNL     1     -10.633   2.626 -33.959  1.00  0.00     0.169 HD
HETATM   36  O   UNL     1     -10.102  -0.249 -32.694  1.00  0.00    -0.268 OA
BRANCH  34  37
HETATM   37  C   UNL     1     -12.329   1.528 -33.582  1.00  0.00     0.035 A 
HETATM   38  C   UNL     1     -12.952   0.370 -34.047  1.00  0.00     0.029 A 
HETATM   39  C   UNL     1     -14.343   0.242 -33.986  1.00  0.00     0.002 A 
HETATM   40  C   UNL     1     -15.121   1.266 -33.449  1.00  0.00     0.000 A 
HETATM   41  C   UNL     1     -14.509   2.424 -32.979  1.00  0.00     0.002 A 
HETATM   42  C   UNL     1     -13.120   2.557 -33.052  1.00  0.00     0.029 A 
ENDBRANCH  34  37
ENDBRANCH   2  33
TORSDOF 9
ENDMDL
MODEL 4
REMARK VINA RESULT:      -8.6      3.874      7.122
REMARK  9 active torsions:
REMARK  status: ('A' for Active; 'I' for Inactive)
REMARK    1  A    between atoms: C_2  and  O_3 
REMARK    2  A    between atoms: O_3  and  C_4 
REMARK    3  A    between atoms: C_7  and  C_8 
REMARK    4  A    between atoms: C_9  and  C_10 
REMARK       I    between atoms: C_10  and  N_11 
REMARK    5  A    between atoms: N_11  and  C_12 
REMARK    6  A    between atoms: C_22  and  S_23 
REMARK    7  A    between atoms: S_23  and  C_24 
REMARK    8  A    between atoms: C_24  and  C_25 
REMARK       I    between atoms: C_25  and  N_26 
REMARK    9  A    between atoms: N_26  and  C_27 
ROOT
HETATM    1  C   UNL     1      -8.256   3.653 -33.645  1.00  0.00     0.104 C 
HETATM    2  C   UNL     1      -9.483   3.975 -32.787  1.00  0.00     0.046 C 
HETATM    3  C   UNL     1      -9.331   4.539 -31.567  1.00  0.00     0.019 C 
HETATM    4  C   UNL     1     -10.423   4.716 -30.540  1.00  0.00     0.069 C 
HETATM    5  N   UNL     1      -8.082   5.001 -31.184  1.00  0.00    -0.353 N 
HETATM    6  C   UNL     1      -6.984   5.107 -32.024  1.00  0.00     0.087 C 
HETATM    7  C   UNL     1      -7.008   4.418 -33.199  1.00  0.00     0.055 C 
HETATM    8  C   UNL     1      -5.795   4.382 -34.115  1.00  0.00     0.019 C 
HETATM    9  N   UNL     1      -4.791   4.352 -34.876  1.00  0.00    -0.096 N 
HETATM   10  H   UNL     1      -8.061   5.501 -30.295  1.00  0.00     0.166 HD
ENDROOT
BRANCH   1  11
HETATM   11  C   UNL     1      -7.967   2.154 -33.724  1.00  0.00    -0.044 A 
HETATM   12  C   UNL     1      -7.483   1.595 -34.917  1.00  0.00     0.011 A 
HETATM   13  C   UNL     1      -7.202   0.227 -35.010  1.00  0.00     0.037 A 
HETATM   14  C   UNL     1      -7.403  -0.607 -33.911  1.00  0.00     0.068 A 
HETATM   15  C   UNL     1      -7.879  -0.059 -32.719  1.00  0.00     0.037 A 
HETATM   16  C   UNL     1      -8.149   1.308 -32.619  1.00  0.00     0.011 A 
BRANCH  14  17
HETATM   17  O   UNL     1      -7.183  -1.956 -33.873  1.00  0.00    -0.352 OA
BRANCH  17  18
HETATM   18  C   UNL     1      -6.192  -2.475 -34.758  1.00  0.00     0.171 C 
HETATM   19  C   UNL     1      -6.474  -3.953 -34.959  1.00  0.00     0.034 C 
ENDBRANCH  17  18
ENDBRANCH  14  17
ENDBRANCH   1  11
BRANCH   6  20
HETATM   20  S   UNL     1      -5.590   6.138 -31.694  1.00  0.00    -0.102 SA
BRANCH  20  21
HETATM   21  C   UNL     1      -4.502   5.209 -30.602  1.00  0.00     0.184 C 
BRANCH  21  22
HETATM   22  C   UNL     1      -3.974   3.928 -31.215  1.00  0.00     0.231 C 
HETATM   23  N   UNL     1      -4.874   2.881 -31.254  1.00  0.00    -0.326 N 
HETATM   24  H   UNL     1      -5.851   3.130 -31.160  1.00  0.00     0.169 HD
HETATM   25  O   UNL     1      -2.829   3.909 -31.669  1.00  0.00    -0.272 OA
BRANCH  23  26
HETATM   26  C   UNL     1      -4.577   1.541 -31.602  1.00  0.00     0.040 A 
HETATM   27  C   UNL     1      -4.990   0.492 -30.755  1.00  0.00    -0.035 A 
HETATM   28  C   UNL     1      -5.818   0.728 -29.521  1.00  0.00     0.050 C 
HETATM   29  C   UNL     1      -4.634  -0.832 -31.075  1.00  0.00     0.009 A 
HETATM   30  C   UNL     1      -3.886  -1.118 -32.216  1.00  0.00     0.001 A 
HETATM   31  C   UNL     1      -3.486  -0.085 -33.053  1.00  0.00     0.002 A 
HETATM   32  C   UNL     1      -3.830   1.234 -32.748  1.00  0.00     0.030 A 
ENDBRANCH  23  26
ENDBRANCH  21  22
ENDBRANCH  20  21
ENDBRANCH   6  20
BRANCH   2  33
HETATM   33  C   UNL     1     -10.815   3.668 -33.400  1.00  0.00     0.255 C 
HETATM   34  N   UNL     1     -11.449   2.600 -32.794  1.00  0.00    -0.323 N 
HETATM   35  H   UNL     1     -10.968   2.158 -32.021  1.00  0.00     0.169 HD
HETATM   36  O   UNL     1     -11.267   4.381 -34.283  1.00  0.00    -0.268 OA
BRANCH  34  37
HETATM   37  C   UNL     1     -12.670   1.998 -33.162  1.00  0.00     0.035 A 
HETATM   38  C   UNL     1     -13.924   2.468 -32.771  1.00  0.00     0.029 A 
HETATM   39  C   UNL     1     -15.087   1.818 -33.198  1.00  0.00     0.002 A 
HETATM   40  C   UNL     1     -15.006   0.701 -34.027  1.00  0.00     0.000 A 
HETATM   41  C   UNL     1     -13.760   0.227 -34.425  1.00  0.00     0.002 A 
HETATM   42  C   UNL     1     -12.598   0.867 -33.989  1.00  0.00     0.029 A 
ENDBRANCH  34  37
ENDBRANCH   2  33
TORSDOF 9
ENDMDL
MODEL 5
REMARK VINA RESULT:      -8.5      3.147      5.299
REMARK  9 active torsions:
REMARK  status: ('A' for Active; 'I' for Inactive)
REMARK    1  A    between atoms: C_2  and  O_3 
REMARK    2  A    between atoms: O_3  and  C_4 
REMARK    3  A    between atoms: C_7  and  C_8 
REMARK    4  A    between atoms: C_9  and  C_10 
REMARK       I    between atoms: C_10  and  N_11 
REMARK    5  A    between atoms: N_11  and  C_12 
REMARK    6  A    between atoms: C_22  and  S_23 
REMARK    7  A    between atoms: S_23  and  C_24 
REMARK    8  A    between atoms: C_24  and  C_25 
REMARK       I    between atoms: C_25  and  N_26 
REMARK    9  A    between atoms: N_26  and  C_27 
ROOT
HETATM    1  C   UNL     1      -6.321   3.813 -32.596  1.00  0.00     0.104 C 
HETATM    2  C   UNL     1      -6.684   2.362 -32.273  1.00  0.00     0.046 C 
HETATM    3  C   UNL     1      -7.267   2.052 -31.092  1.00  0.00     0.019 C 
HETATM    4  C   UNL     1      -7.486   0.656 -30.560  1.00  0.00     0.069 C 
HETATM    5  N   UNL     1      -7.710   3.073 -30.267  1.00  0.00    -0.353 N 
HETATM    6  C   UNL     1      -7.777   4.411 -30.626  1.00  0.00     0.087 C 
HETATM    7  C   UNL     1      -7.067   4.818 -31.715  1.00  0.00     0.055 C 
HETATM    8  C   UNL     1      -6.989   6.286 -32.100  1.00  0.00     0.019 C 
HETATM    9  N   UNL     1      -6.924   7.504 -32.420  1.00  0.00    -0.096 N 
HETATM   10  H   UNL     1      -8.225   2.767 -29.441  1.00  0.00     0.166 HD
ENDROOT
BRANCH   1  11
HETATM   11  C   UNL     1      -4.814   4.071 -32.544  1.00  0.00    -0.044 A 
HETATM   12  C   UNL     1      -4.142   4.529 -33.689  1.00  0.00     0.011 A 
HETATM   13  C   UNL     1      -2.765   4.780 -33.663  1.00  0.00     0.037 A 
HETATM   14  C   UNL     1      -2.036   4.576 -32.493  1.00  0.00     0.068 A 
HETATM   15  C   UNL     1      -2.697   4.127 -31.349  1.00  0.00     0.037 A 
HETATM   16  C   UNL     1      -4.073   3.886 -31.367  1.00  0.00     0.011 A 
BRANCH  14  17
HETATM   17  O   UNL     1      -0.691   4.769 -32.337  1.00  0.00    -0.352 OA
BRANCH  17  18
HETATM   18  C   UNL     1      -0.251   5.258 -31.072  1.00  0.00     0.171 C 
HETATM   19  C   UNL     1       0.324   6.647 -31.282  1.00  0.00     0.034 C 
ENDBRANCH  17  18
ENDBRANCH  14  17
ENDBRANCH   1  11
BRANCH   6  20
HETATM   20  S   UNL     1      -8.785   5.600 -29.799  1.00  0.00    -0.102 SA
BRANCH  20  21
HETATM   21  C   UNL     1     -10.347   5.670 -30.691  1.00  0.00     0.184 C 
BRANCH  21  22
HETATM   22  C   UNL     1     -10.937   4.307 -30.992  1.00  0.00     0.231 C 
HETATM   23  N   UNL     1     -11.445   4.156 -32.267  1.00  0.00    -0.326 N 
HETATM   24  H   UNL     1     -11.122   4.823 -32.957  1.00  0.00     0.169 HD
HETATM   25  O   UNL     1     -10.890   3.431 -30.127  1.00  0.00    -0.272 OA
BRANCH  23  26
HETATM   26  C   UNL     1     -12.207   3.058 -32.734  1.00  0.00     0.040 A 
HETATM   27  C   UNL     1     -11.572   2.018 -33.444  1.00  0.00    -0.035 A 
HETATM   28  C   UNL     1     -10.083   1.979 -33.658  1.00  0.00     0.050 C 
HETATM   29  C   UNL     1     -12.348   0.964 -33.962  1.00  0.00     0.009 A 
HETATM   30  C   UNL     1     -13.729   0.932 -33.780  1.00  0.00     0.001 A 
HETATM   31  C   UNL     1     -14.353   1.953 -33.074  1.00  0.00     0.002 A 
HETATM   32  C   UNL     1     -13.597   3.007 -32.555  1.00  0.00     0.030 A 
ENDBRANCH  23  26
ENDBRANCH  21  22
ENDBRANCH  20  21
ENDBRANCH   6  20
BRANCH   2  33
HETATM   33  C   UNL     1      -6.393   1.356 -33.344  1.00  0.00     0.255 C 
HETATM   34  N   UNL     1      -6.263   0.071 -32.850  1.00  0.00    -0.323 N 
HETATM   35  H   UNL     1      -6.382  -0.053 -31.853  1.00  0.00     0.169 HD
HETATM   36  O   UNL     1      -6.372   1.692 -34.518  1.00  0.00    -0.268 OA
BRANCH  34  37
HETATM   37  C   UNL     1      -5.917  -1.097 -33.561  1.00  0.00     0.035 A 
HETATM   38  C   UNL     1      -4.609  -1.550 -33.733  1.00  0.00     0.029 A 
HETATM   39  C   UNL     1      -4.357  -2.732 -34.438  1.00  0.00     0.002 A 
HETATM   40  C   UNL     1      -5.411  -3.475 -34.966  1.00  0.00     0.000 A 
HETATM   41  C   UNL     1      -6.720  -3.034 -34.797  1.00  0.00     0.002 A 
HETATM   42  C   UNL     1      -6.971  -1.847 -34.104  1.00  0.00     0.029 A 
ENDBRANCH  34  37
ENDBRANCH   2  33
TORSDOF 9
ENDMDL
MODEL 6
REMARK VINA RESULT:      -8.5      2.910      5.302
REMARK  9 active torsions:
REMARK  status: ('A' for Active; 'I' for Inactive)
REMARK    1  A    between atoms: C_2  and  O_3 
REMARK    2  A    between atoms: O_3  and  C_4 
REMARK    3  A    between atoms: C_7  and  C_8 
REMARK    4  A    between atoms: C_9  and  C_10 
REMARK       I    between atoms: C_10  and  N_11 
REMARK    5  A    between atoms: N_11  and  C_12 
REMARK    6  A    between atoms: C_22  and  S_23 
REMARK    7  A    between atoms: S_23  and  C_24 
REMARK    8  A    between atoms: C_24  and  C_25 
REMARK       I    between atoms: C_25  and  N_26 
REMARK    9  A    between atoms: N_26  and  C_27 
ROOT
HETATM    1  C   UNL     1      -6.293   3.405 -30.922  1.00  0.00     0.104 C 
HETATM    2  C   UNL     1      -5.014   2.916 -31.605  1.00  0.00     0.046 C 
HETATM    3  C   UNL     1      -4.057   3.799 -31.971  1.00  0.00     0.019 C 
HETATM    4  C   UNL     1      -2.856   3.487 -32.830  1.00  0.00     0.069 C 
HETATM    5  N   UNL     1      -4.152   5.116 -31.549  1.00  0.00    -0.353 N 
HETATM    6  C   UNL     1      -5.063   5.585 -30.614  1.00  0.00     0.087 C 
HETATM    7  C   UNL     1      -6.146   4.809 -30.330  1.00  0.00     0.055 C 
HETATM    8  C   UNL     1      -7.251   5.306 -29.412  1.00  0.00     0.019 C 
HETATM    9  N   UNL     1      -8.167   5.716 -28.650  1.00  0.00    -0.096 N 
HETATM   10  H   UNL     1      -3.349   5.701 -31.779  1.00  0.00     0.166 HD
ENDROOT
BRANCH   1  11
HETATM   11  C   UNL     1      -7.517   3.335 -31.837  1.00  0.00    -0.044 A 
HETATM   12  C   UNL     1      -7.574   4.132 -32.992  1.00  0.00     0.011 A 
HETATM   13  C   UNL     1      -8.680   4.078 -33.849  1.00  0.00     0.037 A 
HETATM   14  C   UNL     1      -9.748   3.229 -33.565  1.00  0.00     0.068 A 
HETATM   15  C   UNL     1      -9.696   2.429 -32.423  1.00  0.00     0.037 A 
HETATM   16  C   UNL     1      -8.590   2.471 -31.570  1.00  0.00     0.011 A 
BRANCH  14  17
HETATM   17  O   UNL     1     -10.887   3.092 -34.308  1.00  0.00    -0.352 OA
BRANCH  17  18
HETATM   18  C   UNL     1     -11.820   2.099 -33.883  1.00  0.00     0.171 C 
HETATM   19  C   UNL     1     -12.517   1.555 -35.117  1.00  0.00     0.034 C 
ENDBRANCH  17  18
ENDBRANCH  14  17
ENDBRANCH   1  11
BRANCH   6  20
HETATM   20  S   UNL     1      -4.863   7.093 -29.719  1.00  0.00    -0.102 SA
BRANCH  20  21
HETATM   21  C   UNL     1      -4.163   8.290 -30.866  1.00  0.00     0.184 C 
BRANCH  21  22
HETATM   22  C   UNL     1      -2.814   8.830 -30.434  1.00  0.00     0.231 C 
HETATM   23  N   UNL     1      -2.198   8.125 -29.419  1.00  0.00    -0.326 N 
HETATM   24  H   UNL     1      -2.530   7.180 -29.267  1.00  0.00     0.169 HD
HETATM   25  O   UNL     1      -2.343   9.804 -31.023  1.00  0.00    -0.272 OA
BRANCH  23  26
HETATM   26  C   UNL     1      -1.035   8.523 -28.716  1.00  0.00     0.040 A 
HETATM   27  C   UNL     1       0.187   7.861 -28.956  1.00  0.00    -0.035 A 
HETATM   28  C   UNL     1       0.334   6.791 -30.003  1.00  0.00     0.050 C 
HETATM   29  C   UNL     1       1.323   8.220 -28.206  1.00  0.00     0.009 A 
HETATM   30  C   UNL     1       1.257   9.218 -27.236  1.00  0.00     0.001 A 
HETATM   31  C   UNL     1       0.055   9.874 -27.005  1.00  0.00     0.002 A 
HETATM   32  C   UNL     1      -1.082   9.529 -27.741  1.00  0.00     0.030 A 
ENDBRANCH  23  26
ENDBRANCH  21  22
ENDBRANCH  20  21
ENDBRANCH   6  20
BRANCH   2  33
HETATM   33  C   UNL     1      -4.891   1.435 -31.791  1.00  0.00     0.255 C 
HETATM   34  N   UNL     1      -5.295   1.018 -33.046  1.00  0.00    -0.323 N 
HETATM   35  H   UNL     1      -5.611   1.732 -33.689  1.00  0.00     0.169 HD
HETATM   36  O   UNL     1      -4.399   0.741 -30.914  1.00  0.00    -0.268 OA
BRANCH  34  37
HETATM   37  C   UNL     1      -5.383  -0.304 -33.531  1.00  0.00     0.035 A 
HETATM   38  C   UNL     1      -4.290  -1.158 -33.678  1.00  0.00     0.029 A 
HETATM   39  C   UNL     1      -4.471  -2.463 -34.150  1.00  0.00     0.002 A 
HETATM   40  C   UNL     1      -5.746  -2.926 -34.468  1.00  0.00     0.000 A 
HETATM   41  C   UNL     1      -6.843  -2.082 -34.322  1.00  0.00     0.002 A 
HETATM   42  C   UNL     1      -6.661  -0.775 -33.863  1.00  0.00     0.029 A 
ENDBRANCH  34  37
ENDBRANCH   2  33
TORSDOF 9
ENDMDL
MODEL 7
REMARK VINA RESULT:      -8.5      3.713      6.140
REMARK  9 active torsions:
REMARK  status: ('A' for Active; 'I' for Inactive)
REMARK    1  A    between atoms: C_2  and  O_3 
REMARK    2  A    between atoms: O_3  and  C_4 
REMARK    3  A    between atoms: C_7  and  C_8 
REMARK    4  A    between atoms: C_9  and  C_10 
REMARK       I    between atoms: C_10  and  N_11 
REMARK    5  A    between atoms: N_11  and  C_12 
REMARK    6  A    between atoms: C_22  and  S_23 
REMARK    7  A    between atoms: S_23  and  C_24 
REMARK    8  A    between atoms: C_24  and  C_25 
REMARK       I    between atoms: C_25  and  N_26 
REMARK    9  A    between atoms: N_26  and  C_27 
ROOT
HETATM    1  C   UNL     1      -7.529   3.738 -33.862  1.00  0.00     0.104 C 
HETATM    2  C   UNL     1      -8.791   3.896 -33.010  1.00  0.00     0.046 C 
HETATM    3  C   UNL     1      -8.721   4.476 -31.790  1.00  0.00     0.019 C 
HETATM    4  C   UNL     1      -9.831   4.509 -30.768  1.00  0.00     0.069 C 
HETATM    5  N   UNL     1      -7.546   5.101 -31.403  1.00  0.00    -0.353 N 
HETATM    6  C   UNL     1      -6.467   5.350 -32.239  1.00  0.00     0.087 C 
HETATM    7  C   UNL     1      -6.395   4.662 -33.412  1.00  0.00     0.055 C 
HETATM    8  C   UNL     1      -5.184   4.786 -34.324  1.00  0.00     0.019 C 
HETATM    9  N   UNL     1      -4.181   4.888 -35.080  1.00  0.00    -0.096 N 
HETATM   10  H   UNL     1      -7.595   5.599 -30.515  1.00  0.00     0.166 HD
ENDROOT
BRANCH   1  11
HETATM   11  C   UNL     1      -7.043   2.290 -33.937  1.00  0.00    -0.044 A 
HETATM   12  C   UNL     1      -6.267   1.757 -32.895  1.00  0.00     0.011 A 
HETATM   13  C   UNL     1      -5.819   0.431 -32.937  1.00  0.00     0.037 A 
HETATM   14  C   UNL     1      -6.136  -0.383 -34.023  1.00  0.00     0.068 A 
HETATM   15  C   UNL     1      -6.912   0.137 -35.060  1.00  0.00     0.037 A 
HETATM   16  C   UNL     1      -7.371   1.456 -35.017  1.00  0.00     0.011 A 
BRANCH  14  17
HETATM   17  O   UNL     1      -5.752  -1.684 -34.194  1.00  0.00    -0.352 OA
BRANCH  17  18
HETATM   18  C   UNL     1      -6.774  -2.622 -34.527  1.00  0.00     0.171 C 
HETATM   19  C   UNL     1      -6.101  -3.909 -34.967  1.00  0.00     0.034 C 
ENDBRANCH  17  18
ENDBRANCH  14  17
ENDBRANCH   1  11
BRANCH   6  20
HETATM   20  S   UNL     1      -5.224   6.557 -31.905  1.00  0.00    -0.102 SA
BRANCH  20  21
HETATM   21  C   UNL     1      -4.329   5.993 -30.448  1.00  0.00     0.184 C 
BRANCH  21  22
HETATM   22  C   UNL     1      -3.291   6.979 -29.953  1.00  0.00     0.231 C 
HETATM   23  N   UNL     1      -2.187   6.413 -29.347  1.00  0.00    -0.326 N 
HETATM   24  H   UNL     1      -2.021   5.434 -29.547  1.00  0.00     0.169 HD
HETATM   25  O   UNL     1      -3.464   8.182 -30.153  1.00  0.00    -0.272 OA
BRANCH  23  26
HETATM   26  C   UNL     1      -1.175   7.110 -28.643  1.00  0.00     0.040 A 
HETATM   27  C   UNL     1       0.078   7.327 -29.253  1.00  0.00    -0.035 A 
HETATM   28  C   UNL     1       0.365   6.920 -30.673  1.00  0.00     0.050 C 
HETATM   29  C   UNL     1       1.099   7.963 -28.522  1.00  0.00     0.009 A 
HETATM   30  C   UNL     1       0.888   8.382 -27.210  1.00  0.00     0.001 A 
HETATM   31  C   UNL     1      -0.348   8.174 -26.612  1.00  0.00     0.002 A 
HETATM   32  C   UNL     1      -1.371   7.544 -27.324  1.00  0.00     0.030 A 
ENDBRANCH  23  26
ENDBRANCH  21  22
ENDBRANCH  20  21
ENDBRANCH   6  20
BRANCH   2  33
HETATM   33  C   UNL     1     -10.068   3.414 -33.628  1.00  0.00     0.255 C 
HETATM   34  N   UNL     1     -10.696   2.444 -32.870  1.00  0.00    -0.323 N 
HETATM   35  H   UNL     1     -10.249   2.176 -32.003  1.00  0.00     0.169 HD
HETATM   36  O   UNL     1     -10.491   3.929 -34.651  1.00  0.00    -0.268 OA
BRANCH  34  37
HETATM   37  C   UNL     1     -11.866   1.723 -33.186  1.00  0.00     0.035 A 
HETATM   38  C   UNL     1     -11.886   0.367 -33.514  1.00  0.00     0.029 A 
HETATM   39  C   UNL     1     -13.097  -0.274 -33.796  1.00  0.00     0.002 A 
HETATM   40  C   UNL     1     -14.297   0.432 -33.743  1.00  0.00     0.000 A 
HETATM   41  C   UNL     1     -14.289   1.784 -33.413  1.00  0.00     0.002 A 
HETATM   42  C   UNL     1     -13.078   2.428 -33.143  1.00  0.00     0.029 A 
ENDBRANCH  34  37
ENDBRANCH   2  33
TORSDOF 9
ENDMDL
MODEL 8
REMARK VINA RESULT:      -8.2      3.425      5.716
REMARK  9 active torsions:
REMARK  status: ('A' for Active; 'I' for Inactive)
REMARK    1  A    between atoms: C_2  and  O_3 
REMARK    2  A    between atoms: O_3  and  C_4 
REMARK    3  A    between atoms: C_7  and  C_8 
REMARK    4  A    between atoms: C_9  and  C_10 
REMARK       I    between atoms: C_10  and  N_11 
REMARK    5  A    between atoms: N_11  and  C_12 
REMARK    6  A    between atoms: C_22  and  S_23 
REMARK    7  A    between atoms: S_23  and  C_24 
REMARK    8  A    between atoms: C_24  and  C_25 
REMARK       I    between atoms: C_25  and  N_26 
REMARK    9  A    between atoms: N_26  and  C_27 
ROOT
HETATM    1  C   UNL     1      -6.747   3.301 -33.112  1.00  0.00     0.104 C 
HETATM    2  C   UNL     1      -7.742   3.318 -31.948  1.00  0.00     0.046 C 
HETATM    3  C   UNL     1      -7.473   4.036 -30.834  1.00  0.00     0.019 C 
HETATM    4  C   UNL     1      -8.253   3.978 -29.542  1.00  0.00     0.069 C 
HETATM    5  N   UNL     1      -6.396   4.907 -30.831  1.00  0.00    -0.353 N 
HETATM    6  C   UNL     1      -5.655   5.255 -31.951  1.00  0.00     0.087 C 
HETATM    7  C   UNL     1      -5.754   4.464 -33.055  1.00  0.00     0.055 C 
HETATM    8  C   UNL     1      -4.883   4.706 -34.277  1.00  0.00     0.019 C 
HETATM    9  N   UNL     1      -4.161   4.905 -35.292  1.00  0.00    -0.096 N 
HETATM   10  H   UNL     1      -6.311   5.486 -29.996  1.00  0.00     0.166 HD
ENDROOT
BRANCH   1  11
HETATM   11  C   UNL     1      -6.006   1.969 -33.237  1.00  0.00    -0.044 A 
HETATM   12  C   UNL     1      -4.860   1.729 -32.462  1.00  0.00     0.011 A 
HETATM   13  C   UNL     1      -4.170   0.515 -32.553  1.00  0.00     0.037 A 
HETATM   14  C   UNL     1      -4.613  -0.481 -33.422  1.00  0.00     0.068 A 
HETATM   15  C   UNL     1      -5.755  -0.253 -34.192  1.00  0.00     0.037 A 
HETATM   16  C   UNL     1      -6.453   0.953 -34.096  1.00  0.00     0.011 A 
BRANCH  14  17
HETATM   17  O   UNL     1      -4.027  -1.701 -33.616  1.00  0.00    -0.352 OA
BRANCH  17  18
HETATM   18  C   UNL     1      -4.775  -2.668 -34.351  1.00  0.00     0.171 C 
HETATM   19  C   UNL     1      -4.146  -4.028 -34.107  1.00  0.00     0.034 C 
ENDBRANCH  17  18
ENDBRANCH  14  17
ENDBRANCH   1  11
BRANCH   6  20
HETATM   20  S   UNL     1      -4.649   6.702 -32.053  1.00  0.00    -0.102 SA
BRANCH  20  21
HETATM   21  C   UNL     1      -4.327   7.232 -30.363  1.00  0.00     0.184 C 
BRANCH  21  22
HETATM   22  C   UNL     1      -2.941   6.872 -29.866  1.00  0.00     0.231 C 
HETATM   23  N   UNL     1      -2.529   7.550 -28.736  1.00  0.00    -0.326 N 
HETATM   24  H   UNL     1      -3.261   7.980 -28.182  1.00  0.00     0.169 HD
HETATM   25  O   UNL     1      -2.305   5.995 -30.451  1.00  0.00    -0.272 OA
BRANCH  23  26
HETATM   26  C   UNL     1      -1.225   7.535 -28.186  1.00  0.00     0.040 A 
HETATM   27  C   UNL     1      -1.024   7.045 -26.878  1.00  0.00    -0.035 A 
HETATM   28  C   UNL     1      -2.137   6.451 -26.059  1.00  0.00     0.050 C 
HETATM   29  C   UNL     1       0.265   7.095 -26.315  1.00  0.00     0.009 A 
HETATM   30  C   UNL     1       1.342   7.615 -27.030  1.00  0.00     0.001 A 
HETATM   31  C   UNL     1       1.145   8.090 -28.321  1.00  0.00     0.002 A 
HETATM   32  C   UNL     1      -0.129   8.049 -28.893  1.00  0.00     0.030 A 
ENDBRANCH  23  26
ENDBRANCH  21  22
ENDBRANCH  20  21
ENDBRANCH   6  20
BRANCH   2  33
HETATM   33  C   UNL     1      -9.006   2.541 -32.150  1.00  0.00     0.255 C 
HETATM   34  N   UNL     1      -9.804   3.067 -33.149  1.00  0.00    -0.323 N 
HETATM   35  H   UNL     1      -9.458   3.888 -33.629  1.00  0.00     0.169 HD
HETATM   36  O   UNL     1      -9.206   1.513 -31.522  1.00  0.00    -0.268 OA
BRANCH  34  37
HETATM   37  C   UNL     1     -11.086   2.637 -33.548  1.00  0.00     0.035 A 
HETATM   38  C   UNL     1     -11.323   1.746 -34.594  1.00  0.00     0.029 A 
HETATM   39  C   UNL     1     -12.628   1.358 -34.911  1.00  0.00     0.002 A 
HETATM   40  C   UNL     1     -13.707   1.849 -34.178  1.00  0.00     0.000 A 
HETATM   41  C   UNL     1     -13.482   2.737 -33.130  1.00  0.00     0.002 A 
HETATM   42  C   UNL     1     -12.178   3.134 -32.822  1.00  0.00     0.029 A 
ENDBRANCH  34  37
ENDBRANCH   2  33
TORSDOF 9
ENDMDL
MODEL 9
REMARK VINA RESULT:      -8.0      2.516      8.509
REMARK  9 active torsions:
REMARK  status: ('A' for Active; 'I' for Inactive)
REMARK    1  A    between atoms: C_2  and  O_3 
REMARK    2  A    between atoms: O_3  and  C_4 
REMARK    3  A    between atoms: C_7  and  C_8 
REMARK    4  A    between atoms: C_9  and  C_10 
REMARK       I    between atoms: C_10  and  N_11 
REMARK    5  A    between atoms: N_11  and  C_12 
REMARK    6  A    between atoms: C_22  and  S_23 
REMARK    7  A    between atoms: S_23  and  C_24 
REMARK    8  A    between atoms: C_24  and  C_25 
REMARK       I    between atoms: C_25  and  N_26 
REMARK    9  A    between atoms: N_26  and  C_27 
ROOT
HETATM    1  C   UNL     1      -7.376   4.642 -32.505  1.00  0.00     0.104 C 
HETATM    2  C   UNL     1      -6.297   3.906 -31.708  1.00  0.00     0.046 C 
HETATM    3  C   UNL     1      -6.440   2.591 -31.422  1.00  0.00     0.019 C 
HETATM    4  C   UNL     1      -5.568   1.798 -30.478  1.00  0.00     0.069 C 
HETATM    5  N   UNL     1      -7.464   1.874 -32.019  1.00  0.00    -0.353 N 
HETATM    6  C   UNL     1      -8.268   2.346 -33.047  1.00  0.00     0.087 C 
HETATM    7  C   UNL     1      -8.297   3.689 -33.272  1.00  0.00     0.055 C 
HETATM    8  C   UNL     1      -9.243   4.295 -34.294  1.00  0.00     0.019 C 
HETATM    9  N   UNL     1     -10.028   4.799 -35.143  1.00  0.00    -0.096 N 
HETATM   10  H   UNL     1      -7.453   0.871 -31.835  1.00  0.00     0.166 HD
ENDROOT
BRANCH   1  11
HETATM   11  C   UNL     1      -8.198   5.602 -31.642  1.00  0.00    -0.044 A 
HETATM   12  C   UNL     1      -9.010   5.099 -30.613  1.00  0.00     0.011 A 
HETATM   13  C   UNL     1      -9.763   5.958 -29.805  1.00  0.00     0.037 A 
HETATM   14  C   UNL     1      -9.719   7.335 -30.014  1.00  0.00     0.068 A 
HETATM   15  C   UNL     1      -8.911   7.845 -31.031  1.00  0.00     0.037 A 
HETATM   16  C   UNL     1      -8.148   6.992 -31.832  1.00  0.00     0.011 A 
BRANCH  14  17
HETATM   17  O   UNL     1     -10.413   8.279 -29.309  1.00  0.00    -0.352 OA
BRANCH  17  18
HETATM   18  C   UNL     1      -9.659   9.117 -28.434  1.00  0.00     0.171 C 
HETATM   19  C   UNL     1      -9.587   8.434 -27.080  1.00  0.00     0.034 C 
ENDBRANCH  17  18
ENDBRANCH  14  17
ENDBRANCH   1  11
BRANCH   6  20
HETATM   20  S   UNL     1      -9.196   1.302 -34.125  1.00  0.00    -0.102 SA
BRANCH  20  21
HETATM   21  C   UNL     1      -8.006   0.386 -35.116  1.00  0.00     0.184 C 
BRANCH  21  22
HETATM   22  C   UNL     1      -7.358  -0.767 -34.377  1.00  0.00     0.231 C 
HETATM   23  N   UNL     1      -6.308  -1.373 -35.039  1.00  0.00    -0.326 N 
HETATM   24  H   UNL     1      -5.879  -0.833 -35.781  1.00  0.00     0.169 HD
HETATM   25  O   UNL     1      -7.762  -1.058 -33.250  1.00  0.00    -0.272 OA
BRANCH  23  26
HETATM   26  C   UNL     1      -5.663  -2.573 -34.654  1.00  0.00     0.040 A 
HETATM   27  C   UNL     1      -4.477  -2.515 -33.893  1.00  0.00    -0.035 A 
HETATM   28  C   UNL     1      -3.901  -1.219 -33.392  1.00  0.00     0.050 C 
HETATM   29  C   UNL     1      -3.807  -3.711 -33.572  1.00  0.00     0.009 A 
HETATM   30  C   UNL     1      -4.300  -4.945 -33.989  1.00  0.00     0.001 A 
HETATM   31  C   UNL     1      -5.472  -5.002 -34.732  1.00  0.00     0.002 A 
HETATM   32  C   UNL     1      -6.148  -3.824 -35.060  1.00  0.00     0.030 A 
ENDBRANCH  23  26
ENDBRANCH  21  22
ENDBRANCH  20  21
ENDBRANCH   6  20
BRANCH   2  33
HETATM   33  C   UNL     1      -5.096   4.714 -31.321  1.00  0.00     0.255 C 
HETATM   34  N   UNL     1      -4.251   4.958 -32.387  1.00  0.00    -0.323 N 
HETATM   35  H   UNL     1      -4.526   4.587 -33.287  1.00  0.00     0.169 HD
HETATM   36  O   UNL     1      -4.984   5.148 -30.185  1.00  0.00    -0.268 OA
BRANCH  34  37
HETATM   37  C   UNL     1      -3.003   5.615 -32.367  1.00  0.00     0.035 A 
HETATM   38  C   UNL     1      -2.798   6.921 -32.813  1.00  0.00     0.029 A 
HETATM   39  C   UNL     1      -1.528   7.502 -32.739  1.00  0.00     0.002 A 
HETATM   40  C   UNL     1      -0.456   6.787 -32.209  1.00  0.00     0.000 A 
HETATM   41  C   UNL     1      -0.650   5.485 -31.758  1.00  0.00     0.002 A 
HETATM   42  C   UNL     1      -1.916   4.900 -31.844  1.00  0.00     0.029 A 
ENDBRANCH  34  37
ENDBRANCH   2  33
TORSDOF 9
ENDMDL
MODEL 10
REMARK VINA RESULT:      -8.0      5.321     10.063
REMARK  9 active torsions:
REMARK  status: ('A' for Active; 'I' for Inactive)
REMARK    1  A    between atoms: C_2  and  O_3 
REMARK    2  A    between atoms: O_3  and  C_4 
REMARK    3  A    between atoms: C_7  and  C_8 
REMARK    4  A    between atoms: C_9  and  C_10 
REMARK       I    between atoms: C_10  and  N_11 
REMARK    5  A    between atoms: N_11  and  C_12 
REMARK    6  A    between atoms: C_22  and  S_23 
REMARK    7  A    between atoms: S_23  and  C_24 
REMARK    8  A    between atoms: C_24  and  C_25 
REMARK       I    between atoms: C_25  and  N_26 
REMARK    9  A    between atoms: N_26  and  C_27 
ROOT
HETATM    1  C   UNL     1     -10.211   3.601 -33.197  1.00  0.00     0.104 C 
HETATM    2  C   UNL     1      -9.952   5.093 -33.424  1.00  0.00     0.046 C 
HETATM    3  C   UNL     1      -9.295   5.819 -32.490  1.00  0.00     0.019 C 
HETATM    4  C   UNL     1      -9.156   7.322 -32.486  1.00  0.00     0.069 C 
HETATM    5  N   UNL     1      -8.690   5.169 -31.427  1.00  0.00    -0.353 N 
HETATM    6  C   UNL     1      -8.536   3.795 -31.322  1.00  0.00     0.087 C 
HETATM    7  C   UNL     1      -9.302   3.002 -32.122  1.00  0.00     0.055 C 
HETATM    8  C   UNL     1      -9.283   1.488 -31.980  1.00  0.00     0.019 C 
HETATM    9  N   UNL     1      -9.267   0.233 -31.864  1.00  0.00    -0.096 N 
HETATM   10  H   UNL     1      -8.133   5.767 -30.817  1.00  0.00     0.166 HD
ENDROOT
BRANCH   1  11
HETATM   11  C   UNL     1     -11.678   3.296 -32.889  1.00  0.00    -0.044 A 
HETATM   12  C   UNL     1     -12.329   3.970 -31.843  1.00  0.00     0.011 A 
HETATM   13  C   UNL     1     -13.674   3.714 -31.549  1.00  0.00     0.037 A 
HETATM   14  C   UNL     1     -14.389   2.778 -32.294  1.00  0.00     0.068 A 
HETATM   15  C   UNL     1     -13.752   2.108 -33.339  1.00  0.00     0.037 A 
HETATM   16  C   UNL     1     -12.413   2.369 -33.644  1.00  0.00     0.011 A 
BRANCH  14  17
HETATM   17  O   UNL     1     -15.697   2.426 -32.103  1.00  0.00    -0.352 OA
BRANCH  17  18
HETATM   18  C   UNL     1     -16.635   3.488 -31.939  1.00  0.00     0.171 C 
HETATM   19  C   UNL     1     -18.016   2.944 -32.261  1.00  0.00     0.034 C 
ENDBRANCH  17  18
ENDBRANCH  14  17
ENDBRANCH   1  11
BRANCH   6  20
HETATM   20  S   UNL     1      -7.356   3.017 -30.265  1.00  0.00    -0.102 SA
BRANCH  20  21
HETATM   21  C   UNL     1      -5.873   2.751 -31.249  1.00  0.00     0.184 C 
BRANCH  21  22
HETATM   22  C   UNL     1      -5.638   1.299 -31.616  1.00  0.00     0.231 C 
HETATM   23  N   UNL     1      -5.489   1.052 -32.967  1.00  0.00    -0.326 N 
HETATM   24  H   UNL     1      -5.252   1.852 -33.542  1.00  0.00     0.169 HD
HETATM   25  O   UNL     1      -5.551   0.461 -30.718  1.00  0.00    -0.272 OA
BRANCH  23  26
HETATM   26  C   UNL     1      -5.445  -0.223 -33.580  1.00  0.00     0.040 A 
HETATM   27  C   UNL     1      -6.432  -0.580 -34.522  1.00  0.00    -0.035 A 
HETATM   28  C   UNL     1      -7.498   0.380 -34.977  1.00  0.00     0.050 C 
HETATM   29  C   UNL     1      -6.419  -1.873 -35.077  1.00  0.00     0.009 A 
HETATM   30  C   UNL     1      -5.445  -2.801 -34.712  1.00  0.00     0.001 A 
HETATM   31  C   UNL     1      -4.470  -2.447 -33.789  1.00  0.00     0.002 A 
HETATM   32  C   UNL     1      -4.470  -1.167 -33.229  1.00  0.00     0.030 A 
ENDBRANCH  23  26
ENDBRANCH  21  22
ENDBRANCH  20  21
ENDBRANCH   6  20
BRANCH   2  33
HETATM   33  C   UNL     1     -10.426   5.654 -34.729  1.00  0.00     0.255 C 
HETATM   34  N   UNL     1     -11.593   6.385 -34.605  1.00  0.00    -0.323 N 
HETATM   35  H   UNL     1     -11.986   6.470 -33.677  1.00  0.00     0.169 HD
HETATM   36  O   UNL     1      -9.758   5.511 -35.742  1.00  0.00    -0.268 OA
BRANCH  34  37
HETATM   37  C   UNL     1     -12.352   6.983 -35.633  1.00  0.00     0.035 A 
HETATM   38  C   UNL     1     -12.026   8.195 -36.242  1.00  0.00     0.029 A 
HETATM   39  C   UNL     1     -12.825   8.707 -37.268  1.00  0.00     0.002 A 
HETATM   40  C   UNL     1     -13.951   8.008 -37.701  1.00  0.00     0.000 A 
HETATM   41  C   UNL     1     -14.282   6.796 -37.102  1.00  0.00     0.002 A 
HETATM   42  C   UNL     1     -13.491   6.290 -36.068  1.00  0.00     0.029 A 
ENDBRANCH  34  37
ENDBRANCH   2  33
TORSDOF 9
ENDMDL
