MODEL 1
REMARK VINA RESULT:      -9.2      0.000      0.000
REMARK  6 active torsions:
REMARK  status: ('A' for Active; 'I' for Inactive)
REMARK    1  A    between atoms: C_6  and  C_7 
REMARK    2  A    between atoms: C_7  and  N_8 
REMARK       I    between atoms: N_8  and  C_9 
REMARK    3  A    between atoms: N_8  and  C_19 
REMARK    4  A    between atoms: C_9  and  C_10 
REMARK    5  A    between atoms: C_12  and  O_13 
REMARK    6  A    between atoms: C_19  and  C_20 
ROOT
HETATM    1  N   UNL     1      -7.890   0.915 -33.766  1.00  0.00    -0.341 N 
HETATM    2  C   UNL     1      -7.091   0.341 -34.759  1.00  0.00     0.254 C 
HETATM    3  O   UNL     1      -6.995   0.811 -35.893  1.00  0.00    -0.267 OA
ENDROOT
BRANCH   1   4
HETATM    4  C   UNL     1      -8.574   2.170 -34.104  1.00  0.00     0.170 C 
BRANCH   4   5
HETATM    5  C   UNL     1     -10.053   2.142 -33.835  1.00  0.00     0.029 A 
HETATM    6  C   UNL     1     -10.982   1.363 -34.418  1.00  0.00     0.028 A 
HETATM    7  C   UNL     1     -12.387   1.422 -34.014  1.00  0.00    -0.008 A 
HETATM    8  C   UNL     1     -12.776   2.307 -32.997  1.00  0.00     0.051 A 
HETATM    9  C   UNL     1     -13.343   0.600 -34.615  1.00  0.00     0.014 A 
HETATM   10  C   UNL     1     -14.114   2.379 -32.573  1.00  0.00    -0.034 A 
HETATM   11  N   UNL     1     -11.794   3.120 -32.413  1.00  0.00    -0.322 N 
HETATM   12  C   UNL     1     -14.556   3.306 -31.478  1.00  0.00     0.050 C 
HETATM   13  C   UNL     1     -15.057   1.543 -33.190  1.00  0.00     0.009 A 
HETATM   14  C   UNL     1     -14.674   0.662 -34.203  1.00  0.00     0.002 A 
HETATM   15  C   UNL     1     -10.474   3.103 -32.768  1.00  0.00     0.253 A 
HETATM   16  H   UNL     1     -12.035   3.774 -31.683  1.00  0.00     0.169 HD
HETATM   17  O   UNL     1      -9.669   3.861 -32.231  1.00  0.00    -0.268 OA
ENDBRANCH   4   5
ENDBRANCH   1   4
BRANCH   1  18
HETATM   18  C   UNL     1      -8.225   0.289 -32.475  1.00  0.00     0.158 C 
BRANCH  18  19
HETATM   19  C   UNL     1      -7.516   0.889 -31.250  1.00  0.00     0.139 C 
HETATM   20  O   UNL     1      -6.598   1.918 -31.682  1.00  0.00    -0.384 OA
HETATM   21  C   UNL     1      -5.362   1.749 -30.972  1.00  0.00     0.168 C 
HETATM   22  C   UNL     1      -5.646   0.797 -29.832  1.00  0.00     0.029 C 
HETATM   23  C   UNL     1      -6.692  -0.102 -30.442  1.00  0.00     0.035 C 
ENDBRANCH  18  19
ENDBRANCH   1  18
BRANCH   2  24
HETATM   24  C   UNL     1      -6.308  -0.887 -34.489  1.00  0.00     0.034 A 
HETATM   25  C   UNL     1      -5.172  -0.772 -33.674  1.00  0.00     0.053 A 
HETATM   26  C   UNL     1      -4.430  -1.907 -33.349  1.00  0.00     0.069 A 
HETATM   27  C   UNL     1      -4.818  -3.149 -33.856  1.00  0.00     0.037 A 
HETATM   28  C   UNL     1      -5.968  -3.273 -34.639  1.00  0.00     0.004 A 
HETATM   29  C   UNL     1      -6.729  -2.144 -34.938  1.00  0.00     0.017 A 
BRANCH  26  30
HETATM   30  O   UNL     1      -3.312  -1.928 -32.561  1.00  0.00    -0.356 OA
HETATM   31  C   UNL     1      -3.015  -3.167 -31.923  1.00  0.00     0.210 C 
ENDBRANCH  26  30
ENDBRANCH   2  24
TORSDOF 6
ENDMDL
MODEL 2
REMARK VINA RESULT:      -9.0      4.300      8.126
REMARK  6 active torsions:
REMARK  status: ('A' for Active; 'I' for Inactive)
REMARK    1  A    between atoms: C_6  and  C_7 
REMARK    2  A    between atoms: C_7  and  N_8 
REMARK       I    between atoms: N_8  and  C_9 
REMARK    3  A    between atoms: N_8  and  C_19 
REMARK    4  A    between atoms: C_9  and  C_10 
REMARK    5  A    between atoms: C_12  and  O_13 
REMARK    6  A    between atoms: C_19  and  C_20 
ROOT
HETATM    1  N   UNL     1      -4.102   3.062 -32.111  1.00  0.00    -0.341 N 
HETATM    2  C   UNL     1      -2.853   3.653 -31.894  1.00  0.00     0.254 C 
HETATM    3  O   UNL     1      -2.097   3.299 -30.989  1.00  0.00    -0.267 OA
ENDROOT
BRANCH   1   4
HETATM    4  C   UNL     1      -4.462   1.930 -31.246  1.00  0.00     0.170 C 
BRANCH   4   5
HETATM    5  C   UNL     1      -4.654   0.639 -31.993  1.00  0.00     0.029 A 
HETATM    6  C   UNL     1      -5.700   0.279 -32.758  1.00  0.00     0.028 A 
HETATM    7  C   UNL     1      -5.722  -1.006 -33.461  1.00  0.00    -0.008 A 
HETATM    8  C   UNL     1      -4.630  -1.878 -33.336  1.00  0.00     0.051 A 
HETATM    9  C   UNL     1      -6.805  -1.366 -34.264  1.00  0.00     0.014 A 
HETATM   10  C   UNL     1      -4.611  -3.112 -34.009  1.00  0.00    -0.034 A 
HETATM   11  N   UNL     1      -3.558  -1.488 -32.521  1.00  0.00    -0.322 N 
HETATM   12  C   UNL     1      -3.451  -4.060 -33.905  1.00  0.00     0.050 C 
HETATM   13  C   UNL     1      -5.710  -3.453 -34.812  1.00  0.00     0.009 A 
HETATM   14  C   UNL     1      -6.798  -2.588 -34.937  1.00  0.00     0.002 A 
HETATM   15  C   UNL     1      -3.503  -0.305 -31.841  1.00  0.00     0.253 A 
HETATM   16  H   UNL     1      -2.758  -2.091 -32.402  1.00  0.00     0.169 HD
HETATM   17  O   UNL     1      -2.541  -0.036 -31.124  1.00  0.00    -0.268 OA
ENDBRANCH   4   5
ENDBRANCH   1   4
BRANCH   1  18
HETATM   18  C   UNL     1      -5.140   3.577 -33.020  1.00  0.00     0.158 C 
BRANCH  18  19
HETATM   19  C   UNL     1      -6.181   4.503 -32.370  1.00  0.00     0.139 C 
HETATM   20  O   UNL     1      -7.487   4.215 -32.915  1.00  0.00    -0.384 OA
HETATM   21  C   UNL     1      -8.141   5.460 -33.206  1.00  0.00     0.168 C 
HETATM   22  C   UNL     1      -7.343   6.539 -32.507  1.00  0.00     0.029 C 
HETATM   23  C   UNL     1      -5.943   5.988 -32.600  1.00  0.00     0.035 C 
ENDBRANCH  18  19
ENDBRANCH   1  18
BRANCH   2  24
HETATM   24  C   UNL     1      -2.373   4.755 -32.759  1.00  0.00     0.034 A 
HETATM   25  C   UNL     1      -2.375   6.052 -32.226  1.00  0.00     0.053 A 
HETATM   26  C   UNL     1      -1.885   7.117 -32.982  1.00  0.00     0.069 A 
HETATM   27  C   UNL     1      -1.412   6.879 -34.276  1.00  0.00     0.037 A 
HETATM   28  C   UNL     1      -1.376   5.584 -34.796  1.00  0.00     0.004 A 
HETATM   29  C   UNL     1      -1.835   4.515 -34.028  1.00  0.00     0.017 A 
BRANCH  26  30
HETATM   30  O   UNL     1      -1.827   8.422 -32.576  1.00  0.00    -0.356 OA
HETATM   31  C   UNL     1      -2.468   8.727 -31.342  1.00  0.00     0.210 C 
ENDBRANCH  26  30
ENDBRANCH   2  24
TORSDOF 6
ENDMDL
MODEL 3
REMARK VINA RESULT:      -8.6      3.532      8.028
REMARK  6 active torsions:
REMARK  status: ('A' for Active; 'I' for Inactive)
REMARK    1  A    between atoms: C_6  and  C_7 
REMARK    2  A    between atoms: C_7  and  N_8 
REMARK       I    between atoms: N_8  and  C_9 
REMARK    3  A    between atoms: N_8  and  C_19 
REMARK    4  A    between atoms: C_9  and  C_10 
REMARK    5  A    between atoms: C_12  and  O_13 
REMARK    6  A    between atoms: C_19  and  C_20 
ROOT
HETATM    1  N   UNL     1      -6.097   1.609 -32.135  1.00  0.00    -0.341 N 
HETATM    2  C   UNL     1      -7.358   1.879 -31.596  1.00  0.00     0.254 C 
HETATM    3  O   UNL     1      -7.517   2.300 -30.450  1.00  0.00    -0.267 OA
ENDROOT
BRANCH   1   4
HETATM    4  C   UNL     1      -4.933   1.916 -31.292  1.00  0.00     0.170 C 
BRANCH   4   5
HETATM    5  C   UNL     1      -4.202   3.163 -31.707  1.00  0.00     0.029 A 
HETATM    6  C   UNL     1      -3.356   3.316 -32.741  1.00  0.00     0.028 A 
HETATM    7  C   UNL     1      -2.751   4.615 -33.044  1.00  0.00    -0.008 A 
HETATM    8  C   UNL     1      -3.060   5.723 -32.241  1.00  0.00     0.051 A 
HETATM    9  C   UNL     1      -1.884   4.768 -34.128  1.00  0.00     0.014 A 
HETATM   10  C   UNL     1      -2.510   6.988 -32.512  1.00  0.00    -0.034 A 
HETATM   11  N   UNL     1      -3.933   5.537 -31.160  1.00  0.00    -0.322 N 
HETATM   12  C   UNL     1      -2.833   8.195 -31.680  1.00  0.00     0.050 C 
HETATM   13  C   UNL     1      -1.643   7.119 -33.607  1.00  0.00     0.009 A 
HETATM   14  C   UNL     1      -1.332   6.017 -34.407  1.00  0.00     0.002 A 
HETATM   15  C   UNL     1      -4.510   4.341 -30.837  1.00  0.00     0.253 A 
HETATM   16  H   UNL     1      -4.175   6.309 -30.556  1.00  0.00     0.169 HD
HETATM   17  O   UNL     1      -5.248   4.243 -29.859  1.00  0.00    -0.268 OA
ENDBRANCH   4   5
ENDBRANCH   1   4
BRANCH   1  18
HETATM   18  C   UNL     1      -5.847   0.900 -33.402  1.00  0.00     0.158 C 
BRANCH  18  19
HETATM   19  C   UNL     1      -6.027  -0.625 -33.348  1.00  0.00     0.139 C 
HETATM   20  O   UNL     1      -4.732  -1.264 -33.390  1.00  0.00    -0.384 OA
HETATM   21  C   UNL     1      -4.800  -2.366 -34.308  1.00  0.00     0.168 C 
HETATM   22  C   UNL     1      -6.268  -2.610 -34.579  1.00  0.00     0.029 C 
HETATM   23  C   UNL     1      -6.827  -1.212 -34.502  1.00  0.00     0.035 C 
ENDBRANCH  18  19
ENDBRANCH   1  18
BRANCH   2  24
HETATM   24  C   UNL     1      -8.588   1.667 -32.394  1.00  0.00     0.034 A 
HETATM   25  C   UNL     1      -8.952   2.666 -33.310  1.00  0.00     0.053 A 
HETATM   26  C   UNL     1     -10.073   2.491 -34.121  1.00  0.00     0.069 A 
HETATM   27  C   UNL     1     -10.833   1.325 -34.000  1.00  0.00     0.037 A 
HETATM   28  C   UNL     1     -10.452   0.314 -33.115  1.00  0.00     0.004 A 
HETATM   29  C   UNL     1      -9.314   0.474 -32.327  1.00  0.00     0.017 A 
BRANCH  26  30
HETATM   30  O   UNL     1     -10.527   3.383 -35.054  1.00  0.00    -0.356 OA
HETATM   31  C   UNL     1     -10.089   4.729 -34.904  1.00  0.00     0.210 C 
ENDBRANCH  26  30
ENDBRANCH   2  24
TORSDOF 6
ENDMDL
MODEL 4
REMARK VINA RESULT:      -8.6      3.229      7.034
REMARK  6 active torsions:
REMARK  status: ('A' for Active; 'I' for Inactive)
REMARK    1  A    between atoms: C_6  and  C_7 
REMARK    2  A    between atoms: C_7  and  N_8 
REMARK       I    between atoms: N_8  and  C_9 
REMARK    3  A    between atoms: N_8  and  C_19 
REMARK    4  A    between atoms: C_9  and  C_10 
REMARK    5  A    between atoms: C_12  and  O_13 
REMARK    6  A    between atoms: C_19  and  C_20 
ROOT
HETATM    1  N   UNL     1      -6.523   1.220 -33.101  1.00  0.00    -0.341 N 
HETATM    2  C   UNL     1      -5.852   0.079 -32.649  1.00  0.00     0.254 C 
HETATM    3  O   UNL     1      -5.210   0.055 -31.599  1.00  0.00    -0.267 OA
ENDROOT
BRANCH   1   4
HETATM    4  C   UNL     1      -6.494   2.400 -32.225  1.00  0.00     0.170 C 
BRANCH   4   5
HETATM    5  C   UNL     1      -5.215   3.185 -32.315  1.00  0.00     0.029 A 
HETATM    6  C   UNL     1      -4.648   3.714 -33.414  1.00  0.00     0.028 A 
HETATM    7  C   UNL     1      -3.413   4.496 -33.332  1.00  0.00    -0.008 A 
HETATM    8  C   UNL     1      -2.807   4.699 -32.084  1.00  0.00     0.051 A 
HETATM    9  C   UNL     1      -2.840   5.053 -34.477  1.00  0.00     0.014 A 
HETATM   10  C   UNL     1      -1.630   5.458 -31.967  1.00  0.00    -0.034 A 
HETATM   11  N   UNL     1      -3.407   4.126 -30.954  1.00  0.00    -0.322 N 
HETATM   12  C   UNL     1      -0.966   5.704 -30.642  1.00  0.00     0.050 C 
HETATM   13  C   UNL     1      -1.071   6.010 -33.130  1.00  0.00     0.009 A 
HETATM   14  C   UNL     1      -1.671   5.808 -34.374  1.00  0.00     0.002 A 
HETATM   15  C   UNL     1      -4.552   3.382 -30.987  1.00  0.00     0.253 A 
HETATM   16  H   UNL     1      -2.998   4.245 -30.039  1.00  0.00     0.169 HD
HETATM   17  O   UNL     1      -5.011   2.888 -29.960  1.00  0.00    -0.268 OA
ENDBRANCH   4   5
ENDBRANCH   1   4
BRANCH   1  18
HETATM   18  C   UNL     1      -7.115   1.386 -34.439  1.00  0.00     0.158 C 
BRANCH  18  19
HETATM   19  C   UNL     1      -8.645   1.519 -34.469  1.00  0.00     0.139 C 
HETATM   20  O   UNL     1      -9.011   2.902 -34.264  1.00  0.00    -0.384 OA
HETATM   21  C   UNL     1     -10.099   2.948 -33.328  1.00  0.00     0.168 C 
HETATM   22  C   UNL     1     -10.631   1.537 -33.215  1.00  0.00     0.029 C 
HETATM   23  C   UNL     1      -9.374   0.725 -33.395  1.00  0.00     0.035 C 
ENDBRANCH  18  19
ENDBRANCH   1  18
BRANCH   2  24
HETATM   24  C   UNL     1      -5.884  -1.179 -33.429  1.00  0.00     0.034 A 
HETATM   25  C   UNL     1      -4.680  -1.883 -33.583  1.00  0.00     0.053 A 
HETATM   26  C   UNL     1      -4.666  -3.099 -34.265  1.00  0.00     0.069 A 
HETATM   27  C   UNL     1      -5.854  -3.596 -34.806  1.00  0.00     0.037 A 
HETATM   28  C   UNL     1      -7.060  -2.915 -34.625  1.00  0.00     0.004 A 
HETATM   29  C   UNL     1      -7.081  -1.716 -33.915  1.00  0.00     0.017 A 
BRANCH  26  30
HETATM   30  O   UNL     1      -3.563  -3.882 -34.476  1.00  0.00    -0.356 OA
HETATM   31  C   UNL     1      -3.337  -4.919 -33.527  1.00  0.00     0.210 C 
ENDBRANCH  26  30
ENDBRANCH   2  24
TORSDOF 6
ENDMDL
MODEL 5
REMARK VINA RESULT:      -8.6      3.110      4.937
REMARK  6 active torsions:
REMARK  status: ('A' for Active; 'I' for Inactive)
REMARK    1  A    between atoms: C_6  and  C_7 
REMARK    2  A    between atoms: C_7  and  N_8 
REMARK       I    between atoms: N_8  and  C_9 
REMARK    3  A    between atoms: N_8  and  C_19 
REMARK    4  A    between atoms: C_9  and  C_10 
REMARK    5  A    between atoms: C_12  and  O_13 
REMARK    6  A    between atoms: C_19  and  C_20 
ROOT
HETATM    1  N   UNL     1      -6.219   2.549 -32.623  1.00  0.00    -0.341 N 
HETATM    2  C   UNL     1      -5.872   3.901 -32.542  1.00  0.00     0.254 C 
HETATM    3  O   UNL     1      -6.520   4.718 -31.888  1.00  0.00    -0.267 OA
ENDROOT
BRANCH   1   4
HETATM    4  C   UNL     1      -7.372   2.109 -31.826  1.00  0.00     0.170 C 
BRANCH   4   5
HETATM    5  C   UNL     1      -8.670   2.123 -32.584  1.00  0.00     0.029 A 
HETATM    6  C   UNL     1      -9.080   3.021 -33.498  1.00  0.00     0.028 A 
HETATM    7  C   UNL     1     -10.364   2.874 -34.186  1.00  0.00    -0.008 A 
HETATM    8  C   UNL     1     -11.183   1.774 -33.890  1.00  0.00     0.051 A 
HETATM    9  C   UNL     1     -10.775   3.803 -35.144  1.00  0.00     0.014 A 
HETATM   10  C   UNL     1     -12.414   1.593 -34.543  1.00  0.00    -0.034 A 
HETATM   11  N   UNL     1     -10.742   0.859 -32.923  1.00  0.00    -0.322 N 
HETATM   12  C   UNL     1     -13.306   0.419 -34.256  1.00  0.00     0.050 C 
HETATM   13  C   UNL     1     -12.808   2.539 -35.503  1.00  0.00     0.009 A 
HETATM   14  C   UNL     1     -11.995   3.635 -35.799  1.00  0.00     0.002 A 
HETATM   15  C   UNL     1      -9.558   0.966 -32.251  1.00  0.00     0.253 A 
HETATM   16  H   UNL     1     -11.306   0.059 -32.678  1.00  0.00     0.169 HD
HETATM   17  O   UNL     1      -9.243   0.139 -31.397  1.00  0.00    -0.268 OA
ENDBRANCH   4   5
ENDBRANCH   1   4
BRANCH   1  18
HETATM   18  C   UNL     1      -5.629   1.573 -33.556  1.00  0.00     0.158 C 
BRANCH  18  19
HETATM   19  C   UNL     1      -6.147   0.133 -33.414  1.00  0.00     0.139 C 
HETATM   20  O   UNL     1      -5.030  -0.763 -33.224  1.00  0.00    -0.384 OA
HETATM   21  C   UNL     1      -5.228  -1.916 -34.057  1.00  0.00     0.168 C 
HETATM   22  C   UNL     1      -6.669  -1.875 -34.514  1.00  0.00     0.029 C 
HETATM   23  C   UNL     1      -6.910  -0.390 -34.622  1.00  0.00     0.035 C 
ENDBRANCH  18  19
ENDBRANCH   1  18
BRANCH   2  24
HETATM   24  C   UNL     1      -4.684   4.425 -33.256  1.00  0.00     0.034 A 
HETATM   25  C   UNL     1      -3.458   4.418 -32.575  1.00  0.00     0.053 A 
HETATM   26  C   UNL     1      -2.301   4.853 -33.221  1.00  0.00     0.069 A 
HETATM   27  C   UNL     1      -2.381   5.310 -34.539  1.00  0.00     0.037 A 
HETATM   28  C   UNL     1      -3.594   5.286 -35.230  1.00  0.00     0.004 A 
HETATM   29  C   UNL     1      -4.745   4.820 -34.596  1.00  0.00     0.017 A 
BRANCH  26  30
HETATM   30  O   UNL     1      -1.048   4.888 -32.672  1.00  0.00    -0.356 OA
HETATM   31  C   UNL     1      -0.982   5.118 -31.268  1.00  0.00     0.210 C 
ENDBRANCH  26  30
ENDBRANCH   2  24
TORSDOF 6
ENDMDL
MODEL 6
REMARK VINA RESULT:      -8.5      2.136      3.114
REMARK  6 active torsions:
REMARK  status: ('A' for Active; 'I' for Inactive)
REMARK    1  A    between atoms: C_6  and  C_7 
REMARK    2  A    between atoms: C_7  and  N_8 
REMARK       I    between atoms: N_8  and  C_9 
REMARK    3  A    between atoms: N_8  and  C_19 
REMARK    4  A    between atoms: C_9  and  C_10 
REMARK    5  A    between atoms: C_12  and  O_13 
REMARK    6  A    between atoms: C_19  and  C_20 
ROOT
HETATM    1  N   UNL     1      -6.583   1.557 -32.264  1.00  0.00    -0.341 N 
HETATM    2  C   UNL     1      -6.565   0.246 -31.779  1.00  0.00     0.254 C 
HETATM    3  O   UNL     1      -7.330  -0.151 -30.900  1.00  0.00    -0.267 OA
ENDROOT
BRANCH   1   4
HETATM    4  C   UNL     1      -7.618   2.451 -31.728  1.00  0.00     0.170 C 
BRANCH   4   5
HETATM    5  C   UNL     1      -8.877   2.477 -32.550  1.00  0.00     0.029 A 
HETATM    6  C   UNL     1      -9.801   1.507 -32.671  1.00  0.00     0.028 A 
HETATM    7  C   UNL     1     -11.004   1.700 -33.482  1.00  0.00    -0.008 A 
HETATM    8  C   UNL     1     -11.200   2.921 -34.145  1.00  0.00     0.051 A 
HETATM    9  C   UNL     1     -11.965   0.693 -33.591  1.00  0.00     0.014 A 
HETATM   10  C   UNL     1     -12.352   3.146 -34.919  1.00  0.00    -0.034 A 
HETATM   11  N   UNL     1     -10.217   3.912 -34.017  1.00  0.00    -0.322 N 
HETATM   12  C   UNL     1     -12.595   4.447 -35.629  1.00  0.00     0.050 C 
HETATM   13  C   UNL     1     -13.305   2.121 -35.014  1.00  0.00     0.009 A 
HETATM   14  C   UNL     1     -13.112   0.904 -34.356  1.00  0.00     0.002 A 
HETATM   15  C   UNL     1      -9.076   3.768 -33.279  1.00  0.00     0.253 A 
HETATM   16  H   UNL     1     -10.319   4.801 -34.483  1.00  0.00     0.169 HD
HETATM   17  O   UNL     1      -8.242   4.671 -33.229  1.00  0.00    -0.268 OA
ENDBRANCH   4   5
ENDBRANCH   1   4
BRANCH   1  18
HETATM   18  C   UNL     1      -5.561   2.154 -33.142  1.00  0.00     0.158 C 
BRANCH  18  19
HETATM   19  C   UNL     1      -4.695   3.245 -32.493  1.00  0.00     0.139 C 
HETATM   20  O   UNL     1      -4.188   4.129 -33.518  1.00  0.00    -0.384 OA
HETATM   21  C   UNL     1      -2.798   4.376 -33.255  1.00  0.00     0.168 C 
HETATM   22  C   UNL     1      -2.535   3.899 -31.844  1.00  0.00     0.029 C 
HETATM   23  C   UNL     1      -3.479   2.728 -31.740  1.00  0.00     0.035 C 
ENDBRANCH  18  19
ENDBRANCH   1  18
BRANCH   2  24
HETATM   24  C   UNL     1      -5.603  -0.748 -32.310  1.00  0.00     0.034 A 
HETATM   25  C   UNL     1      -5.947  -1.425 -33.489  1.00  0.00     0.053 A 
HETATM   26  C   UNL     1      -5.054  -2.333 -34.057  1.00  0.00     0.069 A 
HETATM   27  C   UNL     1      -3.828  -2.572 -33.432  1.00  0.00     0.037 A 
HETATM   28  C   UNL     1      -3.468  -1.874 -32.277  1.00  0.00     0.004 A 
HETATM   29  C   UNL     1      -4.346  -0.942 -31.727  1.00  0.00     0.017 A 
BRANCH  26  30
HETATM   30  O   UNL     1      -5.267  -3.049 -35.204  1.00  0.00    -0.356 OA
HETATM   31  C   UNL     1      -6.097  -4.200 -35.082  1.00  0.00     0.210 C 
ENDBRANCH  26  30
ENDBRANCH   2  24
TORSDOF 6
ENDMDL
MODEL 7
REMARK VINA RESULT:      -8.4      1.992      2.541
REMARK  6 active torsions:
REMARK  status: ('A' for Active; 'I' for Inactive)
REMARK    1  A    between atoms: C_6  and  C_7 
REMARK    2  A    between atoms: C_7  and  N_8 
REMARK       I    between atoms: N_8  and  C_9 
REMARK    3  A    between atoms: N_8  and  C_19 
REMARK    4  A    between atoms: C_9  and  C_10 
REMARK    5  A    between atoms: C_12  and  O_13 
REMARK    6  A    between atoms: C_19  and  C_20 
ROOT
HETATM    1  N   UNL     1      -7.478   2.143 -32.863  1.00  0.00    -0.341 N 
HETATM    2  C   UNL     1      -7.438   0.842 -32.354  1.00  0.00     0.254 C 
HETATM    3  O   UNL     1      -8.063   0.499 -31.350  1.00  0.00    -0.267 OA
ENDROOT
BRANCH   1   4
HETATM    4  C   UNL     1      -8.367   3.096 -32.185  1.00  0.00     0.170 C 
BRANCH   4   5
HETATM    5  C   UNL     1      -9.825   2.870 -32.474  1.00  0.00     0.029 A 
HETATM    6  C   UNL     1     -10.364   2.070 -33.412  1.00  0.00     0.028 A 
HETATM    7  C   UNL     1     -11.815   1.922 -33.542  1.00  0.00    -0.008 A 
HETATM    8  C   UNL     1     -12.661   2.626 -32.673  1.00  0.00     0.051 A 
HETATM    9  C   UNL     1     -12.366   1.078 -34.509  1.00  0.00     0.014 A 
HETATM   10  C   UNL     1     -14.058   2.495 -32.760  1.00  0.00    -0.034 A 
HETATM   11  N   UNL     1     -12.078   3.466 -31.714  1.00  0.00    -0.322 N 
HETATM   12  C   UNL     1     -14.988   3.226 -31.835  1.00  0.00     0.050 C 
HETATM   13  C   UNL     1     -14.590   1.641 -33.738  1.00  0.00     0.009 A 
HETATM   14  C   UNL     1     -13.750   0.940 -34.606  1.00  0.00     0.002 A 
HETATM   15  C   UNL     1     -10.731   3.640 -31.566  1.00  0.00     0.253 A 
HETATM   16  H   UNL     1     -12.653   3.994 -31.075  1.00  0.00     0.169 HD
HETATM   17  O   UNL     1     -10.287   4.412 -30.717  1.00  0.00    -0.268 OA
ENDBRANCH   4   5
ENDBRANCH   1   4
BRANCH   1  18
HETATM   18  C   UNL     1      -6.591   2.675 -33.912  1.00  0.00     0.158 C 
BRANCH  18  19
HETATM   19  C   UNL     1      -5.765   3.907 -33.513  1.00  0.00     0.139 C 
HETATM   20  O   UNL     1      -5.525   4.724 -34.679  1.00  0.00    -0.384 OA
HETATM   21  C   UNL     1      -4.148   5.133 -34.671  1.00  0.00     0.168 C 
HETATM   22  C   UNL     1      -3.619   4.834 -33.286  1.00  0.00     0.029 C 
HETATM   23  C   UNL     1      -4.396   3.593 -32.926  1.00  0.00     0.035 C 
ENDBRANCH  18  19
ENDBRANCH   1  18
BRANCH   2  24
HETATM   24  C   UNL     1      -6.624  -0.207 -33.011  1.00  0.00     0.034 A 
HETATM   25  C   UNL     1      -5.386  -0.529 -32.437  1.00  0.00     0.053 A 
HETATM   26  C   UNL     1      -4.605  -1.544 -32.988  1.00  0.00     0.069 A 
HETATM   27  C   UNL     1      -5.060  -2.220 -34.124  1.00  0.00     0.037 A 
HETATM   28  C   UNL     1      -6.308  -1.925 -34.678  1.00  0.00     0.004 A 
HETATM   29  C   UNL     1      -7.103  -0.933 -34.107  1.00  0.00     0.017 A 
BRANCH  26  30
HETATM   30  O   UNL     1      -3.387  -1.957 -32.519  1.00  0.00    -0.356 OA
HETATM   31  C   UNL     1      -2.613  -0.978 -31.834  1.00  0.00     0.210 C 
ENDBRANCH  26  30
ENDBRANCH   2  24
TORSDOF 6
ENDMDL
MODEL 8
REMARK VINA RESULT:      -8.2      3.239      7.541
REMARK  6 active torsions:
REMARK  status: ('A' for Active; 'I' for Inactive)
REMARK    1  A    between atoms: C_6  and  C_7 
REMARK    2  A    between atoms: C_7  and  N_8 
REMARK       I    between atoms: N_8  and  C_9 
REMARK    3  A    between atoms: N_8  and  C_19 
REMARK    4  A    between atoms: C_9  and  C_10 
REMARK    5  A    between atoms: C_12  and  O_13 
REMARK    6  A    between atoms: C_19  and  C_20 
ROOT
HETATM    1  N   UNL     1      -6.366   2.349 -32.214  1.00  0.00    -0.341 N 
HETATM    2  C   UNL     1      -5.411   2.866 -31.334  1.00  0.00     0.254 C 
HETATM    3  O   UNL     1      -5.181   2.369 -30.232  1.00  0.00    -0.267 OA
ENDROOT
BRANCH   1   4
HETATM    4  C   UNL     1      -7.055   1.119 -31.800  1.00  0.00     0.170 C 
BRANCH   4   5
HETATM    5  C   UNL     1      -6.537  -0.119 -32.478  1.00  0.00     0.029 A 
HETATM    6  C   UNL     1      -5.365  -0.746 -32.264  1.00  0.00     0.028 A 
HETATM    7  C   UNL     1      -5.020  -1.976 -32.979  1.00  0.00    -0.008 A 
HETATM    8  C   UNL     1      -5.927  -2.514 -33.904  1.00  0.00     0.051 A 
HETATM    9  C   UNL     1      -3.808  -2.627 -32.741  1.00  0.00     0.014 A 
HETATM   10  C   UNL     1      -5.634  -3.702 -34.596  1.00  0.00    -0.034 A 
HETATM   11  N   UNL     1      -7.135  -1.837 -34.121  1.00  0.00    -0.322 N 
HETATM   12  C   UNL     1      -6.591  -4.310 -35.581  1.00  0.00     0.050 C 
HETATM   13  C   UNL     1      -4.411  -4.341 -34.340  1.00  0.00     0.009 A 
HETATM   14  C   UNL     1      -3.505  -3.806 -33.422  1.00  0.00     0.002 A 
HETATM   15  C   UNL     1      -7.491  -0.682 -33.484  1.00  0.00     0.253 A 
HETATM   16  H   UNL     1      -7.811  -2.190 -34.782  1.00  0.00     0.169 HD
HETATM   17  O   UNL     1      -8.558  -0.126 -33.740  1.00  0.00    -0.268 OA
ENDBRANCH   4   5
ENDBRANCH   1   4
BRANCH   1  18
HETATM   18  C   UNL     1      -6.848   3.015 -33.436  1.00  0.00     0.158 C 
BRANCH  18  19
HETATM   19  C   UNL     1      -8.120   3.860 -33.265  1.00  0.00     0.139 C 
HETATM   20  O   UNL     1      -9.213   3.233 -33.972  1.00  0.00    -0.384 OA
HETATM   21  C   UNL     1      -9.927   4.248 -34.694  1.00  0.00     0.168 C 
HETATM   22  C   UNL     1      -9.460   5.577 -34.145  1.00  0.00     0.029 C 
HETATM   23  C   UNL     1      -8.021   5.277 -33.811  1.00  0.00     0.035 C 
ENDBRANCH  18  19
ENDBRANCH   1  18
BRANCH   2  24
HETATM   24  C   UNL     1      -4.616   4.063 -31.693  1.00  0.00     0.034 A 
HETATM   25  C   UNL     1      -3.423   3.866 -32.403  1.00  0.00     0.053 A 
HETATM   26  C   UNL     1      -2.664   4.963 -32.810  1.00  0.00     0.069 A 
HETATM   27  C   UNL     1      -3.095   6.253 -32.487  1.00  0.00     0.037 A 
HETATM   28  C   UNL     1      -4.301   6.454 -31.811  1.00  0.00     0.004 A 
HETATM   29  C   UNL     1      -5.076   5.359 -31.434  1.00  0.00     0.017 A 
BRANCH  26  30
HETATM   30  O   UNL     1      -1.490   4.905 -33.510  1.00  0.00    -0.356 OA
HETATM   31  C   UNL     1      -1.560   5.263 -34.887  1.00  0.00     0.210 C 
ENDBRANCH  26  30
ENDBRANCH   2  24
TORSDOF 6
ENDMDL
MODEL 9
REMARK VINA RESULT:      -8.2      4.004      7.624
REMARK  6 active torsions:
REMARK  status: ('A' for Active; 'I' for Inactive)
REMARK    1  A    between atoms: C_6  and  C_7 
REMARK    2  A    between atoms: C_7  and  N_8 
REMARK       I    between atoms: N_8  and  C_9 
REMARK    3  A    between atoms: N_8  and  C_19 
REMARK    4  A    between atoms: C_9  and  C_10 
REMARK    5  A    between atoms: C_12  and  O_13 
REMARK    6  A    between atoms: C_19  and  C_20 
ROOT
HETATM    1  N   UNL     1      -5.735   2.408 -32.642  1.00  0.00    -0.341 N 
HETATM    2  C   UNL     1      -4.773   2.773 -31.695  1.00  0.00     0.254 C 
HETATM    3  O   UNL     1      -4.704   2.253 -30.581  1.00  0.00    -0.267 OA
ENDROOT
BRANCH   1   4
HETATM    4  C   UNL     1      -6.640   1.308 -32.283  1.00  0.00     0.170 C 
BRANCH   4   5
HETATM    5  C   UNL     1      -6.223  -0.023 -32.845  1.00  0.00     0.029 A 
HETATM    6  C   UNL     1      -5.108  -0.722 -32.565  1.00  0.00     0.028 A 
HETATM    7  C   UNL     1      -4.863  -2.034 -33.166  1.00  0.00    -0.008 A 
HETATM    8  C   UNL     1      -5.808  -2.575 -34.051  1.00  0.00     0.051 A 
HETATM    9  C   UNL     1      -3.710  -2.760 -32.859  1.00  0.00     0.014 A 
HETATM   10  C   UNL     1      -5.612  -3.839 -34.634  1.00  0.00    -0.034 A 
HETATM   11  N   UNL     1      -6.954  -1.822 -34.340  1.00  0.00    -0.322 N 
HETATM   12  C   UNL     1      -6.611  -4.449 -35.574  1.00  0.00     0.050 C 
HETATM   13  C   UNL     1      -4.447  -4.551 -34.311  1.00  0.00     0.009 A 
HETATM   14  C   UNL     1      -3.504  -4.015 -33.431  1.00  0.00     0.002 A 
HETATM   15  C   UNL     1      -7.216  -0.590 -33.809  1.00  0.00     0.253 A 
HETATM   16  H   UNL     1      -7.654  -2.174 -34.976  1.00  0.00     0.169 HD
HETATM   17  O   UNL     1      -8.232   0.027 -34.124  1.00  0.00    -0.268 OA
ENDBRANCH   4   5
ENDBRANCH   1   4
BRANCH   1  18
HETATM   18  C   UNL     1      -6.016   3.134 -33.893  1.00  0.00     0.158 C 
BRANCH  18  19
HETATM   19  C   UNL     1      -6.953   4.344 -33.753  1.00  0.00     0.139 C 
HETATM   20  O   UNL     1      -6.169   5.556 -33.701  1.00  0.00    -0.384 OA
HETATM   21  C   UNL     1      -6.692   6.389 -32.655  1.00  0.00     0.168 C 
HETATM   22  C   UNL     1      -8.040   5.817 -32.282  1.00  0.00     0.029 C 
HETATM   23  C   UNL     1      -7.813   4.342 -32.498  1.00  0.00     0.035 C 
ENDBRANCH  18  19
ENDBRANCH   1  18
BRANCH   2  24
HETATM   24  C   UNL     1      -3.773   3.824 -31.993  1.00  0.00     0.034 A 
HETATM   25  C   UNL     1      -3.801   4.991 -31.216  1.00  0.00     0.053 A 
HETATM   26  C   UNL     1      -2.848   5.989 -31.423  1.00  0.00     0.069 A 
HETATM   27  C   UNL     1      -1.885   5.821 -32.421  1.00  0.00     0.037 A 
HETATM   28  C   UNL     1      -1.833   4.645 -33.173  1.00  0.00     0.004 A 
HETATM   29  C   UNL     1      -2.765   3.633 -32.944  1.00  0.00     0.017 A 
BRANCH  26  30
HETATM   30  O   UNL     1      -2.763   7.166 -30.730  1.00  0.00    -0.356 OA
HETATM   31  C   UNL     1      -3.031   7.094 -29.333  1.00  0.00     0.210 C 
ENDBRANCH  26  30
ENDBRANCH   2  24
TORSDOF 6
ENDMDL
MODEL 10
REMARK VINA RESULT:      -8.1      4.141      8.421
REMARK  6 active torsions:
REMARK  status: ('A' for Active; 'I' for Inactive)
REMARK    1  A    between atoms: C_6  and  C_7 
REMARK    2  A    between atoms: C_7  and  N_8 
REMARK       I    between atoms: N_8  and  C_9 
REMARK    3  A    between atoms: N_8  and  C_19 
REMARK    4  A    between atoms: C_9  and  C_10 
REMARK    5  A    between atoms: C_12  and  O_13 
REMARK    6  A    between atoms: C_19  and  C_20 
ROOT
HETATM    1  N   UNL     1      -4.168   3.541 -31.744  1.00  0.00    -0.341 N 
HETATM    2  C   UNL     1      -5.129   4.117 -30.907  1.00  0.00     0.254 C 
HETATM    3  O   UNL     1      -5.487   3.600 -29.849  1.00  0.00    -0.267 OA
ENDROOT
BRANCH   1   4
HETATM    4  C   UNL     1      -3.532   2.303 -31.274  1.00  0.00     0.170 C 
BRANCH   4   5
HETATM    5  C   UNL     1      -4.002   1.072 -31.998  1.00  0.00     0.029 A 
HETATM    6  C   UNL     1      -5.077   0.946 -32.797  1.00  0.00     0.028 A 
HETATM    7  C   UNL     1      -5.381  -0.318 -33.469  1.00  0.00    -0.008 A 
HETATM    8  C   UNL     1      -4.535  -1.422 -33.279  1.00  0.00     0.051 A 
HETATM    9  C   UNL     1      -6.491  -0.436 -34.308  1.00  0.00     0.014 A 
HETATM   10  C   UNL     1      -4.788  -2.646 -33.922  1.00  0.00    -0.034 A 
HETATM   11  N   UNL     1      -3.430  -1.272 -32.430  1.00  0.00    -0.322 N 
HETATM   12  C   UNL     1      -3.894  -3.839 -33.748  1.00  0.00     0.050 C 
HETATM   13  C   UNL     1      -5.909  -2.741 -34.761  1.00  0.00     0.009 A 
HETATM   14  C   UNL     1      -6.753  -1.645 -34.952  1.00  0.00     0.002 A 
HETATM   15  C   UNL     1      -3.116  -0.114 -31.776  1.00  0.00     0.253 A 
HETATM   16  H   UNL     1      -2.801  -2.044 -32.264  1.00  0.00     0.169 HD
HETATM   17  O   UNL     1      -2.143  -0.059 -31.026  1.00  0.00    -0.268 OA
ENDBRANCH   4   5
ENDBRANCH   1   4
BRANCH   1  18
HETATM   18  C   UNL     1      -3.859   3.982 -33.115  1.00  0.00     0.158 C 
BRANCH  18  19
HETATM   19  C   UNL     1      -2.410   4.440 -33.347  1.00  0.00     0.139 C 
HETATM   20  O   UNL     1      -2.103   5.533 -32.454  1.00  0.00    -0.384 OA
HETATM   21  C   UNL     1      -1.408   6.545 -33.198  1.00  0.00     0.168 C 
HETATM   22  C   UNL     1      -0.984   5.906 -34.501  1.00  0.00     0.029 C 
HETATM   23  C   UNL     1      -2.120   4.948 -34.752  1.00  0.00     0.035 C 
ENDBRANCH  18  19
ENDBRANCH   1  18
BRANCH   2  24
HETATM   24  C   UNL     1      -5.775   5.401 -31.263  1.00  0.00     0.034 A 
HETATM   25  C   UNL     1      -6.970   5.350 -31.995  1.00  0.00     0.053 A 
HETATM   26  C   UNL     1      -7.644   6.530 -32.311  1.00  0.00     0.069 A 
HETATM   27  C   UNL     1      -7.108   7.756 -31.908  1.00  0.00     0.037 A 
HETATM   28  C   UNL     1      -5.936   7.807 -31.150  1.00  0.00     0.004 A 
HETATM   29  C   UNL     1      -5.280   6.627 -30.805  1.00  0.00     0.017 A 
BRANCH  26  30
HETATM   30  O   UNL     1      -8.817   6.614 -33.011  1.00  0.00    -0.356 OA
HETATM   31  C   UNL     1      -9.196   5.455 -33.746  1.00  0.00     0.210 C 
ENDBRANCH  26  30
ENDBRANCH   2  24
TORSDOF 6
ENDMDL
