MODEL 1
REMARK VINA RESULT:      -9.9      0.000      0.000
REMARK  7 active torsions:
REMARK  status: ('A' for Active; 'I' for Inactive)
REMARK    1  A    between atoms: C_2  and  C_3 
REMARK    2  A    between atoms: C_7  and  N_8 
REMARK    3  A    between atoms: C_10  and  C_11 
REMARK    4  A    between atoms: C_17  and  N_18 
REMARK       I    between atoms: N_18  and  C_19 
REMARK    5  A    between atoms: C_19  and  C_20 
REMARK    6  A    between atoms: C_20  and  O_21 
REMARK    7  A    between atoms: O_21  and  C_22 
ROOT
HETATM    1  N   UNL     1      -8.158   4.257 -33.620  1.00  0.00    -0.044 N 
HETATM    2  N   UNL     1      -8.577   5.291 -34.412  1.00  0.00    -0.148 NA
HETATM    3  C   UNL     1      -9.911   5.236 -34.352  1.00  0.00     0.115 A 
HETATM    4  C   UNL     1     -10.366   4.193 -33.522  1.00  0.00     0.087 A 
HETATM    5  C   UNL     1      -9.231   3.535 -33.108  1.00  0.00     0.152 A 
ENDROOT
BRANCH   5   6
HETATM    6  N   UNL     1      -9.275   2.467 -32.226  1.00  0.00    -0.309 N 
HETATM    7  C   UNL     1      -8.876   1.116 -32.503  1.00  0.00     0.247 C 
HETATM    8  O   UNL     1      -8.649   0.433 -31.513  1.00  0.00    -0.271 OA
HETATM    9  H   UNL     1      -9.661   2.608 -31.300  1.00  0.00     0.170 HD
BRANCH   7  10
HETATM   10  C   UNL     1      -8.955   0.566 -33.914  1.00  0.00     0.278 C 
BRANCH  10  11
HETATM   11  O   UNL     1      -7.681   0.780 -34.518  1.00  0.00    -0.342 OA
BRANCH  11  12
HETATM   12  C   UNL     1      -6.728  -0.178 -34.298  1.00  0.00     0.070 A 
HETATM   13  C   UNL     1      -7.080  -1.463 -34.720  1.00  0.00     0.049 A 
HETATM   14  C   UNL     1      -6.201  -2.549 -34.557  1.00  0.00    -0.023 A 
HETATM   15  C   UNL     1      -4.940  -2.331 -33.962  1.00  0.00    -0.026 A 
HETATM   16  C   UNL     1      -6.549  -3.846 -34.972  1.00  0.00     0.012 A 
HETATM   17  C   UNL     1      -4.595  -1.036 -33.548  1.00  0.00     0.015 A 
HETATM   18  C   UNL     1      -4.059  -3.413 -33.797  1.00  0.00     0.012 A 
HETATM   19  C   UNL     1      -5.480   0.034 -33.715  1.00  0.00     0.037 A 
HETATM   20  C   UNL     1      -4.419  -4.694 -34.215  1.00  0.00     0.001 A 
HETATM   21  C   UNL     1      -5.663  -4.911 -34.801  1.00  0.00     0.001 A 
ENDBRANCH  11  12
ENDBRANCH  10  11
ENDBRANCH   7  10
ENDBRANCH   5   6
BRANCH   1  22
HETATM   22  C   UNL     1      -6.782   4.126 -33.359  1.00  0.00     0.732 A 
HETATM   23  N   UNL     1      -6.028   4.787 -34.283  1.00  0.00    -0.152 N 
HETATM   24  C   UNL     1      -4.675   4.847 -34.188  1.00  0.00     0.268 A 
HETATM   25  H   UNL     1      -6.481   5.324 -35.017  1.00  0.00     0.188 HD
HETATM   26  C   UNL     1      -4.077   4.038 -33.088  1.00  0.00     0.035 A 
HETATM   27  O   UNL     1      -4.004   5.522 -34.957  1.00  0.00    -0.267 OA
HETATM   28  C   UNL     1      -4.927   3.398 -32.255  1.00  0.00     0.061 A 
HETATM   29  N   UNL     1      -6.305   3.458 -32.362  1.00  0.00    -0.067 NA
HETATM   30  C   UNL     1      -4.460   2.547 -31.100  1.00  0.00     0.072 C 
BRANCH  26  31
HETATM   31  C   UNL     1      -2.571   3.989 -33.059  1.00  0.00     0.042 C 
HETATM   32  C   UNL     1      -1.980   5.031 -32.122  1.00  0.00     0.010 C 
ENDBRANCH  26  31
ENDBRANCH   1  22
BRANCH   3  33
HETATM   33  C   UNL     1     -10.793   6.183 -35.092  1.00  0.00     0.105 A 
HETATM   34  O   UNL     1     -10.356   7.337 -35.683  1.00  0.00    -0.320 OA
HETATM   35  C   UNL     1     -11.439   7.944 -36.232  1.00  0.00     0.142 A 
HETATM   36  C   UNL     1     -12.570   7.191 -36.023  1.00  0.00     0.027 A 
HETATM   37  C   UNL     1     -12.155   6.056 -35.285  1.00  0.00     0.041 A 
ENDBRANCH   3  33
TORSDOF 7
ENDMDL
MODEL 2
REMARK VINA RESULT:      -9.8      3.189      7.056
REMARK  7 active torsions:
REMARK  status: ('A' for Active; 'I' for Inactive)
REMARK    1  A    between atoms: C_2  and  C_3 
REMARK    2  A    between atoms: C_7  and  N_8 
REMARK    3  A    between atoms: C_10  and  C_11 
REMARK    4  A    between atoms: C_17  and  N_18 
REMARK       I    between atoms: N_18  and  C_19 
REMARK    5  A    between atoms: C_19  and  C_20 
REMARK    6  A    between atoms: C_20  and  O_21 
REMARK    7  A    between atoms: O_21  and  C_22 
ROOT
HETATM    1  N   UNL     1      -7.928  -0.069 -32.773  1.00  0.00    -0.044 N 
HETATM    2  N   UNL     1      -9.038  -0.185 -33.562  1.00  0.00    -0.148 NA
HETATM    3  C   UNL     1      -9.870   0.757 -33.107  1.00  0.00     0.115 A 
HETATM    4  C   UNL     1      -9.310   1.494 -32.046  1.00  0.00     0.087 A 
HETATM    5  C   UNL     1      -8.088   0.913 -31.802  1.00  0.00     0.152 A 
ENDROOT
BRANCH   5   6
HETATM    6  N   UNL     1      -7.213   1.403 -30.846  1.00  0.00    -0.309 N 
HETATM    7  C   UNL     1      -6.369   2.557 -30.973  1.00  0.00     0.247 C 
HETATM    8  O   UNL     1      -5.964   3.019 -29.915  1.00  0.00    -0.271 OA
HETATM    9  H   UNL     1      -7.101   0.897 -29.974  1.00  0.00     0.170 HD
BRANCH   7  10
HETATM   10  C   UNL     1      -5.871   2.997 -32.337  1.00  0.00     0.278 C 
BRANCH  10  11
HETATM   11  O   UNL     1      -4.482   2.679 -32.399  1.00  0.00    -0.342 OA
BRANCH  11  12
HETATM   12  C   UNL     1      -3.618   3.729 -32.554  1.00  0.00     0.070 A 
HETATM   13  C   UNL     1      -2.628   3.824 -31.572  1.00  0.00     0.049 A 
HETATM   14  C   UNL     1      -1.670   4.853 -31.600  1.00  0.00    -0.023 A 
HETATM   15  C   UNL     1      -1.710   5.801 -32.645  1.00  0.00    -0.026 A 
HETATM   16  C   UNL     1      -0.675   4.960 -30.614  1.00  0.00     0.012 A 
HETATM   17  C   UNL     1      -2.704   5.693 -33.629  1.00  0.00     0.015 A 
HETATM   18  C   UNL     1      -0.755   6.831 -32.678  1.00  0.00     0.012 A 
HETATM   19  C   UNL     1      -3.651   4.665 -33.586  1.00  0.00     0.037 A 
HETATM   20  C   UNL     1       0.227   6.924 -31.691  1.00  0.00     0.001 A 
HETATM   21  C   UNL     1       0.267   5.989 -30.660  1.00  0.00     0.001 A 
ENDBRANCH  11  12
ENDBRANCH  10  11
ENDBRANCH   7  10
ENDBRANCH   5   6
BRANCH   1  22
HETATM   22  C   UNL     1      -6.795  -0.841 -33.090  1.00  0.00     0.732 A 
HETATM   23  N   UNL     1      -7.101  -1.860 -33.943  1.00  0.00    -0.152 N 
HETATM   24  C   UNL     1      -6.146  -2.692 -34.432  1.00  0.00     0.268 A 
HETATM   25  H   UNL     1      -8.048  -1.958 -34.297  1.00  0.00     0.188 HD
HETATM   26  C   UNL     1      -4.780  -2.492 -33.871  1.00  0.00     0.035 A 
HETATM   27  O   UNL     1      -6.402  -3.543 -35.273  1.00  0.00    -0.267 OA
HETATM   28  C   UNL     1      -4.606  -1.468 -33.007  1.00  0.00     0.061 A 
HETATM   29  N   UNL     1      -5.614  -0.602 -32.624  1.00  0.00    -0.067 NA
HETATM   30  C   UNL     1      -3.278  -1.150 -32.366  1.00  0.00     0.072 C 
BRANCH  26  31
HETATM   31  C   UNL     1      -3.744  -3.498 -34.305  1.00  0.00     0.042 C 
HETATM   32  C   UNL     1      -3.695  -4.706 -33.381  1.00  0.00     0.010 C 
ENDBRANCH  26  31
ENDBRANCH   1  22
BRANCH   3  33
HETATM   33  C   UNL     1     -11.229   0.980 -33.677  1.00  0.00     0.105 A 
HETATM   34  O   UNL     1     -12.305   0.169 -33.437  1.00  0.00    -0.320 OA
HETATM   35  C   UNL     1     -13.352   0.670 -34.141  1.00  0.00     0.142 A 
HETATM   36  C   UNL     1     -12.977   1.806 -34.819  1.00  0.00     0.027 A 
HETATM   37  C   UNL     1     -11.607   2.005 -34.523  1.00  0.00     0.041 A 
ENDBRANCH   3  33
TORSDOF 7
ENDMDL
MODEL 3
REMARK VINA RESULT:      -9.6      2.858      8.250
REMARK  7 active torsions:
REMARK  status: ('A' for Active; 'I' for Inactive)
REMARK    1  A    between atoms: C_2  and  C_3 
REMARK    2  A    between atoms: C_7  and  N_8 
REMARK    3  A    between atoms: C_10  and  C_11 
REMARK    4  A    between atoms: C_17  and  N_18 
REMARK       I    between atoms: N_18  and  C_19 
REMARK    5  A    between atoms: C_19  and  C_20 
REMARK    6  A    between atoms: C_20  and  O_21 
REMARK    7  A    between atoms: O_21  and  C_22 
ROOT
HETATM    1  N   UNL     1      -9.348   0.812 -32.803  1.00  0.00    -0.044 N 
HETATM    2  N   UNL     1      -8.655  -0.104 -33.544  1.00  0.00    -0.148 NA
HETATM    3  C   UNL     1      -7.479  -0.217 -32.918  1.00  0.00     0.115 A 
HETATM    4  C   UNL     1      -7.405   0.598 -31.772  1.00  0.00     0.087 A 
HETATM    5  C   UNL     1      -8.587   1.299 -31.745  1.00  0.00     0.152 A 
ENDROOT
BRANCH   5   6
HETATM    6  N   UNL     1      -8.904   2.179 -30.722  1.00  0.00    -0.309 N 
HETATM    7  C   UNL     1      -8.936   3.611 -30.808  1.00  0.00     0.247 C 
HETATM    8  O   UNL     1      -9.580   4.166 -29.927  1.00  0.00    -0.271 OA
HETATM    9  H   UNL     1      -9.094   1.811 -29.797  1.00  0.00     0.170 HD
BRANCH   7  10
HETATM   10  C   UNL     1      -8.050   4.341 -31.800  1.00  0.00     0.278 C 
BRANCH  10  11
HETATM   11  O   UNL     1      -6.699   4.045 -31.451  1.00  0.00    -0.342 OA
BRANCH  11  12
HETATM   12  C   UNL     1      -5.744   4.347 -32.384  1.00  0.00     0.070 A 
HETATM   13  C   UNL     1      -4.460   4.539 -31.867  1.00  0.00     0.049 A 
HETATM   14  C   UNL     1      -3.377   4.856 -32.705  1.00  0.00    -0.023 A 
HETATM   15  C   UNL     1      -3.595   4.978 -34.095  1.00  0.00    -0.026 A 
HETATM   16  C   UNL     1      -2.084   5.057 -32.194  1.00  0.00     0.012 A 
HETATM   17  C   UNL     1      -4.887   4.778 -34.603  1.00  0.00     0.015 A 
HETATM   18  C   UNL     1      -2.516   5.295 -34.936  1.00  0.00     0.012 A 
HETATM   19  C   UNL     1      -5.954   4.463 -33.756  1.00  0.00     0.037 A 
HETATM   20  C   UNL     1      -1.238   5.491 -34.414  1.00  0.00     0.001 A 
HETATM   21  C   UNL     1      -1.022   5.372 -33.043  1.00  0.00     0.001 A 
ENDBRANCH  11  12
ENDBRANCH  10  11
ENDBRANCH   7  10
ENDBRANCH   5   6
BRANCH   1  22
HETATM   22  C   UNL     1     -10.696   1.056 -33.125  1.00  0.00     0.732 A 
HETATM   23  N   UNL     1     -11.420  -0.099 -33.172  1.00  0.00    -0.152 N 
HETATM   24  C   UNL     1     -12.758  -0.093 -33.402  1.00  0.00     0.268 A 
HETATM   25  H   UNL     1     -10.977  -0.984 -32.946  1.00  0.00     0.188 HD
HETATM   26  C   UNL     1     -13.342   1.239 -33.725  1.00  0.00     0.035 A 
HETATM   27  O   UNL     1     -13.426  -1.116 -33.346  1.00  0.00    -0.267 OA
HETATM   28  C   UNL     1     -12.517   2.308 -33.679  1.00  0.00     0.061 A 
HETATM   29  N   UNL     1     -11.176   2.234 -33.347  1.00  0.00    -0.067 NA
HETATM   30  C   UNL     1     -12.974   3.714 -33.982  1.00  0.00     0.072 C 
BRANCH  26  31
HETATM   31  C   UNL     1     -14.798   1.235 -34.116  1.00  0.00     0.042 C 
HETATM   32  C   UNL     1     -15.697   1.717 -32.988  1.00  0.00     0.010 C 
ENDBRANCH  26  31
ENDBRANCH   1  22
BRANCH   3  33
HETATM   33  C   UNL     1      -6.390  -1.113 -33.400  1.00  0.00     0.105 A 
HETATM   34  O   UNL     1      -5.114  -1.107 -32.906  1.00  0.00    -0.320 OA
HETATM   35  C   UNL     1      -4.407  -2.032 -33.604  1.00  0.00     0.142 A 
HETATM   36  C   UNL     1      -5.209  -2.653 -34.530  1.00  0.00     0.027 A 
HETATM   37  C   UNL     1      -6.488  -2.059 -34.402  1.00  0.00     0.041 A 
ENDBRANCH   3  33
TORSDOF 7
ENDMDL
MODEL 4
REMARK VINA RESULT:      -9.4      1.273      5.264
REMARK  7 active torsions:
REMARK  status: ('A' for Active; 'I' for Inactive)
REMARK    1  A    between atoms: C_2  and  C_3 
REMARK    2  A    between atoms: C_7  and  N_8 
REMARK    3  A    between atoms: C_10  and  C_11 
REMARK    4  A    between atoms: C_17  and  N_18 
REMARK       I    between atoms: N_18  and  C_19 
REMARK    5  A    between atoms: C_19  and  C_20 
REMARK    6  A    between atoms: C_20  and  O_21 
REMARK    7  A    between atoms: O_21  and  C_22 
ROOT
HETATM    1  N   UNL     1      -6.987   4.628 -32.919  1.00  0.00    -0.044 N 
HETATM    2  N   UNL     1      -6.060   5.411 -33.548  1.00  0.00    -0.148 NA
HETATM    3  C   UNL     1      -4.884   4.881 -33.199  1.00  0.00     0.115 A 
HETATM    4  C   UNL     1      -5.033   3.755 -32.366  1.00  0.00     0.087 A 
HETATM    5  C   UNL     1      -6.386   3.640 -32.145  1.00  0.00     0.152 A 
ENDROOT
BRANCH   5   6
HETATM    6  N   UNL     1      -6.930   2.606 -31.401  1.00  0.00    -0.309 N 
HETATM    7  C   UNL     1      -7.352   1.328 -31.898  1.00  0.00     0.247 C 
HETATM    8  O   UNL     1      -7.452   0.452 -31.049  1.00  0.00    -0.271 OA
HETATM    9  H   UNL     1      -7.100   2.748 -30.412  1.00  0.00     0.170 HD
BRANCH   7  10
HETATM   10  C   UNL     1      -7.832   1.181 -33.330  1.00  0.00     0.278 C 
BRANCH  10  11
HETATM   11  O   UNL     1      -6.671   1.073 -34.151  1.00  0.00    -0.342 OA
BRANCH  11  12
HETATM   12  C   UNL     1      -5.955  -0.090 -34.054  1.00  0.00     0.070 A 
HETATM   13  C   UNL     1      -6.600  -1.220 -34.563  1.00  0.00     0.049 A 
HETATM   14  C   UNL     1      -5.988  -2.486 -34.531  1.00  0.00    -0.023 A 
HETATM   15  C   UNL     1      -4.695  -2.610 -33.977  1.00  0.00    -0.026 A 
HETATM   16  C   UNL     1      -6.631  -3.628 -35.035  1.00  0.00     0.012 A 
HETATM   17  C   UNL     1      -4.055  -1.468 -33.473  1.00  0.00     0.015 A 
HETATM   18  C   UNL     1      -4.079  -3.872 -33.942  1.00  0.00     0.012 A 
HETATM   19  C   UNL     1      -4.678  -0.216 -33.512  1.00  0.00     0.037 A 
HETATM   20  C   UNL     1      -4.730  -4.997 -34.447  1.00  0.00     0.001 A 
HETATM   21  C   UNL     1      -6.006  -4.875 -34.993  1.00  0.00     0.001 A 
ENDBRANCH  11  12
ENDBRANCH  10  11
ENDBRANCH   7  10
ENDBRANCH   5   6
BRANCH   1  22
HETATM   22  C   UNL     1      -8.350   4.843 -33.199  1.00  0.00     0.732 A 
HETATM   23  N   UNL     1      -8.522   5.594 -34.323  1.00  0.00    -0.152 N 
HETATM   24  C   UNL     1      -9.756   5.870 -34.815  1.00  0.00     0.268 A 
HETATM   25  H   UNL     1      -7.714   5.889 -34.864  1.00  0.00     0.188 HD
HETATM   26  C   UNL     1     -10.895   5.407 -33.972  1.00  0.00     0.035 A 
HETATM   27  O   UNL     1      -9.911   6.458 -35.877  1.00  0.00    -0.267 OA
HETATM   28  C   UNL     1     -10.598   4.699 -32.860  1.00  0.00     0.061 A 
HETATM   29  N   UNL     1      -9.310   4.379 -32.470  1.00  0.00    -0.067 NA
HETATM   30  C   UNL     1     -11.650   4.169 -31.918  1.00  0.00     0.072 C 
BRANCH  26  31
HETATM   31  C   UNL     1     -12.265   5.828 -34.439  1.00  0.00     0.042 C 
HETATM   32  C   UNL     1     -12.903   4.793 -35.354  1.00  0.00     0.010 C 
ENDBRANCH  26  31
ENDBRANCH   1  22
BRANCH   3  33
HETATM   33  C   UNL     1      -3.579   5.439 -33.654  1.00  0.00     0.105 A 
HETATM   34  O   UNL     1      -3.226   6.756 -33.543  1.00  0.00    -0.320 OA
HETATM   35  C   UNL     1      -1.988   6.888 -34.084  1.00  0.00     0.142 A 
HETATM   36  C   UNL     1      -1.523   5.672 -34.526  1.00  0.00     0.027 A 
HETATM   37  C   UNL     1      -2.550   4.737 -34.252  1.00  0.00     0.041 A 
ENDBRANCH   3  33
TORSDOF 7
ENDMDL
MODEL 5
REMARK VINA RESULT:      -9.3      3.266      5.475
REMARK  7 active torsions:
REMARK  status: ('A' for Active; 'I' for Inactive)
REMARK    1  A    between atoms: C_2  and  C_3 
REMARK    2  A    between atoms: C_7  and  N_8 
REMARK    3  A    between atoms: C_10  and  C_11 
REMARK    4  A    between atoms: C_17  and  N_18 
REMARK       I    between atoms: N_18  and  C_19 
REMARK    5  A    between atoms: C_19  and  C_20 
REMARK    6  A    between atoms: C_20  and  O_21 
REMARK    7  A    between atoms: O_21  and  C_22 
ROOT
HETATM    1  N   UNL     1      -8.565   3.639 -30.541  1.00  0.00    -0.044 N 
HETATM    2  N   UNL     1      -8.860   4.950 -30.293  1.00  0.00    -0.148 NA
HETATM    3  C   UNL     1      -7.946   5.332 -29.395  1.00  0.00     0.115 A 
HETATM    4  C   UNL     1      -7.053   4.294 -29.069  1.00  0.00     0.087 A 
HETATM    5  C   UNL     1      -7.499   3.196 -29.766  1.00  0.00     0.152 A 
ENDROOT
BRANCH   5   6
HETATM    6  N   UNL     1      -6.835   1.980 -29.735  1.00  0.00    -0.309 N 
HETATM    7  C   UNL     1      -5.777   1.563 -30.611  1.00  0.00     0.247 C 
HETATM    8  O   UNL     1      -5.098   0.635 -30.194  1.00  0.00    -0.271 OA
HETATM    9  H   UNL     1      -7.129   1.274 -29.069  1.00  0.00     0.170 HD
BRANCH   7  10
HETATM   10  C   UNL     1      -5.686   2.115 -32.021  1.00  0.00     0.278 C 
BRANCH  10  11
HETATM   11  O   UNL     1      -4.800   1.265 -32.747  1.00  0.00    -0.342 OA
BRANCH  11  12
HETATM   12  C   UNL     1      -5.353   0.160 -33.336  1.00  0.00     0.070 A 
HETATM   13  C   UNL     1      -4.561  -0.991 -33.283  1.00  0.00     0.049 A 
HETATM   14  C   UNL     1      -4.998  -2.202 -33.848  1.00  0.00    -0.023 A 
HETATM   15  C   UNL     1      -6.263  -2.252 -34.474  1.00  0.00    -0.026 A 
HETATM   16  C   UNL     1      -4.207  -3.362 -33.806  1.00  0.00     0.012 A 
HETATM   17  C   UNL     1      -7.051  -1.093 -34.517  1.00  0.00     0.015 A 
HETATM   18  C   UNL     1      -6.704  -3.460 -35.040  1.00  0.00     0.012 A 
HETATM   19  C   UNL     1      -6.602   0.105 -33.951  1.00  0.00     0.037 A 
HETATM   20  C   UNL     1      -5.907  -4.604 -34.989  1.00  0.00     0.001 A 
HETATM   21  C   UNL     1      -4.659  -4.555 -34.373  1.00  0.00     0.001 A 
ENDBRANCH  11  12
ENDBRANCH  10  11
ENDBRANCH   7  10
ENDBRANCH   5   6
BRANCH   1  22
HETATM   22  C   UNL     1      -9.270   2.973 -31.562  1.00  0.00     0.732 A 
HETATM   23  N   UNL     1      -9.888   3.850 -32.403  1.00  0.00    -0.152 N 
HETATM   24  C   UNL     1     -10.573   3.428 -33.496  1.00  0.00     0.268 A 
HETATM   25  H   UNL     1      -9.772   4.850 -32.267  1.00  0.00     0.188 HD
HETATM   26  C   UNL     1     -10.704   1.950 -33.634  1.00  0.00     0.035 A 
HETATM   27  O   UNL     1     -11.044   4.216 -34.306  1.00  0.00    -0.267 OA
HETATM   28  C   UNL     1     -10.073   1.182 -32.718  1.00  0.00     0.061 A 
HETATM   29  N   UNL     1      -9.315   1.688 -31.677  1.00  0.00    -0.067 NA
HETATM   30  C   UNL     1     -10.120  -0.326 -32.738  1.00  0.00     0.072 C 
BRANCH  26  31
HETATM   31  C   UNL     1     -11.576   1.476 -34.768  1.00  0.00     0.042 C 
HETATM   32  C   UNL     1     -13.020   1.269 -34.335  1.00  0.00     0.010 C 
ENDBRANCH  26  31
ENDBRANCH   1  22
BRANCH   3  33
HETATM   33  C   UNL     1      -7.903   6.708 -28.821  1.00  0.00     0.105 A 
HETATM   34  O   UNL     1      -8.629   7.109 -27.734  1.00  0.00    -0.320 OA
HETATM   35  C   UNL     1      -8.350   8.422 -27.526  1.00  0.00     0.142 A 
HETATM   36  C   UNL     1      -7.439   8.873 -28.450  1.00  0.00     0.027 A 
HETATM   37  C   UNL     1      -7.152   7.769 -29.289  1.00  0.00     0.041 A 
ENDBRANCH   3  33
TORSDOF 7
ENDMDL
MODEL 6
REMARK VINA RESULT:      -9.1      2.550      7.305
REMARK  7 active torsions:
REMARK  status: ('A' for Active; 'I' for Inactive)
REMARK    1  A    between atoms: C_2  and  C_3 
REMARK    2  A    between atoms: C_7  and  N_8 
REMARK    3  A    between atoms: C_10  and  C_11 
REMARK    4  A    between atoms: C_17  and  N_18 
REMARK       I    between atoms: N_18  and  C_19 
REMARK    5  A    between atoms: C_19  and  C_20 
REMARK    6  A    between atoms: C_20  and  O_21 
REMARK    7  A    between atoms: O_21  and  C_22 
ROOT
HETATM    1  N   UNL     1      -4.673   2.451 -32.206  1.00  0.00    -0.044 N 
HETATM    2  N   UNL     1      -3.418   2.899 -32.514  1.00  0.00    -0.148 NA
HETATM    3  C   UNL     1      -3.233   3.948 -31.707  1.00  0.00     0.115 A 
HETATM    4  C   UNL     1      -4.341   4.179 -30.868  1.00  0.00     0.087 A 
HETATM    5  C   UNL     1      -5.281   3.248 -31.242  1.00  0.00     0.152 A 
ENDROOT
BRANCH   5   6
HETATM    6  N   UNL     1      -6.504   3.132 -30.600  1.00  0.00    -0.309 N 
HETATM    7  C   UNL     1      -7.800   3.253 -31.204  1.00  0.00     0.247 C 
HETATM    8  O   UNL     1      -8.717   2.763 -30.559  1.00  0.00    -0.271 OA
HETATM    9  H   UNL     1      -6.521   2.989 -29.596  1.00  0.00     0.170 HD
BRANCH   7  10
HETATM   10  C   UNL     1      -7.995   4.118 -32.434  1.00  0.00     0.278 C 
BRANCH  10  11
HETATM   11  O   UNL     1      -8.202   3.238 -33.537  1.00  0.00    -0.342 OA
BRANCH  11  12
HETATM   12  C   UNL     1      -9.500   2.996 -33.895  1.00  0.00     0.070 A 
HETATM   13  C   UNL     1     -10.001   1.757 -33.484  1.00  0.00     0.049 A 
HETATM   14  C   UNL     1     -11.320   1.369 -33.781  1.00  0.00    -0.023 A 
HETATM   15  C   UNL     1     -12.150   2.254 -34.502  1.00  0.00    -0.026 A 
HETATM   16  C   UNL     1     -11.829   0.124 -33.378  1.00  0.00     0.012 A 
HETATM   17  C   UNL     1     -11.640   3.496 -34.904  1.00  0.00     0.015 A 
HETATM   18  C   UNL     1     -13.469   1.871 -34.801  1.00  0.00     0.012 A 
HETATM   19  C   UNL     1     -10.326   3.868 -34.603  1.00  0.00     0.037 A 
HETATM   20  C   UNL     1     -13.961   0.631 -34.394  1.00  0.00     0.001 A 
HETATM   21  C   UNL     1     -13.141  -0.242 -33.683  1.00  0.00     0.001 A 
ENDBRANCH  11  12
ENDBRANCH  10  11
ENDBRANCH   7  10
ENDBRANCH   5   6
BRANCH   1  22
HETATM   22  C   UNL     1      -5.122   1.253 -32.794  1.00  0.00     0.732 A 
HETATM   23  N   UNL     1      -4.448   0.171 -32.311  1.00  0.00    -0.152 N 
HETATM   24  C   UNL     1      -4.762  -1.093 -32.692  1.00  0.00     0.268 A 
HETATM   25  H   UNL     1      -3.750   0.292 -31.583  1.00  0.00     0.188 HD
HETATM   26  C   UNL     1      -5.796  -1.197 -33.761  1.00  0.00     0.035 A 
HETATM   27  O   UNL     1      -4.228  -2.071 -32.187  1.00  0.00    -0.267 OA
HETATM   28  C   UNL     1      -6.370  -0.049 -34.184  1.00  0.00     0.061 A 
HETATM   29  N   UNL     1      -6.059   1.201 -33.681  1.00  0.00    -0.067 NA
HETATM   30  C   UNL     1      -7.429  -0.008 -35.258  1.00  0.00     0.072 C 
BRANCH  26  31
HETATM   31  C   UNL     1      -6.052  -2.586 -34.288  1.00  0.00     0.042 C 
HETATM   32  C   UNL     1      -5.035  -2.998 -35.341  1.00  0.00     0.010 C 
ENDBRANCH  26  31
ENDBRANCH   1  22
BRANCH   3  33
HETATM   33  C   UNL     1      -1.985   4.764 -31.716  1.00  0.00     0.105 A 
HETATM   34  O   UNL     1      -0.849   4.437 -31.028  1.00  0.00    -0.320 OA
HETATM   35  C   UNL     1       0.058   5.422 -31.256  1.00  0.00     0.142 A 
HETATM   36  C   UNL     1      -0.466   6.373 -32.098  1.00  0.00     0.027 A 
HETATM   37  C   UNL     1      -1.785   5.952 -32.393  1.00  0.00     0.041 A 
ENDBRANCH   3  33
TORSDOF 7
ENDMDL
MODEL 7
REMARK VINA RESULT:      -9.0      3.678      8.437
REMARK  7 active torsions:
REMARK  status: ('A' for Active; 'I' for Inactive)
REMARK    1  A    between atoms: C_2  and  C_3 
REMARK    2  A    between atoms: C_7  and  N_8 
REMARK    3  A    between atoms: C_10  and  C_11 
REMARK    4  A    between atoms: C_17  and  N_18 
REMARK       I    between atoms: N_18  and  C_19 
REMARK    5  A    between atoms: C_19  and  C_20 
REMARK    6  A    between atoms: C_20  and  O_21 
REMARK    7  A    between atoms: O_21  and  C_22 
ROOT
HETATM    1  N   UNL     1      -4.891   4.419 -31.584  1.00  0.00    -0.044 N 
HETATM    2  N   UNL     1      -4.921   4.712 -30.248  1.00  0.00    -0.148 NA
HETATM    3  C   UNL     1      -4.816   6.044 -30.198  1.00  0.00     0.115 A 
HETATM    4  C   UNL     1      -4.736   6.621 -31.479  1.00  0.00     0.087 A 
HETATM    5  C   UNL     1      -4.724   5.563 -32.357  1.00  0.00     0.152 A 
ENDROOT
BRANCH   5   6
HETATM    6  N   UNL     1      -4.701   5.741 -33.731  1.00  0.00    -0.309 N 
HETATM    7  C   UNL     1      -3.748   5.181 -34.648  1.00  0.00     0.247 C 
HETATM    8  O   UNL     1      -4.111   5.155 -35.816  1.00  0.00    -0.271 OA
HETATM    9  H   UNL     1      -5.384   6.354 -34.160  1.00  0.00     0.170 HD
BRANCH   7  10
HETATM   10  C   UNL     1      -2.337   4.864 -34.190  1.00  0.00     0.278 C 
BRANCH  10  11
HETATM   11  O   UNL     1      -1.621   6.097 -34.155  1.00  0.00    -0.342 OA
BRANCH  11  12
HETATM   12  C   UNL     1      -1.336   6.607 -32.917  1.00  0.00     0.070 A 
HETATM   13  C   UNL     1      -0.658   5.731 -32.064  1.00  0.00     0.049 A 
HETATM   14  C   UNL     1      -0.299   6.117 -30.760  1.00  0.00    -0.023 A 
HETATM   15  C   UNL     1      -0.628   7.414 -30.311  1.00  0.00    -0.026 A 
HETATM   16  C   UNL     1       0.376   5.242 -29.893  1.00  0.00     0.012 A 
HETATM   17  C   UNL     1      -1.303   8.286 -31.177  1.00  0.00     0.015 A 
HETATM   18  C   UNL     1      -0.271   7.803 -29.009  1.00  0.00     0.012 A 
HETATM   19  C   UNL     1      -1.654   7.888 -32.472  1.00  0.00     0.037 A 
HETATM   20  C   UNL     1       0.400   6.923 -28.161  1.00  0.00     0.001 A 
HETATM   21  C   UNL     1       0.723   5.643 -28.602  1.00  0.00     0.001 A 
ENDBRANCH  11  12
ENDBRANCH  10  11
ENDBRANCH   7  10
ENDBRANCH   5   6
BRANCH   1  22
HETATM   22  C   UNL     1      -5.122   3.090 -31.985  1.00  0.00     0.732 A 
HETATM   23  N   UNL     1      -6.454   2.822 -32.098  1.00  0.00    -0.152 N 
HETATM   24  C   UNL     1      -6.904   1.618 -32.535  1.00  0.00     0.268 A 
HETATM   25  H   UNL     1      -7.135   3.558 -31.937  1.00  0.00     0.188 HD
HETATM   26  C   UNL     1      -5.852   0.586 -32.754  1.00  0.00     0.035 A 
HETATM   27  O   UNL     1      -8.094   1.407 -32.733  1.00  0.00    -0.267 OA
HETATM   28  C   UNL     1      -4.566   0.962 -32.577  1.00  0.00     0.061 A 
HETATM   29  N   UNL     1      -4.178   2.239 -32.216  1.00  0.00    -0.067 NA
HETATM   30  C   UNL     1      -3.402   0.021 -32.765  1.00  0.00     0.072 C 
BRANCH  26  31
HETATM   31  C   UNL     1      -6.353  -0.792 -33.106  1.00  0.00     0.042 C 
HETATM   32  C   UNL     1      -6.458  -0.997 -34.610  1.00  0.00     0.010 C 
ENDBRANCH  26  31
ENDBRANCH   1  22
BRANCH   3  33
HETATM   33  C   UNL     1      -4.790   6.804 -28.915  1.00  0.00     0.105 A 
HETATM   34  O   UNL     1      -5.855   7.499 -28.412  1.00  0.00    -0.320 OA
HETATM   35  C   UNL     1      -5.448   8.077 -27.254  1.00  0.00     0.142 A 
HETATM   36  C   UNL     1      -4.140   7.752 -26.987  1.00  0.00     0.027 A 
HETATM   37  C   UNL     1      -3.713   6.933 -28.060  1.00  0.00     0.041 A 
ENDBRANCH   3  33
TORSDOF 7
ENDMDL
MODEL 8
REMARK VINA RESULT:      -8.9      2.042      3.189
REMARK  7 active torsions:
REMARK  status: ('A' for Active; 'I' for Inactive)
REMARK    1  A    between atoms: C_2  and  C_3 
REMARK    2  A    between atoms: C_7  and  N_8 
REMARK    3  A    between atoms: C_10  and  C_11 
REMARK    4  A    between atoms: C_17  and  N_18 
REMARK       I    between atoms: N_18  and  C_19 
REMARK    5  A    between atoms: C_19  and  C_20 
REMARK    6  A    between atoms: C_20  and  O_21 
REMARK    7  A    between atoms: O_21  and  C_22 
ROOT
HETATM    1  N   UNL     1      -7.544   4.530 -32.937  1.00  0.00    -0.044 N 
HETATM    2  N   UNL     1      -8.289   4.260 -34.051  1.00  0.00    -0.148 NA
HETATM    3  C   UNL     1      -9.481   3.889 -33.572  1.00  0.00     0.115 A 
HETATM    4  C   UNL     1      -9.526   3.930 -32.165  1.00  0.00     0.087 A 
HETATM    5  C   UNL     1      -8.258   4.284 -31.769  1.00  0.00     0.152 A 
ENDROOT
BRANCH   5   6
HETATM    6  N   UNL     1      -7.924   4.475 -30.437  1.00  0.00    -0.309 N 
HETATM    7  C   UNL     1      -6.798   3.910 -29.751  1.00  0.00     0.247 C 
HETATM    8  O   UNL     1      -6.485   4.482 -28.715  1.00  0.00    -0.271 OA
HETATM    9  H   UNL     1      -8.538   5.029 -29.850  1.00  0.00     0.170 HD
BRANCH   7  10
HETATM   10  C   UNL     1      -6.213   2.584 -30.197  1.00  0.00     0.278 C 
BRANCH  10  11
HETATM   11  O   UNL     1      -7.296   1.662 -30.300  1.00  0.00    -0.342 OA
BRANCH  11  12
HETATM   12  C   UNL     1      -7.282   0.815 -31.374  1.00  0.00     0.070 A 
HETATM   13  C   UNL     1      -6.060   0.175 -31.601  1.00  0.00     0.049 A 
HETATM   14  C   UNL     1      -5.896  -0.723 -32.670  1.00  0.00    -0.023 A 
HETATM   15  C   UNL     1      -6.989  -0.984 -33.524  1.00  0.00    -0.026 A 
HETATM   16  C   UNL     1      -4.670  -1.366 -32.910  1.00  0.00     0.012 A 
HETATM   17  C   UNL     1      -8.212  -0.342 -33.284  1.00  0.00     0.015 A 
HETATM   18  C   UNL     1      -6.830  -1.881 -34.594  1.00  0.00     0.012 A 
HETATM   19  C   UNL     1      -8.361   0.550 -32.217  1.00  0.00     0.037 A 
HETATM   20  C   UNL     1      -5.606  -2.512 -34.819  1.00  0.00     0.001 A 
HETATM   21  C   UNL     1      -4.526  -2.254 -33.978  1.00  0.00     0.001 A 
ENDBRANCH  11  12
ENDBRANCH  10  11
ENDBRANCH   7  10
ENDBRANCH   5   6
BRANCH   1  22
HETATM   22  C   UNL     1      -6.262   5.086 -33.105  1.00  0.00     0.732 A 
HETATM   23  N   UNL     1      -5.670   4.652 -34.254  1.00  0.00    -0.152 N 
HETATM   24  C   UNL     1      -4.455   5.111 -34.647  1.00  0.00     0.268 A 
HETATM   25  H   UNL     1      -6.176   4.036 -34.883  1.00  0.00     0.188 HD
HETATM   26  C   UNL     1      -3.770   6.011 -33.678  1.00  0.00     0.035 A 
HETATM   27  O   UNL     1      -3.966   4.800 -35.726  1.00  0.00    -0.267 OA
HETATM   28  C   UNL     1      -4.445   6.345 -32.556  1.00  0.00     0.061 A 
HETATM   29  N   UNL     1      -5.723   5.906 -32.265  1.00  0.00    -0.067 NA
HETATM   30  C   UNL     1      -3.872   7.248 -31.491  1.00  0.00     0.072 C 
BRANCH  26  31
HETATM   31  C   UNL     1      -2.364   6.416 -34.044  1.00  0.00     0.042 C 
HETATM   32  C   UNL     1      -1.327   5.445 -33.500  1.00  0.00     0.010 C 
ENDBRANCH  26  31
ENDBRANCH   1  22
BRANCH   3  33
HETATM   33  C   UNL     1     -10.614   3.483 -34.451  1.00  0.00     0.105 A 
HETATM   34  O   UNL     1     -11.189   2.242 -34.439  1.00  0.00    -0.320 OA
HETATM   35  C   UNL     1     -12.162   2.240 -35.386  1.00  0.00     0.142 A 
HETATM   36  C   UNL     1     -12.241   3.468 -35.999  1.00  0.00     0.027 A 
HETATM   37  C   UNL     1     -11.241   4.270 -35.399  1.00  0.00     0.041 A 
ENDBRANCH   3  33
TORSDOF 7
ENDMDL
MODEL 9
REMARK VINA RESULT:      -8.9      2.726      6.143
REMARK  7 active torsions:
REMARK  status: ('A' for Active; 'I' for Inactive)
REMARK    1  A    between atoms: C_2  and  C_3 
REMARK    2  A    between atoms: C_7  and  N_8 
REMARK    3  A    between atoms: C_10  and  C_11 
REMARK    4  A    between atoms: C_17  and  N_18 
REMARK       I    between atoms: N_18  and  C_19 
REMARK    5  A    between atoms: C_19  and  C_20 
REMARK    6  A    between atoms: C_20  and  O_21 
REMARK    7  A    between atoms: O_21  and  C_22 
ROOT
HETATM    1  N   UNL     1      -9.508   1.401 -32.596  1.00  0.00    -0.044 N 
HETATM    2  N   UNL     1     -10.638   0.767 -33.033  1.00  0.00    -0.148 NA
HETATM    3  C   UNL     1     -11.578   1.718 -33.023  1.00  0.00     0.115 A 
HETATM    4  C   UNL     1     -11.073   2.963 -32.602  1.00  0.00     0.087 A 
HETATM    5  C   UNL     1      -9.758   2.731 -32.273  1.00  0.00     0.152 A 
ENDROOT
BRANCH   5   6
HETATM    6  N   UNL     1      -8.909   3.744 -31.857  1.00  0.00    -0.309 N 
HETATM    7  C   UNL     1      -8.061   4.544 -32.694  1.00  0.00     0.247 C 
HETATM    8  O   UNL     1      -7.685   5.595 -32.194  1.00  0.00    -0.271 OA
HETATM    9  H   UNL     1      -8.822   3.938 -30.866  1.00  0.00     0.170 HD
BRANCH   7  10
HETATM   10  C   UNL     1      -7.525   3.987 -34.000  1.00  0.00     0.278 C 
BRANCH  10  11
HETATM   11  O   UNL     1      -6.346   3.249 -33.687  1.00  0.00    -0.342 OA
BRANCH  11  12
HETATM   12  C   UNL     1      -5.161   3.931 -33.748  1.00  0.00     0.070 A 
HETATM   13  C   UNL     1      -4.335   3.774 -32.631  1.00  0.00     0.049 A 
HETATM   14  C   UNL     1      -3.087   4.415 -32.552  1.00  0.00    -0.023 A 
HETATM   15  C   UNL     1      -2.661   5.228 -33.625  1.00  0.00    -0.026 A 
HETATM   16  C   UNL     1      -2.253   4.269 -31.430  1.00  0.00     0.012 A 
HETATM   17  C   UNL     1      -3.494   5.374 -34.744  1.00  0.00     0.015 A 
HETATM   18  C   UNL     1      -1.414   5.871 -33.551  1.00  0.00     0.012 A 
HETATM   19  C   UNL     1      -4.734   4.730 -34.808  1.00  0.00     0.037 A 
HETATM   20  C   UNL     1      -0.598   5.715 -32.430  1.00  0.00     0.001 A 
HETATM   21  C   UNL     1      -1.017   4.915 -31.371  1.00  0.00     0.001 A 
ENDBRANCH  11  12
ENDBRANCH  10  11
ENDBRANCH   7  10
ENDBRANCH   5   6
BRANCH   1  22
HETATM   22  C   UNL     1      -8.289   0.698 -32.624  1.00  0.00     0.732 A 
HETATM   23  N   UNL     1      -7.502   1.012 -31.557  1.00  0.00    -0.152 N 
HETATM   24  C   UNL     1      -6.307   0.402 -31.349  1.00  0.00     0.268 A 
HETATM   25  H   UNL     1      -7.842   1.653 -30.846  1.00  0.00     0.188 HD
HETATM   26  C   UNL     1      -5.869  -0.526 -32.430  1.00  0.00     0.035 A 
HETATM   27  O   UNL     1      -5.644   0.609 -30.341  1.00  0.00    -0.267 OA
HETATM   28  C   UNL     1      -6.724  -0.732 -33.456  1.00  0.00     0.061 A 
HETATM   29  N   UNL     1      -7.970  -0.140 -33.554  1.00  0.00    -0.067 NA
HETATM   30  C   UNL     1      -6.410  -1.645 -34.615  1.00  0.00     0.072 C 
BRANCH  26  31
HETATM   31  C   UNL     1      -4.484  -1.101 -32.274  1.00  0.00     0.042 C 
HETATM   32  C   UNL     1      -3.417  -0.200 -32.876  1.00  0.00     0.010 C 
ENDBRANCH  26  31
ENDBRANCH   1  22
BRANCH   3  33
HETATM   33  C   UNL     1     -12.993   1.459 -33.417  1.00  0.00     0.105 A 
HETATM   34  O   UNL     1     -14.078   1.986 -32.773  1.00  0.00    -0.320 OA
HETATM   35  C   UNL     1     -15.186   1.510 -33.396  1.00  0.00     0.142 A 
HETATM   36  C   UNL     1     -14.836   0.697 -34.447  1.00  0.00     0.027 A 
HETATM   37  C   UNL     1     -13.421   0.661 -34.461  1.00  0.00     0.041 A 
ENDBRANCH   3  33
TORSDOF 7
ENDMDL
MODEL 10
REMARK VINA RESULT:      -8.8      1.604      1.918
REMARK  7 active torsions:
REMARK  status: ('A' for Active; 'I' for Inactive)
REMARK    1  A    between atoms: C_2  and  C_3 
REMARK    2  A    between atoms: C_7  and  N_8 
REMARK    3  A    between atoms: C_10  and  C_11 
REMARK    4  A    between atoms: C_17  and  N_18 
REMARK       I    between atoms: N_18  and  C_19 
REMARK    5  A    between atoms: C_19  and  C_20 
REMARK    6  A    between atoms: C_20  and  O_21 
REMARK    7  A    between atoms: O_21  and  C_22 
ROOT
HETATM    1  N   UNL     1      -7.643   4.643 -32.873  1.00  0.00    -0.044 N 
HETATM    2  N   UNL     1      -8.524   5.074 -33.826  1.00  0.00    -0.148 NA
HETATM    3  C   UNL     1      -9.704   4.582 -33.435  1.00  0.00     0.115 A 
HETATM    4  C   UNL     1      -9.606   3.853 -32.234  1.00  0.00     0.087 A 
HETATM    5  C   UNL     1      -8.268   3.849 -31.917  1.00  0.00     0.152 A 
ENDROOT
BRANCH   5   6
HETATM    6  N   UNL     1      -7.783   3.262 -30.759  1.00  0.00    -0.309 N 
HETATM    7  C   UNL     1      -7.098   2.004 -30.663  1.00  0.00     0.247 C 
HETATM    8  O   UNL     1      -6.446   1.849 -29.640  1.00  0.00    -0.271 OA
HETATM    9  H   UNL     1      -7.949   3.717 -29.869  1.00  0.00     0.170 HD
BRANCH   7  10
HETATM   10  C   UNL     1      -7.367   0.904 -31.673  1.00  0.00     0.278 C 
BRANCH  10  11
HETATM   11  O   UNL     1      -6.340   0.981 -32.659  1.00  0.00    -0.342 OA
BRANCH  11  12
HETATM   12  C   UNL     1      -5.740  -0.197 -33.013  1.00  0.00     0.070 A 
HETATM   13  C   UNL     1      -6.573  -1.105 -33.672  1.00  0.00     0.049 A 
HETATM   14  C   UNL     1      -6.095  -2.358 -34.096  1.00  0.00    -0.023 A 
HETATM   15  C   UNL     1      -4.747  -2.698 -33.853  1.00  0.00    -0.026 A 
HETATM   16  C   UNL     1      -6.927  -3.280 -34.753  1.00  0.00     0.012 A 
HETATM   17  C   UNL     1      -3.918  -1.777 -33.195  1.00  0.00     0.015 A 
HETATM   18  C   UNL     1      -4.264  -3.948 -34.274  1.00  0.00     0.012 A 
HETATM   19  C   UNL     1      -4.408  -0.535 -32.779  1.00  0.00     0.037 A 
HETATM   20  C   UNL     1      -5.103  -4.853 -34.926  1.00  0.00     0.001 A 
HETATM   21  C   UNL     1      -6.433  -4.519 -35.165  1.00  0.00     0.001 A 
ENDBRANCH  11  12
ENDBRANCH  10  11
ENDBRANCH   7  10
ENDBRANCH   5   6
BRANCH   1  22
HETATM   22  C   UNL     1      -6.318   5.113 -32.921  1.00  0.00     0.732 A 
HETATM   23  N   UNL     1      -5.748   4.892 -34.140  1.00  0.00    -0.152 N 
HETATM   24  C   UNL     1      -4.494   5.323 -34.430  1.00  0.00     0.268 A 
HETATM   25  H   UNL     1      -6.295   4.471 -34.886  1.00  0.00     0.188 HD
HETATM   26  C   UNL     1      -3.751   5.931 -33.290  1.00  0.00     0.035 A 
HETATM   27  O   UNL     1      -4.018   5.214 -35.552  1.00  0.00    -0.267 OA
HETATM   28  C   UNL     1      -4.411   6.067 -32.119  1.00  0.00     0.061 A 
HETATM   29  N   UNL     1      -5.726   5.684 -31.925  1.00  0.00    -0.067 NA
HETATM   30  C   UNL     1      -3.782   6.666 -30.886  1.00  0.00     0.072 C 
BRANCH  26  31
HETATM   31  C   UNL     1      -2.312   6.287 -33.566  1.00  0.00     0.042 C 
HETATM   32  C   UNL     1      -1.350   5.226 -33.054  1.00  0.00     0.010 C 
ENDBRANCH  26  31
ENDBRANCH   1  22
BRANCH   3  33
HETATM   33  C   UNL     1     -10.964   4.797 -34.203  1.00  0.00     0.105 A 
HETATM   34  O   UNL     1     -11.875   5.779 -33.924  1.00  0.00    -0.320 OA
HETATM   35  C   UNL     1     -12.894   5.646 -34.812  1.00  0.00     0.142 A 
HETATM   36  C   UNL     1     -12.648   4.605 -35.675  1.00  0.00     0.027 A 
HETATM   37  C   UNL     1     -11.404   4.055 -35.281  1.00  0.00     0.041 A 
ENDBRANCH   3  33
TORSDOF 7
ENDMDL
