MODEL 1
REMARK VINA RESULT:      -8.7      0.000      0.000
REMARK  5 active torsions:
REMARK  status: ('A' for Active; 'I' for Inactive)
REMARK    1  A    between atoms: C_5  and  O_6 
REMARK    2  A    between atoms: O_6  and  C_7 
REMARK    3  A    between atoms: C_7  and  C_8 
REMARK       I    between atoms: C_8  and  N_9 
REMARK    4  A    between atoms: N_9  and  N_10 
REMARK    5  A    between atoms: C_11  and  C_12 
ROOT
HETATM    1  C   UNL     1      -9.775   1.016 -32.861  1.00  0.00     0.261 C 
HETATM    2  N   UNL     1      -8.435   1.372 -32.787  1.00  0.00    -0.246 N 
HETATM    3  O   UNL     1     -10.206  -0.137 -32.840  1.00  0.00    -0.269 OA
HETATM    4  H   UNL     1      -8.181   2.354 -32.756  1.00  0.00     0.192 HD
ENDROOT
BRANCH   2   5
HETATM    5  N   UNL     1      -7.486   0.400 -32.672  1.00  0.00    -0.184 NA
HETATM    6  C   UNL     1      -6.764   0.167 -33.718  1.00  0.00     0.153 C 
BRANCH   6   7
HETATM    7  C   UNL     1      -5.736  -0.857 -33.670  1.00  0.00     0.018 A 
HETATM    8  C   UNL     1      -5.806  -2.221 -34.114  1.00  0.00     0.004 A 
HETATM    9  C   UNL     1      -4.568  -2.810 -33.858  1.00  0.00     0.043 A 
HETATM   10  C   UNL     1      -6.809  -3.019 -34.707  1.00  0.00     0.014 A 
HETATM   11  C   UNL     1      -4.281  -4.146 -34.164  1.00  0.00     0.030 A 
HETATM   12  N   UNL     1      -3.773  -1.847 -33.288  1.00  0.00    -0.358 N 
HETATM   13  C   UNL     1      -5.295  -4.911 -34.749  1.00  0.00     0.002 A 
HETATM   14  C   UNL     1      -6.542  -4.357 -35.019  1.00  0.00     0.001 A 
HETATM   15  H   UNL     1      -2.814  -2.001 -33.006  1.00  0.00     0.166 HD
HETATM   16  C   UNL     1      -4.456  -0.661 -33.164  1.00  0.00     0.018 A 
HETATM   17  C   UNL     1      -3.802   0.544 -32.591  1.00  0.00     0.069 C 
ENDBRANCH   6   7
ENDBRANCH   2   5
BRANCH   1  18
HETATM   18  C   UNL     1     -10.701   2.204 -33.092  1.00  0.00     0.280 C 
BRANCH  18  19
HETATM   19  O   UNL     1     -11.711   1.894 -34.056  1.00  0.00    -0.342 OA
BRANCH  19  20
HETATM   20  C   UNL     1     -12.965   2.066 -33.529  1.00  0.00     0.069 A 
HETATM   21  C   UNL     1     -13.976   1.221 -33.980  1.00  0.00     0.037 A 
HETATM   22  C   UNL     1     -15.273   1.353 -33.475  1.00  0.00     0.009 A 
HETATM   23  C   UNL     1     -15.559   2.316 -32.499  1.00  0.00    -0.062 A 
HETATM   24  C   UNL     1     -16.951   2.486 -31.966  1.00  0.00     0.048 C 
HETATM   25  C   UNL     1     -14.528   3.144 -32.036  1.00  0.00     0.009 A 
HETATM   26  C   UNL     1     -13.233   3.013 -32.541  1.00  0.00     0.037 A 
ENDBRANCH  19  20
ENDBRANCH  18  19
ENDBRANCH   1  18
TORSDOF 5
ENDMDL
MODEL 2
REMARK VINA RESULT:      -8.5      6.506      9.572
REMARK  5 active torsions:
REMARK  status: ('A' for Active; 'I' for Inactive)
REMARK    1  A    between atoms: C_5  and  O_6 
REMARK    2  A    between atoms: O_6  and  C_7 
REMARK    3  A    between atoms: C_7  and  C_8 
REMARK       I    between atoms: C_8  and  N_9 
REMARK    4  A    between atoms: N_9  and  N_10 
REMARK    5  A    between atoms: C_11  and  C_12 
ROOT
HETATM    1  C   UNL     1      -3.334   0.465 -31.269  1.00  0.00     0.261 C 
HETATM    2  N   UNL     1      -4.087   1.468 -31.865  1.00  0.00    -0.246 N 
HETATM    3  O   UNL     1      -2.235   0.622 -30.739  1.00  0.00    -0.269 OA
HETATM    4  H   UNL     1      -5.011   1.250 -32.227  1.00  0.00     0.192 HD
ENDROOT
BRANCH   2   5
HETATM    5  N   UNL     1      -3.614   2.746 -31.879  1.00  0.00    -0.184 NA
HETATM    6  C   UNL     1      -2.978   3.117 -32.940  1.00  0.00     0.153 C 
BRANCH   6   7
HETATM    7  C   UNL     1      -2.443   4.465 -33.024  1.00  0.00     0.018 A 
HETATM    8  C   UNL     1      -1.486   5.106 -32.165  1.00  0.00     0.004 A 
HETATM    9  C   UNL     1      -1.288   6.398 -32.649  1.00  0.00     0.043 A 
HETATM   10  C   UNL     1      -0.769   4.712 -31.014  1.00  0.00     0.014 A 
HETATM   11  C   UNL     1      -0.414   7.313 -32.046  1.00  0.00     0.030 A 
HETATM   12  N   UNL     1      -2.083   6.541 -33.759  1.00  0.00    -0.358 N 
HETATM   13  C   UNL     1       0.280   6.894 -30.907  1.00  0.00     0.002 A 
HETATM   14  C   UNL     1       0.108   5.612 -30.396  1.00  0.00     0.001 A 
HETATM   15  H   UNL     1      -2.130   7.384 -34.315  1.00  0.00     0.166 HD
HETATM   16  C   UNL     1      -2.790   5.388 -34.004  1.00  0.00     0.018 A 
HETATM   17  C   UNL     1      -3.709   5.285 -35.166  1.00  0.00     0.069 C 
ENDBRANCH   6   7
ENDBRANCH   2   5
BRANCH   1  18
HETATM   18  C   UNL     1      -3.947  -0.921 -31.427  1.00  0.00     0.280 C 
BRANCH  18  19
HETATM   19  O   UNL     1      -3.175  -1.731 -32.319  1.00  0.00    -0.342 OA
BRANCH  19  20
HETATM   20  C   UNL     1      -3.986  -2.478 -33.133  1.00  0.00     0.069 A 
HETATM   21  C   UNL     1      -5.047  -1.827 -33.758  1.00  0.00     0.037 A 
HETATM   22  C   UNL     1      -5.905  -2.542 -34.599  1.00  0.00     0.009 A 
HETATM   23  C   UNL     1      -5.691  -3.905 -34.838  1.00  0.00    -0.062 A 
HETATM   24  C   UNL     1      -6.619  -4.691 -35.718  1.00  0.00     0.048 C 
HETATM   25  C   UNL     1      -4.606  -4.542 -34.222  1.00  0.00     0.009 A 
HETATM   26  C   UNL     1      -3.750  -3.830 -33.380  1.00  0.00     0.037 A 
ENDBRANCH  19  20
ENDBRANCH  18  19
ENDBRANCH   1  18
TORSDOF 5
ENDMDL
MODEL 3
REMARK VINA RESULT:      -8.4      5.594      9.279
REMARK  5 active torsions:
REMARK  status: ('A' for Active; 'I' for Inactive)
REMARK    1  A    between atoms: C_5  and  O_6 
REMARK    2  A    between atoms: O_6  and  C_7 
REMARK    3  A    between atoms: C_7  and  C_8 
REMARK       I    between atoms: C_8  and  N_9 
REMARK    4  A    between atoms: N_9  and  N_10 
REMARK    5  A    between atoms: C_11  and  C_12 
ROOT
HETATM    1  C   UNL     1      -3.386   3.804 -32.208  1.00  0.00     0.261 C 
HETATM    2  N   UNL     1      -4.317   2.806 -31.953  1.00  0.00    -0.246 N 
HETATM    3  O   UNL     1      -2.456   3.721 -33.009  1.00  0.00    -0.269 OA
HETATM    4  H   UNL     1      -5.083   2.989 -31.312  1.00  0.00     0.192 HD
ENDROOT
BRANCH   2   5
HETATM    5  N   UNL     1      -4.239   1.625 -32.630  1.00  0.00    -0.184 NA
HETATM    6  C   UNL     1      -5.300   0.888 -32.633  1.00  0.00     0.153 C 
BRANCH   6   7
HETATM    7  C   UNL     1      -5.289  -0.386 -33.332  1.00  0.00     0.018 A 
HETATM    8  C   UNL     1      -4.536  -1.570 -33.027  1.00  0.00     0.004 A 
HETATM    9  C   UNL     1      -4.861  -2.532 -33.983  1.00  0.00     0.043 A 
HETATM   10  C   UNL     1      -3.601  -1.919 -32.027  1.00  0.00     0.014 A 
HETATM   11  C   UNL     1      -4.305  -3.818 -33.992  1.00  0.00     0.030 A 
HETATM   12  N   UNL     1      -5.778  -1.963 -34.832  1.00  0.00    -0.358 N 
HETATM   13  C   UNL     1      -3.381  -4.133 -32.991  1.00  0.00     0.002 A 
HETATM   14  C   UNL     1      -3.032  -3.198 -32.021  1.00  0.00     0.001 A 
HETATM   15  H   UNL     1      -6.192  -2.444 -35.620  1.00  0.00     0.166 HD
HETATM   16  C   UNL     1      -6.050  -0.669 -34.460  1.00  0.00     0.018 A 
HETATM   17  C   UNL     1      -7.029   0.155 -35.215  1.00  0.00     0.069 C 
ENDBRANCH   6   7
ENDBRANCH   2   5
BRANCH   1  18
HETATM   18  C   UNL     1      -3.543   5.018 -31.300  1.00  0.00     0.280 C 
BRANCH  18  19
HETATM   19  O   UNL     1      -2.891   6.166 -31.851  1.00  0.00    -0.342 OA
BRANCH  19  20
HETATM   20  C   UNL     1      -1.897   6.614 -31.021  1.00  0.00     0.069 A 
HETATM   21  C   UNL     1      -2.276   7.175 -29.805  1.00  0.00     0.037 A 
HETATM   22  C   UNL     1      -1.302   7.649 -28.920  1.00  0.00     0.009 A 
HETATM   23  C   UNL     1       0.057   7.541 -29.240  1.00  0.00    -0.062 A 
HETATM   24  C   UNL     1       1.113   8.068 -28.313  1.00  0.00     0.048 C 
HETATM   25  C   UNL     1       0.427   6.953 -30.457  1.00  0.00     0.009 A 
HETATM   26  C   UNL     1      -0.546   6.482 -31.341  1.00  0.00     0.037 A 
ENDBRANCH  19  20
ENDBRANCH  18  19
ENDBRANCH   1  18
TORSDOF 5
ENDMDL
MODEL 4
REMARK VINA RESULT:      -8.3      1.738      2.131
REMARK  5 active torsions:
REMARK  status: ('A' for Active; 'I' for Inactive)
REMARK    1  A    between atoms: C_5  and  O_6 
REMARK    2  A    between atoms: O_6  and  C_7 
REMARK    3  A    between atoms: C_7  and  C_8 
REMARK       I    between atoms: C_8  and  N_9 
REMARK    4  A    between atoms: N_9  and  N_10 
REMARK    5  A    between atoms: C_11  and  C_12 
ROOT
HETATM    1  C   UNL     1      -8.276   2.058 -32.385  1.00  0.00     0.261 C 
HETATM    2  N   UNL     1      -7.340   1.490 -33.239  1.00  0.00    -0.246 N 
HETATM    3  O   UNL     1      -8.488   1.704 -31.226  1.00  0.00    -0.269 OA
HETATM    4  H   UNL     1      -7.199   1.889 -34.162  1.00  0.00     0.192 HD
ENDROOT
BRANCH   2   5
HETATM    5  N   UNL     1      -6.564   0.460 -32.796  1.00  0.00    -0.184 NA
HETATM    6  C   UNL     1      -5.592   0.095 -33.564  1.00  0.00     0.153 C 
BRANCH   6   7
HETATM    7  C   UNL     1      -4.725  -0.998 -33.158  1.00  0.00     0.018 A 
HETATM    8  C   UNL     1      -4.730  -2.361 -33.609  1.00  0.00     0.004 A 
HETATM    9  C   UNL     1      -3.712  -3.031 -32.931  1.00  0.00     0.043 A 
HETATM   10  C   UNL     1      -5.508  -3.097 -34.529  1.00  0.00     0.014 A 
HETATM   11  C   UNL     1      -3.431  -4.390 -33.124  1.00  0.00     0.030 A 
HETATM   12  N   UNL     1      -3.106  -2.116 -32.106  1.00  0.00    -0.358 N 
HETATM   13  C   UNL     1      -4.220  -5.092 -34.040  1.00  0.00     0.002 A 
HETATM   14  C   UNL     1      -5.245  -4.457 -34.735  1.00  0.00     0.001 A 
HETATM   15  H   UNL     1      -2.325  -2.332 -31.500  1.00  0.00     0.166 HD
HETATM   16  C   UNL     1      -3.700  -0.883 -32.225  1.00  0.00     0.018 A 
HETATM   17  C   UNL     1      -3.210   0.283 -31.446  1.00  0.00     0.069 C 
ENDBRANCH   6   7
ENDBRANCH   2   5
BRANCH   1  18
HETATM   18  C   UNL     1      -9.133   3.123 -33.058  1.00  0.00     0.280 C 
BRANCH  18  19
HETATM   19  O   UNL     1      -9.550   2.708 -34.362  1.00  0.00    -0.342 OA
BRANCH  19  20
HETATM   20  C   UNL     1     -10.823   2.200 -34.335  1.00  0.00     0.069 A 
HETATM   21  C   UNL     1     -11.799   2.869 -35.069  1.00  0.00     0.037 A 
HETATM   22  C   UNL     1     -13.114   2.394 -35.076  1.00  0.00     0.009 A 
HETATM   23  C   UNL     1     -13.452   1.234 -34.367  1.00  0.00    -0.062 A 
HETATM   24  C   UNL     1     -14.865   0.727 -34.344  1.00  0.00     0.048 C 
HETATM   25  C   UNL     1     -12.455   0.558 -33.651  1.00  0.00     0.009 A 
HETATM   26  C   UNL     1     -11.143   1.033 -33.643  1.00  0.00     0.037 A 
ENDBRANCH  19  20
ENDBRANCH  18  19
ENDBRANCH   1  18
TORSDOF 5
ENDMDL
MODEL 5
REMARK VINA RESULT:      -8.2      5.644      9.608
REMARK  5 active torsions:
REMARK  status: ('A' for Active; 'I' for Inactive)
REMARK    1  A    between atoms: C_5  and  O_6 
REMARK    2  A    between atoms: O_6  and  C_7 
REMARK    3  A    between atoms: C_7  and  C_8 
REMARK       I    between atoms: C_8  and  N_9 
REMARK    4  A    between atoms: N_9  and  N_10 
REMARK    5  A    between atoms: C_11  and  C_12 
ROOT
HETATM    1  C   UNL     1      -2.954   3.892 -32.335  1.00  0.00     0.261 C 
HETATM    2  N   UNL     1      -3.594   2.823 -31.724  1.00  0.00    -0.246 N 
HETATM    3  O   UNL     1      -3.079   4.214 -33.516  1.00  0.00    -0.269 OA
HETATM    4  H   UNL     1      -3.469   2.671 -30.727  1.00  0.00     0.192 HD
ENDROOT
BRANCH   2   5
HETATM    5  N   UNL     1      -4.447   2.046 -32.449  1.00  0.00    -0.184 NA
HETATM    6  C   UNL     1      -4.917   0.997 -31.860  1.00  0.00     0.153 C 
BRANCH   6   7
HETATM    7  C   UNL     1      -5.829   0.119 -32.573  1.00  0.00     0.018 A 
HETATM    8  C   UNL     1      -5.529  -1.063 -33.331  1.00  0.00     0.004 A 
HETATM    9  C   UNL     1      -6.733  -1.561 -33.827  1.00  0.00     0.043 A 
HETATM   10  C   UNL     1      -4.343  -1.760 -33.650  1.00  0.00     0.014 A 
HETATM   11  C   UNL     1      -6.814  -2.714 -34.619  1.00  0.00     0.030 A 
HETATM   12  N   UNL     1      -7.728  -0.724 -33.387  1.00  0.00    -0.358 N 
HETATM   13  C   UNL     1      -5.623  -3.381 -34.919  1.00  0.00     0.002 A 
HETATM   14  C   UNL     1      -4.403  -2.913 -34.442  1.00  0.00     0.001 A 
HETATM   15  H   UNL     1      -8.709  -0.854 -33.595  1.00  0.00     0.166 HD
HETATM   16  C   UNL     1      -7.207   0.298 -32.629  1.00  0.00     0.018 A 
HETATM   17  C   UNL     1      -8.088   1.327 -32.021  1.00  0.00     0.069 C 
ENDBRANCH   6   7
ENDBRANCH   2   5
BRANCH   1  18
HETATM   18  C   UNL     1      -1.956   4.598 -31.424  1.00  0.00     0.280 C 
BRANCH  18  19
HETATM   19  O   UNL     1      -2.438   5.884 -31.024  1.00  0.00    -0.342 OA
BRANCH  19  20
HETATM   20  C   UNL     1      -1.528   6.525 -30.224  1.00  0.00     0.069 A 
HETATM   21  C   UNL     1      -0.204   6.558 -30.653  1.00  0.00     0.037 A 
HETATM   22  C   UNL     1       0.766   7.198 -29.874  1.00  0.00     0.009 A 
HETATM   23  C   UNL     1       0.409   7.828 -28.676  1.00  0.00    -0.062 A 
HETATM   24  C   UNL     1       1.443   8.497 -27.817  1.00  0.00     0.048 C 
HETATM   25  C   UNL     1      -0.931   7.808 -28.268  1.00  0.00     0.009 A 
HETATM   26  C   UNL     1      -1.899   7.167 -29.043  1.00  0.00     0.037 A 
ENDBRANCH  19  20
ENDBRANCH  18  19
ENDBRANCH   1  18
TORSDOF 5
ENDMDL
MODEL 6
REMARK VINA RESULT:      -8.2      6.176     10.386
REMARK  5 active torsions:
REMARK  status: ('A' for Active; 'I' for Inactive)
REMARK    1  A    between atoms: C_5  and  O_6 
REMARK    2  A    between atoms: O_6  and  C_7 
REMARK    3  A    between atoms: C_7  and  C_8 
REMARK       I    between atoms: C_8  and  N_9 
REMARK    4  A    between atoms: N_9  and  N_10 
REMARK    5  A    between atoms: C_11  and  C_12 
ROOT
HETATM    1  C   UNL     1      -2.160   4.504 -32.236  1.00  0.00     0.261 C 
HETATM    2  N   UNL     1      -2.825   3.446 -31.632  1.00  0.00    -0.246 N 
HETATM    3  O   UNL     1      -1.960   4.620 -33.445  1.00  0.00    -0.269 OA
HETATM    4  H   UNL     1      -2.990   3.467 -30.630  1.00  0.00     0.192 HD
ENDROOT
BRANCH   2   5
HETATM    5  N   UNL     1      -3.322   2.436 -32.402  1.00  0.00    -0.184 NA
HETATM    6  C   UNL     1      -3.942   1.487 -31.783  1.00  0.00     0.153 C 
BRANCH   6   7
HETATM    7  C   UNL     1      -4.496   0.377 -32.538  1.00  0.00     0.018 A 
HETATM    8  C   UNL     1      -5.623   0.370 -33.428  1.00  0.00     0.004 A 
HETATM    9  C   UNL     1      -5.767  -0.928 -33.914  1.00  0.00     0.043 A 
HETATM   10  C   UNL     1      -6.545   1.347 -33.866  1.00  0.00     0.014 A 
HETATM   11  C   UNL     1      -6.776  -1.300 -34.812  1.00  0.00     0.030 A 
HETATM   12  N   UNL     1      -4.767  -1.683 -33.352  1.00  0.00    -0.358 N 
HETATM   13  C   UNL     1      -7.674  -0.311 -35.225  1.00  0.00     0.002 A 
HETATM   14  C   UNL     1      -7.562   0.995 -34.761  1.00  0.00     0.001 A 
HETATM   15  H   UNL     1      -4.630  -2.667 -33.538  1.00  0.00     0.166 HD
HETATM   16  C   UNL     1      -3.988  -0.917 -32.518  1.00  0.00     0.018 A 
HETATM   17  C   UNL     1      -2.825  -1.503 -31.804  1.00  0.00     0.069 C 
ENDBRANCH   6   7
ENDBRANCH   2   5
BRANCH   1  18
HETATM   18  C   UNL     1      -1.574   5.495 -31.238  1.00  0.00     0.280 C 
BRANCH  18  19
HETATM   19  O   UNL     1      -0.481   4.920 -30.517  1.00  0.00    -0.342 OA
BRANCH  19  20
HETATM   20  C   UNL     1       0.058   5.823 -29.637  1.00  0.00     0.069 A 
HETATM   21  C   UNL     1       0.196   7.140 -30.068  1.00  0.00     0.037 A 
HETATM   22  C   UNL     1       0.740   8.102 -29.212  1.00  0.00     0.009 A 
HETATM   23  C   UNL     1       1.127   7.754 -27.911  1.00  0.00    -0.062 A 
HETATM   24  C   UNL     1       1.736   8.769 -26.989  1.00  0.00     0.048 C 
HETATM   25  C   UNL     1       0.961   6.431 -27.482  1.00  0.00     0.009 A 
HETATM   26  C   UNL     1       0.420   5.470 -28.337  1.00  0.00     0.037 A 
ENDBRANCH  19  20
ENDBRANCH  18  19
ENDBRANCH   1  18
TORSDOF 5
ENDMDL
MODEL 7
REMARK VINA RESULT:      -7.8      4.780      8.607
REMARK  5 active torsions:
REMARK  status: ('A' for Active; 'I' for Inactive)
REMARK    1  A    between atoms: C_5  and  O_6 
REMARK    2  A    between atoms: O_6  and  C_7 
REMARK    3  A    between atoms: C_7  and  C_8 
REMARK       I    between atoms: C_8  and  N_9 
REMARK    4  A    between atoms: N_9  and  N_10 
REMARK    5  A    between atoms: C_11  and  C_12 
ROOT
HETATM    1  C   UNL     1      -6.300   2.465 -31.233  1.00  0.00     0.261 C 
HETATM    2  N   UNL     1      -4.917   2.394 -31.336  1.00  0.00    -0.246 N 
HETATM    3  O   UNL     1      -6.968   3.494 -31.327  1.00  0.00    -0.269 OA
HETATM    4  H   UNL     1      -4.460   1.488 -31.300  1.00  0.00     0.192 HD
ENDROOT
BRANCH   2   5
HETATM    5  N   UNL     1      -4.201   3.531 -31.571  1.00  0.00    -0.184 NA
HETATM    6  C   UNL     1      -3.323   3.477 -32.517  1.00  0.00     0.153 C 
BRANCH   6   7
HETATM    7  C   UNL     1      -2.521   4.649 -32.822  1.00  0.00     0.018 A 
HETATM    8  C   UNL     1      -1.469   5.242 -32.045  1.00  0.00     0.004 A 
HETATM    9  C   UNL     1      -1.000   6.350 -32.750  1.00  0.00     0.043 A 
HETATM   10  C   UNL     1      -0.868   4.946 -30.802  1.00  0.00     0.014 A 
HETATM   11  C   UNL     1       0.032   7.172 -32.281  1.00  0.00     0.030 A 
HETATM   12  N   UNL     1      -1.729   6.428 -33.911  1.00  0.00    -0.358 N 
HETATM   13  C   UNL     1       0.605   6.855 -31.046  1.00  0.00     0.002 A 
HETATM   14  C   UNL     1       0.163   5.757 -30.314  1.00  0.00     0.001 A 
HETATM   15  H   UNL     1      -1.592   7.139 -34.617  1.00  0.00     0.166 HD
HETATM   16  C   UNL     1      -2.653   5.413 -33.976  1.00  0.00     0.018 A 
HETATM   17  C   UNL     1      -3.553   5.270 -35.149  1.00  0.00     0.069 C 
ENDBRANCH   6   7
ENDBRANCH   2   5
BRANCH   1  18
HETATM   18  C   UNL     1      -6.944   1.134 -30.866  1.00  0.00     0.280 C 
BRANCH  18  19
HETATM   19  O   UNL     1      -7.816   0.676 -31.904  1.00  0.00    -0.342 OA
BRANCH  19  20
HETATM   20  C   UNL     1      -7.179  -0.222 -32.721  1.00  0.00     0.069 A 
HETATM   21  C   UNL     1      -5.963  -0.741 -32.285  1.00  0.00     0.037 A 
HETATM   22  C   UNL     1      -5.271  -1.660 -33.080  1.00  0.00     0.009 A 
HETATM   23  C   UNL     1      -5.805  -2.082 -34.303  1.00  0.00    -0.062 A 
HETATM   24  C   UNL     1      -5.063  -3.049 -35.179  1.00  0.00     0.048 C 
HETATM   25  C   UNL     1      -7.042  -1.571 -34.720  1.00  0.00     0.009 A 
HETATM   26  C   UNL     1      -7.732  -0.651 -33.928  1.00  0.00     0.037 A 
ENDBRANCH  19  20
ENDBRANCH  18  19
ENDBRANCH   1  18
TORSDOF 5
ENDMDL
MODEL 8
REMARK VINA RESULT:      -7.6      4.672      8.822
REMARK  5 active torsions:
REMARK  status: ('A' for Active; 'I' for Inactive)
REMARK    1  A    between atoms: C_5  and  O_6 
REMARK    2  A    between atoms: O_6  and  C_7 
REMARK    3  A    between atoms: C_7  and  C_8 
REMARK       I    between atoms: C_8  and  N_9 
REMARK    4  A    between atoms: N_9  and  N_10 
REMARK    5  A    between atoms: C_11  and  C_12 
ROOT
HETATM    1  C   UNL     1      -6.753   1.464 -33.216  1.00  0.00     0.261 C 
HETATM    2  N   UNL     1      -6.165   2.003 -32.080  1.00  0.00    -0.246 N 
HETATM    3  O   UNL     1      -6.877   2.043 -34.295  1.00  0.00    -0.269 OA
HETATM    4  H   UNL     1      -6.059   1.426 -31.252  1.00  0.00     0.192 HD
ENDROOT
BRANCH   2   5
HETATM    5  N   UNL     1      -5.660   3.269 -32.120  1.00  0.00    -0.184 NA
HETATM    6  C   UNL     1      -4.490   3.443 -31.602  1.00  0.00     0.153 C 
BRANCH   6   7
HETATM    7  C   UNL     1      -3.891   4.766 -31.606  1.00  0.00     0.018 A 
HETATM    8  C   UNL     1      -2.930   5.314 -32.523  1.00  0.00     0.004 A 
HETATM    9  C   UNL     1      -2.659   6.620 -32.116  1.00  0.00     0.043 A 
HETATM   10  C   UNL     1      -2.258   4.822 -33.663  1.00  0.00     0.014 A 
HETATM   11  C   UNL     1      -1.756   7.456 -32.786  1.00  0.00     0.030 A 
HETATM   12  N   UNL     1      -3.424   6.863 -31.003  1.00  0.00    -0.358 N 
HETATM   13  C   UNL     1      -1.104   6.940 -33.910  1.00  0.00     0.002 A 
HETATM   14  C   UNL     1      -1.350   5.641 -34.345  1.00  0.00     0.001 A 
HETATM   15  H   UNL     1      -3.429   7.742 -30.502  1.00  0.00     0.166 HD
HETATM   16  C   UNL     1      -4.175   5.760 -30.675  1.00  0.00     0.018 A 
HETATM   17  C   UNL     1      -5.103   5.780 -29.515  1.00  0.00     0.069 C 
ENDBRANCH   6   7
ENDBRANCH   2   5
BRANCH   1  18
HETATM   18  C   UNL     1      -7.360   0.086 -32.983  1.00  0.00     0.280 C 
BRANCH  18  19
HETATM   19  O   UNL     1      -7.343  -0.698 -34.180  1.00  0.00    -0.342 OA
BRANCH  19  20
HETATM   20  C   UNL     1      -6.376  -1.668 -34.120  1.00  0.00     0.069 A 
HETATM   21  C   UNL     1      -6.660  -2.898 -34.709  1.00  0.00     0.037 A 
HETATM   22  C   UNL     1      -5.709  -3.922 -34.677  1.00  0.00     0.009 A 
HETATM   23  C   UNL     1      -4.461  -3.712 -34.076  1.00  0.00    -0.062 A 
HETATM   24  C   UNL     1      -3.440  -4.811 -34.011  1.00  0.00     0.048 C 
HETATM   25  C   UNL     1      -4.180  -2.463 -33.509  1.00  0.00     0.009 A 
HETATM   26  C   UNL     1      -5.129  -1.440 -33.539  1.00  0.00     0.037 A 
ENDBRANCH  19  20
ENDBRANCH  18  19
ENDBRANCH   1  18
TORSDOF 5
ENDMDL
MODEL 9
REMARK VINA RESULT:      -7.6      7.270     11.275
REMARK  5 active torsions:
REMARK  status: ('A' for Active; 'I' for Inactive)
REMARK    1  A    between atoms: C_5  and  O_6 
REMARK    2  A    between atoms: O_6  and  C_7 
REMARK    3  A    between atoms: C_7  and  C_8 
REMARK       I    between atoms: C_8  and  N_9 
REMARK    4  A    between atoms: N_9  and  N_10 
REMARK    5  A    between atoms: C_11  and  C_12 
ROOT
HETATM    1  C   UNL     1      -1.436   5.236 -30.738  1.00  0.00     0.261 C 
HETATM    2  N   UNL     1      -2.775   4.997 -31.013  1.00  0.00    -0.246 N 
HETATM    3  O   UNL     1      -0.499   4.516 -31.083  1.00  0.00    -0.269 OA
HETATM    4  H   UNL     1      -3.472   5.680 -30.734  1.00  0.00     0.192 HD
ENDROOT
BRANCH   2   5
HETATM    5  N   UNL     1      -3.127   3.891 -31.729  1.00  0.00    -0.184 NA
HETATM    6  C   UNL     1      -4.335   3.460 -31.572  1.00  0.00     0.153 C 
BRANCH   6   7
HETATM    7  C   UNL     1      -4.780   2.284 -32.300  1.00  0.00     0.018 A 
HETATM    8  C   UNL     1      -4.269   0.943 -32.237  1.00  0.00     0.004 A 
HETATM    9  C   UNL     1      -5.019   0.166 -33.119  1.00  0.00     0.043 A 
HETATM   10  C   UNL     1      -3.232   0.312 -31.515  1.00  0.00     0.014 A 
HETATM   11  C   UNL     1      -4.790  -1.202 -33.315  1.00  0.00     0.030 A 
HETATM   12  N   UNL     1      -5.953   0.994 -33.692  1.00  0.00    -0.358 N 
HETATM   13  C   UNL     1      -3.756  -1.798 -32.587  1.00  0.00     0.002 A 
HETATM   14  C   UNL     1      -2.986  -1.054 -31.698  1.00  0.00     0.001 A 
HETATM   15  H   UNL     1      -6.637   0.688 -34.370  1.00  0.00     0.166 HD
HETATM   16  C   UNL     1      -5.827   2.276 -33.215  1.00  0.00     0.018 A 
HETATM   17  C   UNL     1      -6.739   3.357 -33.671  1.00  0.00     0.069 C 
ENDBRANCH   6   7
ENDBRANCH   2   5
BRANCH   1  18
HETATM   18  C   UNL     1      -1.213   6.450 -29.844  1.00  0.00     0.280 C 
BRANCH  18  19
HETATM   19  O   UNL     1       0.136   6.919 -29.930  1.00  0.00    -0.342 OA
BRANCH  19  20
HETATM   20  C   UNL     1       0.605   7.298 -28.699  1.00  0.00     0.069 A 
HETATM   21  C   UNL     1       1.312   8.495 -28.620  1.00  0.00     0.037 A 
HETATM   22  C   UNL     1       1.814   8.929 -27.389  1.00  0.00     0.009 A 
HETATM   23  C   UNL     1       1.589   8.179 -26.228  1.00  0.00    -0.062 A 
HETATM   24  C   UNL     1       2.142   8.619 -24.904  1.00  0.00     0.048 C 
HETATM   25  C   UNL     1       0.855   6.988 -26.318  1.00  0.00     0.009 A 
HETATM   26  C   UNL     1       0.356   6.554 -27.547  1.00  0.00     0.037 A 
ENDBRANCH  19  20
ENDBRANCH  18  19
ENDBRANCH   1  18
TORSDOF 5
ENDMDL
MODEL 10
REMARK VINA RESULT:      -7.5      5.135      9.216
REMARK  5 active torsions:
REMARK  status: ('A' for Active; 'I' for Inactive)
REMARK    1  A    between atoms: C_5  and  O_6 
REMARK    2  A    between atoms: O_6  and  C_7 
REMARK    3  A    between atoms: C_7  and  C_8 
REMARK       I    between atoms: C_8  and  N_9 
REMARK    4  A    between atoms: N_9  and  N_10 
REMARK    5  A    between atoms: C_11  and  C_12 
ROOT
HETATM    1  C   UNL     1      -5.497   1.803 -31.829  1.00  0.00     0.261 C 
HETATM    2  N   UNL     1      -4.861   2.599 -32.771  1.00  0.00    -0.246 N 
HETATM    3  O   UNL     1      -5.226   1.766 -30.630  1.00  0.00    -0.269 OA
HETATM    4  H   UNL     1      -5.194   2.602 -33.730  1.00  0.00     0.192 HD
ENDROOT
BRANCH   2   5
HETATM    5  N   UNL     1      -3.853   3.430 -32.379  1.00  0.00    -0.184 NA
HETATM    6  C   UNL     1      -3.749   4.552 -33.011  1.00  0.00     0.153 C 
BRANCH   6   7
HETATM    7  C   UNL     1      -2.697   5.486 -32.649  1.00  0.00     0.018 A 
HETATM    8  C   UNL     1      -2.531   6.221 -31.426  1.00  0.00     0.004 A 
HETATM    9  C   UNL     1      -1.372   6.987 -31.551  1.00  0.00     0.043 A 
HETATM   10  C   UNL     1      -3.260   6.315 -30.220  1.00  0.00     0.014 A 
HETATM   11  C   UNL     1      -0.905   7.835 -30.538  1.00  0.00     0.030 A 
HETATM   12  N   UNL     1      -0.847   6.727 -32.792  1.00  0.00    -0.358 N 
HETATM   13  C   UNL     1      -1.649   7.907 -29.357  1.00  0.00     0.002 A 
HETATM   14  C   UNL     1      -2.811   7.158 -29.197  1.00  0.00     0.001 A 
HETATM   15  H   UNL     1       0.003   7.145 -33.145  1.00  0.00     0.166 HD
HETATM   16  C   UNL     1      -1.630   5.825 -33.474  1.00  0.00     0.018 A 
HETATM   17  C   UNL     1      -1.261   5.368 -34.838  1.00  0.00     0.069 C 
ENDBRANCH   6   7
ENDBRANCH   2   5
BRANCH   1  18
HETATM   18  C   UNL     1      -6.526   0.857 -32.438  1.00  0.00     0.280 C 
BRANCH  18  19
HETATM   19  O   UNL     1      -6.237   0.592 -33.814  1.00  0.00    -0.342 OA
BRANCH  19  20
HETATM   20  C   UNL     1      -5.963  -0.736 -34.013  1.00  0.00     0.069 A 
HETATM   21  C   UNL     1      -6.998  -1.546 -34.474  1.00  0.00     0.037 A 
HETATM   22  C   UNL     1      -6.773  -2.908 -34.693  1.00  0.00     0.009 A 
HETATM   23  C   UNL     1      -5.505  -3.461 -34.475  1.00  0.00    -0.062 A 
HETATM   24  C   UNL     1      -5.255  -4.927 -34.682  1.00  0.00     0.048 C 
HETATM   25  C   UNL     1      -4.466  -2.631 -34.034  1.00  0.00     0.009 A 
HETATM   26  C   UNL     1      -4.691  -1.271 -33.813  1.00  0.00     0.037 A 
ENDBRANCH  19  20
ENDBRANCH  18  19
ENDBRANCH   1  18
TORSDOF 5
ENDMDL
