MODEL 1
REMARK VINA RESULT:      -8.2      0.000      0.000
REMARK  3 active torsions:
REMARK  status: ('A' for Active; 'I' for Inactive)
REMARK    1  A    between atoms: C_2  and  C_3 
REMARK    2  A    between atoms: C_8  and  C_9 
REMARK    3  A    between atoms: C_9  and  N_10 
ROOT
HETATM    1  C   UNL     1      -4.174   1.819 -31.864  1.00  0.00     0.096 A 
HETATM    2  N   UNL     1      -2.977   2.411 -31.761  1.00  0.00    -0.174 NA
HETATM    3  N   UNL     1      -3.206   3.579 -31.161  1.00  0.00    -0.288 N 
HETATM    4  H   UNL     1      -2.408   4.172 -30.942  1.00  0.00     0.188 HD
HETATM    5  C   UNL     1      -4.531   3.812 -30.935  1.00  0.00     0.120 A 
HETATM    6  C   UNL     1      -5.208   2.696 -31.396  1.00  0.00     0.016 A 
ENDROOT
BRANCH   6   7
HETATM    7  C   UNL     1      -6.675   2.456 -31.383  1.00  0.00     0.277 C 
BRANCH   7   8
HETATM    8  N   UNL     1      -7.490   3.598 -31.951  1.00  0.00    -0.067 N 
HETATM    9  H   UNL     1      -6.890   4.417 -31.796  1.00  0.00     0.280 HD
HETATM   10  C   UNL     1      -7.715   3.558 -33.444  1.00  0.00     0.242 C 
HETATM   11  C   UNL     1      -8.868   2.644 -33.873  1.00  0.00     0.041 C 
HETATM   12  C   UNL     1     -10.102   2.806 -32.983  1.00  0.00     0.128 C 
HETATM   13  C   UNL     1      -8.471   1.178 -34.119  1.00  0.00     0.011 C 
HETATM   14  O   UNL     1     -11.091   1.846 -33.312  1.00  0.00    -0.385 OA
HETATM   15  C   UNL     1      -9.814   2.851 -31.485  1.00  0.00     0.060 C 
HETATM   16  C   UNL     1     -10.733   0.471 -33.209  1.00  0.00     0.168 C 
HETATM   17  C   UNL     1      -9.239   0.179 -33.271  1.00  0.00     0.027 C 
HETATM   18  C   UNL     1      -8.751   3.885 -31.178  1.00  0.00     0.237 C 
ENDBRANCH   7   8
ENDBRANCH   6   7
BRANCH   1  19
HETATM   19  C   UNL     1      -4.284   0.474 -32.434  1.00  0.00    -0.002 A 
HETATM   20  C   UNL     1      -5.200   0.226 -33.469  1.00  0.00     0.017 A 
HETATM   21  C   UNL     1      -5.340  -1.057 -34.007  1.00  0.00     0.040 A 
HETATM   22  C   UNL     1      -4.566  -2.103 -33.513  1.00  0.00     0.102 A 
HETATM   23  C   UNL     1      -3.659  -1.868 -32.477  1.00  0.00     0.103 A 
HETATM   24  O   UNL     1      -4.747  -3.332 -34.086  1.00  0.00    -0.346 OA
HETATM   25  C   UNL     1      -3.491  -0.582 -31.966  1.00  0.00     0.053 A 
HETATM   26  O   UNL     1      -2.896  -2.855 -31.906  1.00  0.00    -0.346 OA
HETATM   27  C   UNL     1      -3.358  -4.162 -32.282  1.00  0.00     0.202 C 
HETATM   28  C   UNL     1      -3.668  -4.221 -33.769  1.00  0.00     0.202 C 
ENDBRANCH   1  19
TORSDOF 3
ENDMDL
MODEL 2
REMARK VINA RESULT:      -8.1      2.770      5.172
REMARK  3 active torsions:
REMARK  status: ('A' for Active; 'I' for Inactive)
REMARK    1  A    between atoms: C_2  and  C_3 
REMARK    2  A    between atoms: C_8  and  C_9 
REMARK    3  A    between atoms: C_9  and  N_10 
ROOT
HETATM    1  C   UNL     1      -7.304   0.927 -33.080  1.00  0.00     0.096 A 
HETATM    2  N   UNL     1      -8.624   0.835 -32.876  1.00  0.00    -0.174 NA
HETATM    3  N   UNL     1      -9.041   2.082 -32.655  1.00  0.00    -0.288 N 
HETATM    4  H   UNL     1     -10.037   2.240 -32.523  1.00  0.00     0.188 HD
HETATM    5  C   UNL     1      -8.021   2.988 -32.629  1.00  0.00     0.120 A 
HETATM    6  C   UNL     1      -6.860   2.277 -32.883  1.00  0.00     0.016 A 
ENDROOT
BRANCH   6   7
HETATM    7  C   UNL     1      -5.472   2.804 -32.957  1.00  0.00     0.277 C 
BRANCH   7   8
HETATM    8  N   UNL     1      -4.767   2.870 -31.619  1.00  0.00    -0.067 N 
HETATM    9  H   UNL     1      -5.091   2.022 -31.139  1.00  0.00     0.280 HD
HETATM   10  C   UNL     1      -3.264   2.740 -31.668  1.00  0.00     0.242 C 
HETATM   11  C   UNL     1      -2.539   4.046 -32.011  1.00  0.00     0.041 C 
HETATM   12  C   UNL     1      -3.113   5.246 -31.256  1.00  0.00     0.128 C 
HETATM   13  C   UNL     1      -2.342   4.297 -33.516  1.00  0.00     0.011 C 
HETATM   14  O   UNL     1      -2.522   6.454 -31.705  1.00  0.00    -0.385 OA
HETATM   15  C   UNL     1      -4.637   5.321 -31.230  1.00  0.00     0.060 C 
HETATM   16  C   UNL     1      -2.658   6.779 -33.085  1.00  0.00     0.168 C 
HETATM   17  C   UNL     1      -2.945   5.602 -34.008  1.00  0.00     0.027 C 
HETATM   18  C   UNL     1      -5.226   4.012 -30.749  1.00  0.00     0.237 C 
ENDBRANCH   7   8
ENDBRANCH   6   7
BRANCH   1  19
HETATM   19  C   UNL     1      -6.525  -0.268 -33.412  1.00  0.00    -0.002 A 
HETATM   20  C   UNL     1      -5.128  -0.255 -33.267  1.00  0.00     0.017 A 
HETATM   21  C   UNL     1      -4.364  -1.376 -33.605  1.00  0.00     0.040 A 
HETATM   22  C   UNL     1      -4.991  -2.519 -34.093  1.00  0.00     0.102 A 
HETATM   23  C   UNL     1      -6.378  -2.538 -34.250  1.00  0.00     0.103 A 
HETATM   24  O   UNL     1      -4.186  -3.583 -34.400  1.00  0.00    -0.346 OA
HETATM   25  C   UNL     1      -7.145  -1.435 -33.877  1.00  0.00     0.053 A 
HETATM   26  O   UNL     1      -7.062  -3.609 -34.769  1.00  0.00    -0.346 OA
HETATM   27  C   UNL     1      -6.175  -4.548 -35.394  1.00  0.00     0.202 C 
HETATM   28  C   UNL     1      -4.946  -4.791 -34.532  1.00  0.00     0.202 C 
ENDBRANCH   1  19
TORSDOF 3
ENDMDL
MODEL 3
REMARK VINA RESULT:      -8.1      3.720      6.843
REMARK  3 active torsions:
REMARK  status: ('A' for Active; 'I' for Inactive)
REMARK    1  A    between atoms: C_2  and  C_3 
REMARK    2  A    between atoms: C_8  and  C_9 
REMARK    3  A    between atoms: C_9  and  N_10 
ROOT
HETATM    1  C   UNL     1      -6.649   4.526 -33.875  1.00  0.00     0.096 A 
HETATM    2  N   UNL     1      -7.726   5.314 -33.984  1.00  0.00    -0.174 NA
HETATM    3  N   UNL     1      -8.776   4.493 -33.936  1.00  0.00    -0.288 N 
HETATM    4  H   UNL     1      -9.708   4.903 -33.955  1.00  0.00     0.188 HD
HETATM    5  C   UNL     1      -8.423   3.177 -33.876  1.00  0.00     0.120 A 
HETATM    6  C   UNL     1      -7.038   3.145 -33.854  1.00  0.00     0.016 A 
ENDROOT
BRANCH   6   7
HETATM    7  C   UNL     1      -6.160   1.947 -33.796  1.00  0.00     0.277 C 
BRANCH   7   8
HETATM    8  N   UNL     1      -5.714   1.578 -32.397  1.00  0.00    -0.067 N 
HETATM    9  H   UNL     1      -5.970   2.404 -31.843  1.00  0.00     0.280 HD
HETATM   10  C   UNL     1      -6.461   0.432 -31.758  1.00  0.00     0.242 C 
HETATM   11  C   UNL     1      -5.957  -0.951 -32.184  1.00  0.00     0.041 C 
HETATM   12  C   UNL     1      -4.430  -1.034 -32.202  1.00  0.00     0.128 C 
HETATM   13  C   UNL     1      -6.623  -1.517 -33.450  1.00  0.00     0.011 C 
HETATM   14  O   UNL     1      -3.997  -2.272 -32.741  1.00  0.00    -0.385 OA
HETATM   15  C   UNL     1      -3.728   0.156 -32.851  1.00  0.00     0.060 C 
HETATM   16  C   UNL     1      -4.406  -2.590 -34.068  1.00  0.00     0.168 C 
HETATM   17  C   UNL     1      -5.645  -1.856 -34.563  1.00  0.00     0.027 C 
HETATM   18  C   UNL     1      -4.220   1.456 -32.250  1.00  0.00     0.237 C 
ENDBRANCH   7   8
ENDBRANCH   6   7
BRANCH   1  19
HETATM   19  C   UNL     1      -5.308   5.114 -33.835  1.00  0.00    -0.002 A 
HETATM   20  C   UNL     1      -4.434   4.936 -34.920  1.00  0.00     0.017 A 
HETATM   21  C   UNL     1      -3.140   5.465 -34.890  1.00  0.00     0.040 A 
HETATM   22  C   UNL     1      -2.709   6.175 -33.773  1.00  0.00     0.102 A 
HETATM   23  C   UNL     1      -3.567   6.348 -32.685  1.00  0.00     0.103 A 
HETATM   24  O   UNL     1      -1.434   6.671 -33.809  1.00  0.00    -0.346 OA
HETATM   25  C   UNL     1      -4.870   5.854 -32.730  1.00  0.00     0.053 A 
HETATM   26  O   UNL     1      -3.199   6.994 -31.531  1.00  0.00    -0.346 OA
HETATM   27  C   UNL     1      -1.778   7.187 -31.466  1.00  0.00     0.202 C 
HETATM   28  C   UNL     1      -1.234   7.670 -32.800  1.00  0.00     0.202 C 
ENDBRANCH   1  19
TORSDOF 3
ENDMDL
MODEL 4
REMARK VINA RESULT:      -8.1      2.717      4.767
REMARK  3 active torsions:
REMARK  status: ('A' for Active; 'I' for Inactive)
REMARK    1  A    between atoms: C_2  and  C_3 
REMARK    2  A    between atoms: C_8  and  C_9 
REMARK    3  A    between atoms: C_9  and  N_10 
ROOT
HETATM    1  C   UNL     1      -7.945   1.096 -31.910  1.00  0.00     0.096 A 
HETATM    2  N   UNL     1      -9.144   0.807 -31.388  1.00  0.00    -0.174 NA
HETATM    3  N   UNL     1      -9.546   1.921 -30.775  1.00  0.00    -0.288 N 
HETATM    4  H   UNL     1     -10.469   1.928 -30.346  1.00  0.00     0.188 HD
HETATM    5  C   UNL     1      -8.612   2.915 -30.809  1.00  0.00     0.120 A 
HETATM    6  C   UNL     1      -7.537   2.416 -31.525  1.00  0.00     0.016 A 
ENDROOT
BRANCH   6   7
HETATM    7  C   UNL     1      -6.259   3.107 -31.842  1.00  0.00     0.277 C 
BRANCH   7   8
HETATM    8  N   UNL     1      -6.280   4.596 -31.566  1.00  0.00    -0.067 N 
HETATM    9  H   UNL     1      -7.121   4.717 -30.990  1.00  0.00     0.280 HD
HETATM   10  C   UNL     1      -5.146   5.115 -30.715  1.00  0.00     0.242 C 
HETATM   11  C   UNL     1      -3.852   5.372 -31.494  1.00  0.00     0.041 C 
HETATM   12  C   UNL     1      -4.106   6.076 -32.828  1.00  0.00     0.128 C 
HETATM   13  C   UNL     1      -2.915   4.156 -31.605  1.00  0.00     0.011 C 
HETATM   14  O   UNL     1      -2.913   6.164 -33.588  1.00  0.00    -0.385 OA
HETATM   15  C   UNL     1      -5.270   5.515 -33.642  1.00  0.00     0.060 C 
HETATM   16  C   UNL     1      -2.258   4.945 -33.926  1.00  0.00     0.168 C 
HETATM   17  C   UNL     1      -2.588   3.757 -33.034  1.00  0.00     0.027 C 
HETATM   18  C   UNL     1      -6.522   5.435 -32.793  1.00  0.00     0.237 C 
ENDBRANCH   7   8
ENDBRANCH   6   7
BRANCH   1  19
HETATM   19  C   UNL     1      -7.232   0.098 -32.712  1.00  0.00    -0.002 A 
HETATM   20  C   UNL     1      -7.772  -0.331 -33.935  1.00  0.00     0.017 A 
HETATM   21  C   UNL     1      -7.121  -1.303 -34.701  1.00  0.00     0.040 A 
HETATM   22  C   UNL     1      -5.926  -1.855 -34.249  1.00  0.00     0.102 A 
HETATM   23  C   UNL     1      -5.386  -1.442 -33.029  1.00  0.00     0.103 A 
HETATM   24  O   UNL     1      -5.337  -2.797 -35.048  1.00  0.00    -0.346 OA
HETATM   25  C   UNL     1      -6.014  -0.445 -32.282  1.00  0.00     0.053 A 
HETATM   26  O   UNL     1      -4.239  -1.972 -32.494  1.00  0.00    -0.346 OA
HETATM   27  C   UNL     1      -3.850  -3.176 -33.172  1.00  0.00     0.202 C 
HETATM   28  C   UNL     1      -3.969  -3.014 -34.678  1.00  0.00     0.202 C 
ENDBRANCH   1  19
TORSDOF 3
ENDMDL
MODEL 5
REMARK VINA RESULT:      -8.0      3.177      5.610
REMARK  3 active torsions:
REMARK  status: ('A' for Active; 'I' for Inactive)
REMARK    1  A    between atoms: C_2  and  C_3 
REMARK    2  A    between atoms: C_8  and  C_9 
REMARK    3  A    between atoms: C_9  and  N_10 
ROOT
HETATM    1  C   UNL     1      -3.490   1.147 -31.828  1.00  0.00     0.096 A 
HETATM    2  N   UNL     1      -2.614   0.530 -31.025  1.00  0.00    -0.174 NA
HETATM    3  N   UNL     1      -2.773  -0.774 -31.256  1.00  0.00    -0.288 N 
HETATM    4  H   UNL     1      -2.159  -1.426 -30.773  1.00  0.00     0.188 HD
HETATM    5  C   UNL     1      -3.783  -1.041 -32.132  1.00  0.00     0.120 A 
HETATM    6  C   UNL     1      -4.298   0.184 -32.521  1.00  0.00     0.016 A 
ENDROOT
BRANCH   6   7
HETATM    7  C   UNL     1      -5.419   0.440 -33.463  1.00  0.00     0.277 C 
BRANCH   7   8
HETATM    8  N   UNL     1      -6.620  -0.457 -33.248  1.00  0.00    -0.067 N 
HETATM    9  H   UNL     1      -6.198  -1.356 -32.987  1.00  0.00     0.280 HD
HETATM   10  C   UNL     1      -7.506  -0.089 -32.082  1.00  0.00     0.242 C 
HETATM   11  C   UNL     1      -8.510   1.026 -32.394  1.00  0.00     0.041 C 
HETATM   12  C   UNL     1      -9.184   0.839 -33.754  1.00  0.00     0.128 C 
HETATM   13  C   UNL     1      -7.984   2.452 -32.155  1.00  0.00     0.011 C 
HETATM   14  O   UNL     1      -9.991   1.958 -34.076  1.00  0.00    -0.385 OA
HETATM   15  C   UNL     1      -8.242   0.458 -34.893  1.00  0.00     0.060 C 
HETATM   16  C   UNL     1      -9.354   3.230 -34.146  1.00  0.00     0.168 C 
HETATM   17  C   UNL     1      -8.040   3.345 -33.383  1.00  0.00     0.027 C 
HETATM   18  C   UNL     1      -7.398  -0.739 -34.506  1.00  0.00     0.237 C 
ENDBRANCH   7   8
ENDBRANCH   6   7
BRANCH   1  19
HETATM   19  C   UNL     1      -3.545   2.610 -31.871  1.00  0.00    -0.002 A 
HETATM   20  C   UNL     1      -4.490   3.297 -31.091  1.00  0.00     0.017 A 
HETATM   21  C   UNL     1      -4.577   4.692 -31.139  1.00  0.00     0.040 A 
HETATM   22  C   UNL     1      -3.723   5.410 -31.970  1.00  0.00     0.102 A 
HETATM   23  C   UNL     1      -2.788   4.736 -32.758  1.00  0.00     0.103 A 
HETATM   24  O   UNL     1      -3.857   6.772 -31.967  1.00  0.00    -0.346 OA
HETATM   25  C   UNL     1      -2.673   3.348 -32.681  1.00  0.00     0.053 A 
HETATM   26  O   UNL     1      -1.944   5.369 -33.635  1.00  0.00    -0.346 OA
HETATM   27  C   UNL     1      -2.345   6.729 -33.861  1.00  0.00     0.202 C 
HETATM   28  C   UNL     1      -2.715   7.411 -32.554  1.00  0.00     0.202 C 
ENDBRANCH   1  19
TORSDOF 3
ENDMDL
MODEL 6
REMARK VINA RESULT:      -7.9      2.841      5.429
REMARK  3 active torsions:
REMARK  status: ('A' for Active; 'I' for Inactive)
REMARK    1  A    between atoms: C_2  and  C_3 
REMARK    2  A    between atoms: C_8  and  C_9 
REMARK    3  A    between atoms: C_9  and  N_10 
ROOT
HETATM    1  C   UNL     1      -3.710   0.451 -31.372  1.00  0.00     0.096 A 
HETATM    2  N   UNL     1      -2.439   0.071 -31.188  1.00  0.00    -0.174 NA
HETATM    3  N   UNL     1      -2.401  -1.222 -31.512  1.00  0.00    -0.288 N 
HETATM    4  H   UNL     1      -1.502  -1.698 -31.486  1.00  0.00     0.188 HD
HETATM    5  C   UNL     1      -3.627  -1.728 -31.832  1.00  0.00     0.120 A 
HETATM    6  C   UNL     1      -4.521  -0.675 -31.736  1.00  0.00     0.016 A 
ENDROOT
BRANCH   6   7
HETATM    7  C   UNL     1      -5.987  -0.705 -31.980  1.00  0.00     0.277 C 
BRANCH   7   8
HETATM    8  N   UNL     1      -6.367  -0.683 -33.446  1.00  0.00    -0.067 N 
HETATM    9  H   UNL     1      -5.838  -1.470 -33.838  1.00  0.00     0.280 HD
HETATM   10  C   UNL     1      -7.813  -0.997 -33.748  1.00  0.00     0.242 C 
HETATM   11  C   UNL     1      -8.756   0.199 -33.581  1.00  0.00     0.041 C 
HETATM   12  C   UNL     1      -8.179   1.483 -34.179  1.00  0.00     0.128 C 
HETATM   13  C   UNL     1      -9.324   0.378 -32.162  1.00  0.00     0.011 C 
HETATM   14  O   UNL     1      -9.003   2.596 -33.877  1.00  0.00    -0.385 OA
HETATM   15  C   UNL     1      -6.711   1.745 -33.849  1.00  0.00     0.060 C 
HETATM   16  C   UNL     1      -9.231   2.892 -32.503  1.00  0.00     0.168 C 
HETATM   17  C   UNL     1      -9.019   1.731 -31.541  1.00  0.00     0.027 C 
HETATM   18  C   UNL     1      -5.868   0.532 -34.183  1.00  0.00     0.237 C 
ENDBRANCH   7   8
ENDBRANCH   6   7
BRANCH   1  19
HETATM   19  C   UNL     1      -4.099   1.847 -31.159  1.00  0.00    -0.002 A 
HETATM   20  C   UNL     1      -3.279   2.882 -31.637  1.00  0.00     0.017 A 
HETATM   21  C   UNL     1      -3.618   4.221 -31.419  1.00  0.00     0.040 A 
HETATM   22  C   UNL     1      -4.779   4.535 -30.719  1.00  0.00     0.102 A 
HETATM   23  C   UNL     1      -5.596   3.514 -30.231  1.00  0.00     0.103 A 
HETATM   24  O   UNL     1      -5.056   5.864 -30.544  1.00  0.00    -0.346 OA
HETATM   25  C   UNL     1      -5.279   2.178 -30.481  1.00  0.00     0.053 A 
HETATM   26  O   UNL     1      -6.729   3.743 -29.492  1.00  0.00    -0.346 OA
HETATM   27  C   UNL     1      -6.795   5.103 -29.038  1.00  0.00     0.202 C 
HETATM   28  C   UNL     1      -6.420   6.066 -30.152  1.00  0.00     0.202 C 
ENDBRANCH   1  19
TORSDOF 3
ENDMDL
MODEL 7
REMARK VINA RESULT:      -7.8      6.820      9.883
REMARK  3 active torsions:
REMARK  status: ('A' for Active; 'I' for Inactive)
REMARK    1  A    between atoms: C_2  and  C_3 
REMARK    2  A    between atoms: C_8  and  C_9 
REMARK    3  A    between atoms: C_9  and  N_10 
ROOT
HETATM    1  C   UNL     1      -0.173   5.380 -30.386  1.00  0.00     0.096 A 
HETATM    2  N   UNL     1       0.617   4.309 -30.233  1.00  0.00    -0.174 NA
HETATM    3  N   UNL     1       1.185   4.451 -29.035  1.00  0.00    -0.288 N 
HETATM    4  H   UNL     1       1.796   3.708 -28.701  1.00  0.00     0.188 HD
HETATM    5  C   UNL     1       0.854   5.624 -28.423  1.00  0.00     0.120 A 
HETATM    6  C   UNL     1      -0.019   6.277 -29.277  1.00  0.00     0.016 A 
ENDROOT
BRANCH   6   7
HETATM    7  C   UNL     1      -0.667   7.600 -29.074  1.00  0.00     0.277 C 
BRANCH   7   8
HETATM    8  N   UNL     1      -1.769   7.592 -28.036  1.00  0.00    -0.067 N 
HETATM    9  H   UNL     1      -2.364   6.808 -28.329  1.00  0.00     0.280 HD
HETATM   10  C   UNL     1      -1.336   7.248 -26.631  1.00  0.00     0.242 C 
HETATM   11  C   UNL     1      -0.742   8.430 -25.857  1.00  0.00     0.041 C 
HETATM   12  C   UNL     1      -1.550   9.715 -26.046  1.00  0.00     0.128 C 
HETATM   13  C   UNL     1       0.774   8.621 -26.038  1.00  0.00     0.011 C 
HETATM   14  O   UNL     1      -0.895  10.817 -25.443  1.00  0.00    -0.385 OA
HETATM   15  C   UNL     1      -1.969  10.007 -27.484  1.00  0.00     0.060 C 
HETATM   16  C   UNL     1       0.419  11.130 -25.898  1.00  0.00     0.168 C 
HETATM   17  C   UNL     1       1.165   9.988 -26.573  1.00  0.00     0.027 C 
HETATM   18  C   UNL     1      -2.661   8.804 -28.091  1.00  0.00     0.237 C 
ENDBRANCH   7   8
ENDBRANCH   6   7
BRANCH   1  19
HETATM   19  C   UNL     1      -1.002   5.518 -31.586  1.00  0.00    -0.002 A 
HETATM   20  C   UNL     1      -0.705   6.514 -32.529  1.00  0.00     0.017 A 
HETATM   21  C   UNL     1      -1.500   6.681 -33.667  1.00  0.00     0.040 A 
HETATM   22  C   UNL     1      -2.601   5.853 -33.869  1.00  0.00     0.102 A 
HETATM   23  C   UNL     1      -2.911   4.867 -32.931  1.00  0.00     0.103 A 
HETATM   24  O   UNL     1      -3.335   6.065 -35.004  1.00  0.00    -0.346 OA
HETATM   25  C   UNL     1      -2.096   4.674 -31.815  1.00  0.00     0.053 A 
HETATM   26  O   UNL     1      -4.005   4.045 -33.035  1.00  0.00    -0.346 OA
HETATM   27  C   UNL     1      -4.926   4.519 -34.029  1.00  0.00     0.202 C 
HETATM   28  C   UNL     1      -4.191   4.951 -35.288  1.00  0.00     0.202 C 
ENDBRANCH   1  19
TORSDOF 3
ENDMDL
MODEL 8
REMARK VINA RESULT:      -7.8      2.730      4.794
REMARK  3 active torsions:
REMARK  status: ('A' for Active; 'I' for Inactive)
REMARK    1  A    between atoms: C_2  and  C_3 
REMARK    2  A    between atoms: C_8  and  C_9 
REMARK    3  A    between atoms: C_9  and  N_10 
ROOT
HETATM    1  C   UNL     1      -9.616   0.276 -33.017  1.00  0.00     0.096 A 
HETATM    2  N   UNL     1     -10.644  -0.552 -32.793  1.00  0.00    -0.174 NA
HETATM    3  N   UNL     1     -11.730   0.105 -33.203  1.00  0.00    -0.288 N 
HETATM    4  H   UNL     1     -12.626  -0.375 -33.163  1.00  0.00     0.188 HD
HETATM    5  C   UNL     1     -11.458   1.375 -33.620  1.00  0.00     0.120 A 
HETATM    6  C   UNL     1     -10.089   1.542 -33.499  1.00  0.00     0.016 A 
ENDROOT
BRANCH   6   7
HETATM    7  C   UNL     1      -9.291   2.755 -33.820  1.00  0.00     0.277 C 
BRANCH   7   8
HETATM    8  N   UNL     1      -9.395   3.852 -32.782  1.00  0.00    -0.067 N 
HETATM    9  H   UNL     1     -10.305   3.674 -32.341  1.00  0.00     0.280 HD
HETATM   10  C   UNL     1      -8.393   3.777 -31.655  1.00  0.00     0.242 C 
HETATM   11  C   UNL     1      -7.021   4.363 -32.003  1.00  0.00     0.041 C 
HETATM   12  C   UNL     1      -7.129   5.690 -32.757  1.00  0.00     0.128 C 
HETATM   13  C   UNL     1      -6.039   3.366 -32.643  1.00  0.00     0.011 C 
HETATM   14  O   UNL     1      -5.854   6.128 -33.193  1.00  0.00    -0.385 OA
HETATM   15  C   UNL     1      -8.164   5.711 -33.879  1.00  0.00     0.060 C 
HETATM   16  C   UNL     1      -5.123   5.264 -34.058  1.00  0.00     0.168 C 
HETATM   17  C   UNL     1      -5.523   3.796 -34.006  1.00  0.00     0.027 C 
HETATM   18  C   UNL     1      -9.508   5.233 -33.371  1.00  0.00     0.237 C 
ENDBRANCH   7   8
ENDBRANCH   6   7
BRANCH   1  19
HETATM   19  C   UNL     1      -8.246  -0.156 -32.728  1.00  0.00    -0.002 A 
HETATM   20  C   UNL     1      -7.628   0.236 -31.530  1.00  0.00     0.017 A 
HETATM   21  C   UNL     1      -6.311  -0.142 -31.249  1.00  0.00     0.040 A 
HETATM   22  C   UNL     1      -5.602  -0.913 -32.165  1.00  0.00     0.102 A 
HETATM   23  C   UNL     1      -6.205  -1.299 -33.364  1.00  0.00     0.103 A 
HETATM   24  O   UNL     1      -4.320  -1.254 -31.827  1.00  0.00    -0.346 OA
HETATM   25  C   UNL     1      -7.531  -0.955 -33.628  1.00  0.00     0.053 A 
HETATM   26  O   UNL     1      -5.557  -2.018 -34.336  1.00  0.00    -0.346 OA
HETATM   27  C   UNL     1      -4.140  -2.053 -34.108  1.00  0.00     0.202 C 
HETATM   28  C   UNL     1      -3.832  -2.325 -32.645  1.00  0.00     0.202 C 
ENDBRANCH   1  19
TORSDOF 3
ENDMDL
MODEL 9
REMARK VINA RESULT:      -7.7      1.721      6.596
REMARK  3 active torsions:
REMARK  status: ('A' for Active; 'I' for Inactive)
REMARK    1  A    between atoms: C_2  and  C_3 
REMARK    2  A    between atoms: C_8  and  C_9 
REMARK    3  A    between atoms: C_9  and  N_10 
ROOT
HETATM    1  C   UNL     1      -7.720   3.911 -33.504  1.00  0.00     0.096 A 
HETATM    2  N   UNL     1      -7.927   5.235 -33.478  1.00  0.00    -0.174 NA
HETATM    3  N   UNL     1      -6.715   5.788 -33.545  1.00  0.00    -0.288 N 
HETATM    4  H   UNL     1      -6.652   6.803 -33.587  1.00  0.00     0.188 HD
HETATM    5  C   UNL     1      -5.708   4.868 -33.536  1.00  0.00     0.120 A 
HETATM    6  C   UNL     1      -6.315   3.624 -33.490  1.00  0.00     0.016 A 
ENDROOT
BRANCH   6   7
HETATM    7  C   UNL     1      -5.654   2.293 -33.458  1.00  0.00     0.277 C 
BRANCH   7   8
HETATM    8  N   UNL     1      -5.119   1.904 -32.096  1.00  0.00    -0.067 N 
HETATM    9  H   UNL     1      -5.237   2.762 -31.543  1.00  0.00     0.280 HD
HETATM   10  C   UNL     1      -5.914   0.853 -31.361  1.00  0.00     0.242 C 
HETATM   11  C   UNL     1      -5.595  -0.582 -31.793  1.00  0.00     0.041 C 
HETATM   12  C   UNL     1      -4.093  -0.823 -31.949  1.00  0.00     0.128 C 
HETATM   13  C   UNL     1      -6.431  -1.098 -32.977  1.00  0.00     0.011 C 
HETATM   14  O   UNL     1      -3.841  -2.108 -32.491  1.00  0.00    -0.385 OA
HETATM   15  C   UNL     1      -3.338   0.276 -32.692  1.00  0.00     0.060 C 
HETATM   16  C   UNL     1      -4.402  -2.405 -33.766  1.00  0.00     0.168 C 
HETATM   17  C   UNL     1      -5.602  -1.556 -34.165  1.00  0.00     0.027 C 
HETATM   18  C   UNL     1      -3.638   1.631 -32.083  1.00  0.00     0.237 C 
ENDBRANCH   7   8
ENDBRANCH   6   7
BRANCH   1  19
HETATM   19  C   UNL     1      -8.858   2.989 -33.501  1.00  0.00    -0.002 A 
HETATM   20  C   UNL     1      -8.766   1.767 -32.815  1.00  0.00     0.017 A 
HETATM   21  C   UNL     1      -9.830   0.860 -32.824  1.00  0.00     0.040 A 
HETATM   22  C   UNL     1     -10.994   1.167 -33.522  1.00  0.00     0.102 A 
HETATM   23  C   UNL     1     -11.092   2.374 -34.217  1.00  0.00     0.103 A 
HETATM   24  O   UNL     1     -12.000   0.239 -33.487  1.00  0.00    -0.346 OA
HETATM   25  C   UNL     1     -10.046   3.296 -34.177  1.00  0.00     0.053 A 
HETATM   26  O   UNL     1     -12.186   2.726 -34.966  1.00  0.00    -0.346 OA
HETATM   27  C   UNL     1     -13.054   1.604 -35.190  1.00  0.00     0.202 C 
HETATM   28  C   UNL     1     -13.246   0.804 -33.912  1.00  0.00     0.202 C 
ENDBRANCH   1  19
TORSDOF 3
ENDMDL
MODEL 10
REMARK VINA RESULT:      -7.7      2.748      5.468
REMARK  3 active torsions:
REMARK  status: ('A' for Active; 'I' for Inactive)
REMARK    1  A    between atoms: C_2  and  C_3 
REMARK    2  A    between atoms: C_8  and  C_9 
REMARK    3  A    between atoms: C_9  and  N_10 
ROOT
HETATM    1  C   UNL     1      -4.590  -0.406 -32.267  1.00  0.00     0.096 A 
HETATM    2  N   UNL     1      -4.091  -1.640 -32.416  1.00  0.00    -0.174 NA
HETATM    3  N   UNL     1      -2.937  -1.643 -31.747  1.00  0.00    -0.288 N 
HETATM    4  H   UNL     1      -2.414  -2.514 -31.695  1.00  0.00     0.188 HD
HETATM    5  C   UNL     1      -2.621  -0.423 -31.224  1.00  0.00     0.120 A 
HETATM    6  C   UNL     1      -3.664   0.426 -31.555  1.00  0.00     0.016 A 
ENDROOT
BRANCH   6   7
HETATM    7  C   UNL     1      -3.799   1.869 -31.223  1.00  0.00     0.277 C 
BRANCH   7   8
HETATM    8  N   UNL     1      -3.586   2.794 -32.402  1.00  0.00    -0.067 N 
HETATM    9  H   UNL     1      -3.120   2.193 -33.092  1.00  0.00     0.280 HD
HETATM   10  C   UNL     1      -4.842   3.273 -33.088  1.00  0.00     0.242 C 
HETATM   11  C   UNL     1      -5.512   4.464 -32.394  1.00  0.00     0.041 C 
HETATM   12  C   UNL     1      -4.503   5.527 -31.958  1.00  0.00     0.128 C 
HETATM   13  C   UNL     1      -6.524   4.084 -31.298  1.00  0.00     0.011 C 
HETATM   14  O   UNL     1      -5.135   6.538 -31.191  1.00  0.00    -0.385 OA
HETATM   15  C   UNL     1      -3.248   4.985 -31.279  1.00  0.00     0.060 C 
HETATM   16  C   UNL     1      -5.798   6.139 -29.995  1.00  0.00     0.168 C 
HETATM   17  C   UNL     1      -6.206   4.673 -29.934  1.00  0.00     0.027 C 
HETATM   18  C   UNL     1      -2.608   3.907 -32.129  1.00  0.00     0.237 C 
ENDBRANCH   7   8
ENDBRANCH   6   7
BRANCH   1  19
HETATM   19  C   UNL     1      -5.897  -0.067 -32.836  1.00  0.00    -0.002 A 
HETATM   20  C   UNL     1      -6.131  -0.255 -34.208  1.00  0.00     0.017 A 
HETATM   21  C   UNL     1      -7.361   0.088 -34.777  1.00  0.00     0.040 A 
HETATM   22  C   UNL     1      -8.367   0.625 -33.978  1.00  0.00     0.102 A 
HETATM   23  C   UNL     1      -8.140   0.826 -32.615  1.00  0.00     0.103 A 
HETATM   24  O   UNL     1      -9.549   0.935 -34.594  1.00  0.00    -0.346 OA
HETATM   25  C   UNL     1      -6.927   0.448 -32.039  1.00  0.00     0.053 A 
HETATM   26  O   UNL     1      -9.063   1.393 -31.773  1.00  0.00    -0.346 OA
HETATM   27  C   UNL     1     -10.130   2.016 -32.504  1.00  0.00     0.202 C 
HETATM   28  C   UNL     1     -10.602   1.123 -33.640  1.00  0.00     0.202 C 
ENDBRANCH   1  19
TORSDOF 3
ENDMDL
