MODEL 1
REMARK VINA RESULT:      -8.9      0.000      0.000
REMARK  2 active torsions:
REMARK  status: ('A' for Active; 'I' for Inactive)
REMARK    1  A    between atoms: C_4  and  C_5 
REMARK    2  A    between atoms: C_10  and  C_11 
ROOT
HETATM    1  C   UNL     1      -5.493   1.256 -32.450  1.00  0.00     0.224 C 
HETATM    2  N   UNL     1      -4.732   0.012 -32.248  1.00  0.00    -0.359 N 
HETATM    3  C   UNL     1      -3.313   0.178 -31.937  1.00  0.00     0.152 C 
HETATM    4  C   UNL     1      -5.082  -1.017 -33.152  1.00  0.00     0.047 A 
HETATM    5  C   UNL     1      -6.390  -1.094 -33.666  1.00  0.00     0.058 A 
HETATM    6  C   UNL     1      -7.373  -0.082 -33.238  1.00  0.00     0.255 C 
HETATM    7  O   UNL     1      -8.555  -0.134 -33.558  1.00  0.00    -0.268 OA
HETATM    8  N   UNL     1      -6.893   0.923 -32.454  1.00  0.00    -0.331 N 
HETATM    9  C   UNL     1      -4.198  -2.036 -33.546  1.00  0.00     0.030 A 
HETATM   10  C   UNL     1      -4.590  -3.051 -34.431  1.00  0.00     0.002 A 
HETATM   11  C   UNL     1      -5.885  -3.087 -34.933  1.00  0.00     0.001 A 
HETATM   12  C   UNL     1      -6.794  -2.108 -34.546  1.00  0.00     0.019 A 
HETATM   13  H   UNL     1      -7.558   1.664 -32.296  1.00  0.00     0.165 HD
ENDROOT
BRANCH   1  14
HETATM   14  C   UNL     1      -5.327   2.342 -31.422  1.00  0.00     0.034 A 
HETATM   15  C   UNL     1      -4.803   3.653 -31.604  1.00  0.00     0.122 A 
HETATM   16  N   UNL     1      -4.822   4.364 -30.466  1.00  0.00    -0.172 NA
HETATM   17  N   UNL     1      -5.318   3.513 -29.557  1.00  0.00    -0.288 N 
HETATM   18  H   UNL     1      -5.414   3.834 -28.599  1.00  0.00     0.188 HD
HETATM   19  C   UNL     1      -5.627   2.293 -30.069  1.00  0.00     0.123 A 
BRANCH  15  20
HETATM   20  C   UNL     1      -4.254   4.227 -32.872  1.00  0.00     0.106 A 
HETATM   21  O   UNL     1      -2.926   4.446 -33.122  1.00  0.00    -0.313 OA
HETATM   22  C   UNL     1      -2.823   4.989 -34.366  1.00  0.00     0.050 A 
HETATM   23  C   UNL     1      -1.462   5.313 -34.834  1.00  0.00     0.076 C 
HETATM   24  C   UNL     1      -4.075   5.127 -34.926  1.00  0.00     0.035 A 
HETATM   25  C   UNL     1      -4.993   4.640 -33.964  1.00  0.00     0.042 A 
ENDBRANCH  15  20
ENDBRANCH   1  14
TORSDOF 2
ENDMDL
MODEL 2
REMARK VINA RESULT:      -8.2      1.735      6.122
REMARK  2 active torsions:
REMARK  status: ('A' for Active; 'I' for Inactive)
REMARK    1  A    between atoms: C_4  and  C_5 
REMARK    2  A    between atoms: C_10  and  C_11 
ROOT
HETATM    1  C   UNL     1      -5.653   2.433 -32.586  1.00  0.00     0.224 C 
HETATM    2  N   UNL     1      -5.687   3.818 -33.086  1.00  0.00    -0.359 N 
HETATM    3  C   UNL     1      -6.810   4.150 -33.963  1.00  0.00     0.152 C 
HETATM    4  C   UNL     1      -4.416   4.322 -33.441  1.00  0.00     0.047 A 
HETATM    5  C   UNL     1      -3.262   3.866 -32.775  1.00  0.00     0.058 A 
HETATM    6  C   UNL     1      -3.418   2.860 -31.709  1.00  0.00     0.255 C 
HETATM    7  O   UNL     1      -2.480   2.485 -31.015  1.00  0.00    -0.268 OA
HETATM    8  N   UNL     1      -4.676   2.368 -31.532  1.00  0.00    -0.331 N 
HETATM    9  C   UNL     1      -4.221   5.320 -34.410  1.00  0.00     0.030 A 
HETATM   10  C   UNL     1      -2.943   5.808 -34.720  1.00  0.00     0.002 A 
HETATM   11  C   UNL     1      -1.823   5.323 -34.056  1.00  0.00     0.001 A 
HETATM   12  C   UNL     1      -1.980   4.352 -33.073  1.00  0.00     0.019 A 
HETATM   13  H   UNL     1      -4.717   1.590 -30.892  1.00  0.00     0.165 HD
ENDROOT
BRANCH   1  14
HETATM   14  C   UNL     1      -6.925   1.876 -32.007  1.00  0.00     0.034 A 
HETATM   15  C   UNL     1      -7.500   0.591 -32.222  1.00  0.00     0.122 A 
HETATM   16  N   UNL     1      -8.636   0.427 -31.526  1.00  0.00    -0.172 NA
HETATM   17  N   UNL     1      -8.809   1.600 -30.901  1.00  0.00    -0.288 N 
HETATM   18  H   UNL     1      -9.629   1.716 -30.314  1.00  0.00     0.188 HD
HETATM   19  C   UNL     1      -7.826   2.502 -31.159  1.00  0.00     0.123 A 
BRANCH  15  20
HETATM   20  C   UNL     1      -6.974  -0.484 -33.120  1.00  0.00     0.106 A 
HETATM   21  O   UNL     1      -5.773  -1.120 -32.958  1.00  0.00    -0.313 OA
HETATM   22  C   UNL     1      -5.641  -2.016 -33.974  1.00  0.00     0.050 A 
HETATM   23  C   UNL     1      -4.399  -2.813 -33.994  1.00  0.00     0.076 C 
HETATM   24  C   UNL     1      -6.745  -1.965 -34.797  1.00  0.00     0.035 A 
HETATM   25  C   UNL     1      -7.599  -0.978 -34.248  1.00  0.00     0.042 A 
ENDBRANCH  15  20
ENDBRANCH   1  14
TORSDOF 2
ENDMDL
MODEL 3
REMARK VINA RESULT:      -8.1      3.396      5.978
REMARK  2 active torsions:
REMARK  status: ('A' for Active; 'I' for Inactive)
REMARK    1  A    between atoms: C_4  and  C_5 
REMARK    2  A    between atoms: C_10  and  C_11 
ROOT
HETATM    1  C   UNL     1      -8.216   2.096 -32.806  1.00  0.00     0.224 C 
HETATM    2  N   UNL     1      -9.625   1.671 -32.748  1.00  0.00    -0.359 N 
HETATM    3  C   UNL     1      -9.856   0.294 -32.310  1.00  0.00     0.152 C 
HETATM    4  C   UNL     1     -10.404   2.148 -33.826  1.00  0.00     0.047 A 
HETATM    5  C   UNL     1     -10.088   3.374 -34.441  1.00  0.00     0.058 A 
HETATM    6  C   UNL     1      -8.933   4.137 -33.932  1.00  0.00     0.255 C 
HETATM    7  O   UNL     1      -8.650   5.257 -34.343  1.00  0.00    -0.268 OA
HETATM    8  N   UNL     1      -8.193   3.526 -32.965  1.00  0.00    -0.331 N 
HETATM    9  C   UNL     1     -11.545   1.486 -34.311  1.00  0.00     0.030 A 
HETATM   10  C   UNL     1     -12.303   2.003 -35.371  1.00  0.00     0.002 A 
HETATM   11  C   UNL     1     -11.952   3.208 -35.967  1.00  0.00     0.001 A 
HETATM   12  C   UNL     1     -10.843   3.903 -35.498  1.00  0.00     0.019 A 
HETATM   13  H   UNL     1      -7.340   4.016 -32.741  1.00  0.00     0.165 HD
ENDROOT
BRANCH   1  14
HETATM   14  C   UNL     1      -7.355   1.798 -31.609  1.00  0.00     0.034 A 
HETATM   15  C   UNL     1      -6.341   0.806 -31.482  1.00  0.00     0.122 A 
HETATM   16  N   UNL     1      -5.759   0.836 -30.272  1.00  0.00    -0.172 NA
HETATM   17  N   UNL     1      -6.412   1.807 -29.620  1.00  0.00    -0.288 N 
HETATM   18  H   UNL     1      -6.147   2.005 -28.660  1.00  0.00     0.188 HD
HETATM   19  C   UNL     1      -7.378   2.406 -30.364  1.00  0.00     0.123 A 
BRANCH  15  20
HETATM   20  C   UNL     1      -5.938  -0.198 -32.515  1.00  0.00     0.106 A 
HETATM   21  O   UNL     1      -6.777  -1.121 -33.078  1.00  0.00    -0.313 OA
HETATM   22  C   UNL     1      -6.046  -1.861 -33.956  1.00  0.00     0.050 A 
HETATM   23  C   UNL     1      -6.765  -2.930 -34.675  1.00  0.00     0.076 C 
HETATM   24  C   UNL     1      -4.738  -1.428 -33.967  1.00  0.00     0.035 A 
HETATM   25  C   UNL     1      -4.669  -0.361 -33.038  1.00  0.00     0.042 A 
ENDBRANCH  15  20
ENDBRANCH   1  14
TORSDOF 2
ENDMDL
MODEL 4
REMARK VINA RESULT:      -7.9      2.152      2.810
REMARK  2 active torsions:
REMARK  status: ('A' for Active; 'I' for Inactive)
REMARK    1  A    between atoms: C_4  and  C_5 
REMARK    2  A    between atoms: C_10  and  C_11 
ROOT
HETATM    1  C   UNL     1      -7.171   0.897 -31.989  1.00  0.00     0.224 C 
HETATM    2  N   UNL     1      -7.065   0.529 -33.411  1.00  0.00    -0.359 N 
HETATM    3  C   UNL     1      -8.299   0.634 -34.189  1.00  0.00     0.152 C 
HETATM    4  C   UNL     1      -6.247  -0.599 -33.643  1.00  0.00     0.047 A 
HETATM    5  C   UNL     1      -5.166  -0.880 -32.784  1.00  0.00     0.058 A 
HETATM    6  C   UNL     1      -4.917   0.029 -31.650  1.00  0.00     0.255 C 
HETATM    7  O   UNL     1      -3.943  -0.086 -30.916  1.00  0.00    -0.268 OA
HETATM    8  N   UNL     1      -5.836   1.017 -31.464  1.00  0.00    -0.331 N 
HETATM    9  C   UNL     1      -6.409  -1.463 -34.740  1.00  0.00     0.030 A 
HETATM   10  C   UNL     1      -5.562  -2.562 -34.945  1.00  0.00     0.002 A 
HETATM   11  C   UNL     1      -4.516  -2.819 -34.067  1.00  0.00     0.001 A 
HETATM   12  C   UNL     1      -4.310  -1.972 -32.984  1.00  0.00     0.019 A 
HETATM   13  H   UNL     1      -5.708   1.529 -30.605  1.00  0.00     0.165 HD
ENDROOT
BRANCH   1  14
HETATM   14  C   UNL     1      -7.864   2.192 -31.661  1.00  0.00     0.034 A 
HETATM   15  C   UNL     1      -7.471   3.514 -32.016  1.00  0.00     0.122 A 
HETATM   16  N   UNL     1      -8.342   4.433 -31.570  1.00  0.00    -0.172 NA
HETATM   17  N   UNL     1      -9.262   3.718 -30.909  1.00  0.00    -0.288 N 
HETATM   18  H   UNL     1     -10.029   4.213 -30.465  1.00  0.00     0.188 HD
HETATM   19  C   UNL     1      -9.022   2.380 -30.923  1.00  0.00     0.123 A 
BRANCH  15  20
HETATM   20  C   UNL     1      -6.238   3.908 -32.766  1.00  0.00     0.106 A 
HETATM   21  O   UNL     1      -4.957   3.687 -32.339  1.00  0.00    -0.313 OA
HETATM   22  C   UNL     1      -4.114   4.197 -33.278  1.00  0.00     0.050 A 
HETATM   23  C   UNL     1      -2.669   4.069 -33.007  1.00  0.00     0.076 C 
HETATM   24  C   UNL     1      -4.838   4.751 -34.312  1.00  0.00     0.035 A 
HETATM   25  C   UNL     1      -6.202   4.568 -33.980  1.00  0.00     0.042 A 
ENDBRANCH  15  20
ENDBRANCH   1  14
TORSDOF 2
ENDMDL
MODEL 5
REMARK VINA RESULT:      -7.7      1.798      2.514
REMARK  2 active torsions:
REMARK  status: ('A' for Active; 'I' for Inactive)
REMARK    1  A    between atoms: C_4  and  C_5 
REMARK    2  A    between atoms: C_10  and  C_11 
ROOT
HETATM    1  C   UNL     1      -6.135   1.560 -31.398  1.00  0.00     0.224 C 
HETATM    2  N   UNL     1      -6.475   1.144 -32.769  1.00  0.00    -0.359 N 
HETATM    3  C   UNL     1      -7.873   1.323 -33.160  1.00  0.00     0.152 C 
HETATM    4  C   UNL     1      -5.837  -0.051 -33.172  1.00  0.00     0.047 A 
HETATM    5  C   UNL     1      -4.574  -0.389 -32.650  1.00  0.00     0.058 A 
HETATM    6  C   UNL     1      -3.944   0.529 -31.684  1.00  0.00     0.255 C 
HETATM    7  O   UNL     1      -2.807   0.360 -31.259  1.00  0.00    -0.268 OA
HETATM    8  N   UNL     1      -4.701   1.590 -31.289  1.00  0.00    -0.331 N 
HETATM    9  C   UNL     1      -6.370  -0.929 -34.130  1.00  0.00     0.030 A 
HETATM   10  C   UNL     1      -5.695  -2.096 -34.517  1.00  0.00     0.002 A 
HETATM   11  C   UNL     1      -4.457  -2.410 -33.968  1.00  0.00     0.001 A 
HETATM   12  C   UNL     1      -3.888  -1.550 -33.035  1.00  0.00     0.019 A 
HETATM   13  H   UNL     1      -4.293   2.115 -30.531  1.00  0.00     0.165 HD
ENDROOT
BRANCH   1  14
HETATM   14  C   UNL     1      -6.615   2.913 -30.948  1.00  0.00     0.034 A 
HETATM   15  C   UNL     1      -6.287   4.188 -31.493  1.00  0.00     0.122 A 
HETATM   16  N   UNL     1      -6.917   5.184 -30.851  1.00  0.00    -0.172 NA
HETATM   17  N   UNL     1      -7.611   4.565 -29.886  1.00  0.00    -0.288 N 
HETATM   18  H   UNL     1      -8.165   5.133 -29.253  1.00  0.00     0.188 HD
HETATM   19  C   UNL     1      -7.460   3.215 -29.892  1.00  0.00     0.123 A 
BRANCH  15  20
HETATM   20  C   UNL     1      -5.344   4.461 -32.622  1.00  0.00     0.106 A 
HETATM   21  O   UNL     1      -3.979   4.443 -32.523  1.00  0.00    -0.313 OA
HETATM   22  C   UNL     1      -3.473   4.754 -33.748  1.00  0.00     0.050 A 
HETATM   23  C   UNL     1      -2.002   4.797 -33.862  1.00  0.00     0.076 C 
HETATM   24  C   UNL     1      -4.498   4.977 -34.641  1.00  0.00     0.035 A 
HETATM   25  C   UNL     1      -5.700   4.791 -33.916  1.00  0.00     0.042 A 
ENDBRANCH  15  20
ENDBRANCH   1  14
TORSDOF 2
ENDMDL
MODEL 6
REMARK VINA RESULT:      -7.6     15.412     17.177
REMARK  2 active torsions:
REMARK  status: ('A' for Active; 'I' for Inactive)
REMARK    1  A    between atoms: C_4  and  C_5 
REMARK    2  A    between atoms: C_10  and  C_11 
ROOT
HETATM    1  C   UNL     1      -6.763 -13.878 -37.485  1.00  0.00     0.224 C 
HETATM    2  N   UNL     1      -5.981 -15.085 -37.167  1.00  0.00    -0.359 N 
HETATM    3  C   UNL     1      -5.662 -15.953 -38.300  1.00  0.00     0.152 C 
HETATM    4  C   UNL     1      -6.372 -15.710 -35.962  1.00  0.00     0.047 A 
HETATM    5  C   UNL     1      -6.903 -14.943 -34.906  1.00  0.00     0.058 A 
HETATM    6  C   UNL     1      -7.035 -13.487 -35.093  1.00  0.00     0.255 C 
HETATM    7  O   UNL     1      -7.392 -12.736 -34.193  1.00  0.00    -0.268 OA
HETATM    8  N   UNL     1      -6.730 -13.015 -36.334  1.00  0.00    -0.331 N 
HETATM    9  C   UNL     1      -6.215 -17.084 -35.714  1.00  0.00     0.030 A 
HETATM   10  C   UNL     1      -6.598 -17.663 -34.496  1.00  0.00     0.002 A 
HETATM   11  C   UNL     1      -7.135 -16.879 -33.481  1.00  0.00     0.001 A 
HETATM   12  C   UNL     1      -7.283 -15.511 -33.682  1.00  0.00     0.019 A 
HETATM   13  H   UNL     1      -6.962 -12.042 -36.463  1.00  0.00     0.165 HD
ENDROOT
BRANCH   1  14
HETATM   14  C   UNL     1      -6.298 -13.040 -38.645  1.00  0.00     0.034 A 
HETATM   15  C   UNL     1      -7.054 -12.595 -39.767  1.00  0.00     0.122 A 
HETATM   16  N   UNL     1      -6.318 -11.846 -40.603  1.00  0.00    -0.172 NA
HETATM   17  N   UNL     1      -5.099 -11.837 -40.047  1.00  0.00    -0.288 N 
HETATM   18  H   UNL     1      -4.357 -11.332 -40.521  1.00  0.00     0.188 HD
HETATM   19  C   UNL     1      -5.028 -12.540 -38.886  1.00  0.00     0.123 A 
BRANCH  15  20
HETATM   20  C   UNL     1      -8.487 -12.909 -40.059  1.00  0.00     0.106 A 
HETATM   21  O   UNL     1      -8.938 -14.085 -40.594  1.00  0.00    -0.313 OA
HETATM   22  C   UNL     1     -10.289 -13.988 -40.725  1.00  0.00     0.050 A 
HETATM   23  C   UNL     1     -10.982 -15.159 -41.297  1.00  0.00     0.076 C 
HETATM   24  C   UNL     1     -10.720 -12.757 -40.282  1.00  0.00     0.035 A 
HETATM   25  C   UNL     1      -9.562 -12.063 -39.857  1.00  0.00     0.042 A 
ENDBRANCH  15  20
ENDBRANCH   1  14
TORSDOF 2
ENDMDL
MODEL 7
REMARK VINA RESULT:      -7.5      2.191      3.281
REMARK  2 active torsions:
REMARK  status: ('A' for Active; 'I' for Inactive)
REMARK    1  A    between atoms: C_4  and  C_5 
REMARK    2  A    between atoms: C_10  and  C_11 
ROOT
HETATM    1  C   UNL     1      -5.218   3.052 -30.925  1.00  0.00     0.224 C 
HETATM    2  N   UNL     1      -5.667   2.952 -32.324  1.00  0.00    -0.359 N 
HETATM    3  C   UNL     1      -6.861   3.724 -32.665  1.00  0.00     0.152 C 
HETATM    4  C   UNL     1      -5.563   1.648 -32.858  1.00  0.00     0.047 A 
HETATM    5  C   UNL     1      -4.560   0.772 -32.400  1.00  0.00     0.058 A 
HETATM    6  C   UNL     1      -3.632   1.251 -31.359  1.00  0.00     0.255 C 
HETATM    7  O   UNL     1      -2.673   0.591 -30.978  1.00  0.00    -0.268 OA
HETATM    8  N   UNL     1      -3.899   2.483 -30.843  1.00  0.00    -0.331 N 
HETATM    9  C   UNL     1      -6.387   1.165 -33.889  1.00  0.00     0.030 A 
HETATM   10  C   UNL     1      -6.239  -0.130 -34.406  1.00  0.00     0.002 A 
HETATM   11  C   UNL     1      -5.249  -0.975 -33.918  1.00  0.00     0.001 A 
HETATM   12  C   UNL     1      -4.400  -0.522 -32.915  1.00  0.00     0.019 A 
HETATM   13  H   UNL     1      -3.329   2.716 -30.044  1.00  0.00     0.165 HD
ENDROOT
BRANCH   1  14
HETATM   14  C   UNL     1      -5.113   4.430 -30.331  1.00  0.00     0.034 A 
HETATM   15  C   UNL     1      -4.166   5.449 -30.635  1.00  0.00     0.122 A 
HETATM   16  N   UNL     1      -4.384   6.566 -29.923  1.00  0.00    -0.172 NA
HETATM   17  N   UNL     1      -5.433   6.259 -29.147  1.00  0.00    -0.288 N 
HETATM   18  H   UNL     1      -5.775   6.963 -28.500  1.00  0.00     0.188 HD
HETATM   19  C   UNL     1      -5.901   4.999 -29.342  1.00  0.00     0.123 A 
BRANCH  15  20
HETATM   20  C   UNL     1      -3.024   5.349 -31.597  1.00  0.00     0.106 A 
HETATM   21  O   UNL     1      -3.152   5.256 -32.956  1.00  0.00    -0.313 OA
HETATM   22  C   UNL     1      -1.901   5.167 -33.484  1.00  0.00     0.050 A 
HETATM   23  C   UNL     1      -1.811   5.050 -34.952  1.00  0.00     0.076 C 
HETATM   24  C   UNL     1      -0.960   5.199 -32.478  1.00  0.00     0.035 A 
HETATM   25  C   UNL     1      -1.683   5.313 -31.266  1.00  0.00     0.042 A 
ENDBRANCH  15  20
ENDBRANCH   1  14
TORSDOF 2
ENDMDL
MODEL 8
REMARK VINA RESULT:      -7.5      1.888      6.568
REMARK  2 active torsions:
REMARK  status: ('A' for Active; 'I' for Inactive)
REMARK    1  A    between atoms: C_4  and  C_5 
REMARK    2  A    between atoms: C_10  and  C_11 
ROOT
HETATM    1  C   UNL     1      -4.258   2.057 -32.017  1.00  0.00     0.224 C 
HETATM    2  N   UNL     1      -4.659   2.743 -30.778  1.00  0.00    -0.359 N 
HETATM    3  C   UNL     1      -5.710   2.088 -29.999  1.00  0.00     0.152 C 
HETATM    4  C   UNL     1      -4.730   4.149 -30.908  1.00  0.00     0.047 A 
HETATM    5  C   UNL     1      -3.889   4.819 -31.817  1.00  0.00     0.058 A 
HETATM    6  C   UNL     1      -2.944   4.021 -32.618  1.00  0.00     0.255 C 
HETATM    7  O   UNL     1      -2.110   4.533 -33.357  1.00  0.00    -0.268 OA
HETATM    8  N   UNL     1      -3.043   2.669 -32.487  1.00  0.00    -0.331 N 
HETATM    9  C   UNL     1      -5.574   4.958 -30.129  1.00  0.00     0.030 A 
HETATM   10  C   UNL     1      -5.601   6.353 -30.276  1.00  0.00     0.002 A 
HETATM   11  C   UNL     1      -4.769   6.981 -31.196  1.00  0.00     0.001 A 
HETATM   12  C   UNL     1      -3.903   6.213 -31.967  1.00  0.00     0.019 A 
HETATM   13  H   UNL     1      -2.478   2.157 -33.148  1.00  0.00     0.165 HD
ENDROOT
BRANCH   1  14
HETATM   14  C   UNL     1      -3.972   0.582 -31.927  1.00  0.00     0.034 A 
HETATM   15  C   UNL     1      -4.756  -0.497 -32.425  1.00  0.00     0.122 A 
HETATM   16  N   UNL     1      -4.184  -1.687 -32.183  1.00  0.00    -0.172 NA
HETATM   17  N   UNL     1      -3.067  -1.381 -31.509  1.00  0.00    -0.288 N 
HETATM   18  H   UNL     1      -2.467  -2.140 -31.202  1.00  0.00     0.188 HD
HETATM   19  C   UNL     1      -2.896  -0.046 -31.320  1.00  0.00     0.123 A 
BRANCH  15  20
HETATM   20  C   UNL     1      -6.078  -0.395 -33.118  1.00  0.00     0.106 A 
HETATM   21  O   UNL     1      -7.276  -0.179 -32.492  1.00  0.00    -0.313 OA
HETATM   22  C   UNL     1      -8.245  -0.165 -33.447  1.00  0.00     0.050 A 
HETATM   23  C   UNL     1      -9.628   0.049 -32.980  1.00  0.00     0.076 C 
HETATM   24  C   UNL     1      -7.688  -0.372 -34.690  1.00  0.00     0.035 A 
HETATM   25  C   UNL     1      -6.296  -0.523 -34.477  1.00  0.00     0.042 A 
ENDBRANCH  15  20
ENDBRANCH   1  14
TORSDOF 2
ENDMDL
MODEL 9
REMARK VINA RESULT:      -7.3      4.947      8.748
REMARK  2 active torsions:
REMARK  status: ('A' for Active; 'I' for Inactive)
REMARK    1  A    between atoms: C_4  and  C_5 
REMARK    2  A    between atoms: C_10  and  C_11 
ROOT
HETATM    1  C   UNL     1      -1.441   6.522 -31.093  1.00  0.00     0.224 C 
HETATM    2  N   UNL     1      -0.119   6.440 -30.449  1.00  0.00    -0.359 N 
HETATM    3  C   UNL     1       0.580   5.163 -30.591  1.00  0.00     0.152 C 
HETATM    4  C   UNL     1      -0.065   7.071 -29.186  1.00  0.00     0.047 A 
HETATM    5  C   UNL     1      -0.889   8.180 -28.912  1.00  0.00     0.058 A 
HETATM    6  C   UNL     1      -1.797   8.657 -29.971  1.00  0.00     0.255 C 
HETATM    7  O   UNL     1      -2.473   9.673 -29.851  1.00  0.00    -0.268 OA
HETATM    8  N   UNL     1      -1.841   7.904 -31.105  1.00  0.00    -0.331 N 
HETATM    9  C   UNL     1       0.821   6.688 -28.165  1.00  0.00     0.030 A 
HETATM   10  C   UNL     1       0.856   7.353 -26.931  1.00  0.00     0.002 A 
HETATM   11  C   UNL     1       0.016   8.434 -26.688  1.00  0.00     0.001 A 
HETATM   12  C   UNL     1      -0.858   8.856 -27.684  1.00  0.00     0.019 A 
HETATM   13  H   UNL     1      -2.568   8.182 -31.746  1.00  0.00     0.165 HD
ENDROOT
BRANCH   1  14
HETATM   14  C   UNL     1      -1.546   6.046 -32.516  1.00  0.00     0.034 A 
HETATM   15  C   UNL     1      -2.245   4.910 -33.015  1.00  0.00     0.122 A 
HETATM   16  N   UNL     1      -2.139   4.801 -34.348  1.00  0.00    -0.172 NA
HETATM   17  N   UNL     1      -1.356   5.830 -34.699  1.00  0.00    -0.288 N 
HETATM   18  H   UNL     1      -1.122   5.944 -35.681  1.00  0.00     0.188 HD
HETATM   19  C   UNL     1      -0.966   6.598 -33.648  1.00  0.00     0.123 A 
BRANCH  15  20
HETATM   20  C   UNL     1      -3.001   3.903 -32.208  1.00  0.00     0.106 A 
HETATM   21  O   UNL     1      -2.701   2.569 -32.140  1.00  0.00    -0.313 OA
HETATM   22  C   UNL     1      -3.618   1.980 -31.324  1.00  0.00     0.050 A 
HETATM   23  C   UNL     1      -3.480   0.526 -31.118  1.00  0.00     0.076 C 
HETATM   24  C   UNL     1      -4.514   2.921 -30.864  1.00  0.00     0.035 A 
HETATM   25  C   UNL     1      -4.119   4.154 -31.434  1.00  0.00     0.042 A 
ENDBRANCH  15  20
ENDBRANCH   1  14
TORSDOF 2
ENDMDL
MODEL 10
REMARK VINA RESULT:      -7.3      2.008      5.623
REMARK  2 active torsions:
REMARK  status: ('A' for Active; 'I' for Inactive)
REMARK    1  A    between atoms: C_4  and  C_5 
REMARK    2  A    between atoms: C_10  and  C_11 
ROOT
HETATM    1  C   UNL     1      -6.450   3.590 -32.006  1.00  0.00     0.224 C 
HETATM    2  N   UNL     1      -5.187   3.026 -31.502  1.00  0.00    -0.359 N 
HETATM    3  C   UNL     1      -5.195   2.595 -30.105  1.00  0.00     0.152 C 
HETATM    4  C   UNL     1      -4.040   3.711 -31.962  1.00  0.00     0.047 A 
HETATM    5  C   UNL     1      -4.049   4.345 -33.220  1.00  0.00     0.058 A 
HETATM    6  C   UNL     1      -5.277   4.273 -34.032  1.00  0.00     0.255 C 
HETATM    7  O   UNL     1      -5.338   4.710 -35.176  1.00  0.00    -0.268 OA
HETATM    8  N   UNL     1      -6.352   3.683 -33.439  1.00  0.00    -0.331 N 
HETATM    9  C   UNL     1      -2.829   3.760 -31.250  1.00  0.00     0.030 A 
HETATM   10  C   UNL     1      -1.706   4.435 -31.751  1.00  0.00     0.002 A 
HETATM   11  C   UNL     1      -1.756   5.065 -32.989  1.00  0.00     0.001 A 
HETATM   12  C   UNL     1      -2.930   5.016 -33.732  1.00  0.00     0.019 A 
HETATM   13  H   UNL     1      -7.205   3.774 -33.969  1.00  0.00     0.165 HD
ENDROOT
BRANCH   1  14
HETATM   14  C   UNL     1      -7.711   2.818 -31.725  1.00  0.00     0.034 A 
HETATM   15  C   UNL     1      -8.052   1.504 -32.156  1.00  0.00     0.122 A 
HETATM   16  N   UNL     1      -9.256   1.123 -31.700  1.00  0.00    -0.172 NA
HETATM   17  N   UNL     1      -9.698   2.188 -31.016  1.00  0.00    -0.288 N 
HETATM   18  H   UNL     1     -10.615   2.134 -30.584  1.00  0.00     0.188 HD
HETATM   19  C   UNL     1      -8.824   3.228 -31.007  1.00  0.00     0.123 A 
BRANCH  15  20
HETATM   20  C   UNL     1      -7.232   0.611 -33.032  1.00  0.00     0.106 A 
HETATM   21  O   UNL     1      -6.123  -0.080 -32.627  1.00  0.00    -0.313 OA
HETATM   22  C   UNL     1      -5.645  -0.763 -33.703  1.00  0.00     0.050 A 
HETATM   23  C   UNL     1      -4.434  -1.577 -33.483  1.00  0.00     0.076 C 
HETATM   24  C   UNL     1      -6.434  -0.520 -34.806  1.00  0.00     0.035 A 
HETATM   25  C   UNL     1      -7.452   0.365 -34.374  1.00  0.00     0.042 A 
ENDBRANCH  15  20
ENDBRANCH   1  14
TORSDOF 2
ENDMDL
