MODEL 1
REMARK VINA RESULT:      -8.2      0.000      0.000
REMARK  5 active torsions:
REMARK  status: ('A' for Active; 'I' for Inactive)
REMARK    1  A    between atoms: O_2  and  C_3 
REMARK    2  A    between atoms: C_5  and  C_6 
REMARK    3  A    between atoms: C_12  and  C_13 
REMARK    4  A    between atoms: C_15  and  O_16 
REMARK    5  A    between atoms: C_18  and  O_19 
ROOT
HETATM    1  C   UNL     1      -7.932   0.359 -32.425  1.00  0.00     0.098 A 
HETATM    2  N   UNL     1      -9.222   0.015 -32.662  1.00  0.00    -0.173 NA
HETATM    3  N   UNL     1      -9.970   0.942 -32.016  1.00  0.00    -0.272 N 
HETATM    4  H   UNL     1     -10.982   0.874 -32.053  1.00  0.00     0.189 HD
HETATM    5  C   UNL     1      -9.198   1.850 -31.402  1.00  0.00     0.128 A 
HETATM    6  C   UNL     1      -7.894   1.527 -31.645  1.00  0.00     0.034 A 
HETATM    7  C   UNL     1      -7.006   2.508 -30.990  1.00  0.00     0.156 A 
HETATM    8  N   UNL     1      -8.014   3.394 -30.377  1.00  0.00    -0.343 N 
HETATM    9  C   UNL     1      -9.330   3.016 -30.616  1.00  0.00     0.271 A 
HETATM   10  O   UNL     1     -10.341   3.579 -30.242  1.00  0.00    -0.266 OA
HETATM   11  H   UNL     1      -7.793   4.228 -29.853  1.00  0.00     0.163 HD
ENDROOT
BRANCH   7  12
HETATM   12  C   UNL     1      -6.180   3.201 -32.046  1.00  0.00    -0.028 A 
HETATM   13  C   UNL     1      -4.768   3.210 -32.019  1.00  0.00     0.049 A 
HETATM   14  C   UNL     1      -4.034   3.852 -33.019  1.00  0.00     0.101 A 
HETATM   15  C   UNL     1      -4.724   4.486 -34.057  1.00  0.00     0.099 A 
HETATM   16  C   UNL     1      -6.110   4.493 -34.111  1.00  0.00     0.040 A 
HETATM   17  C   UNL     1      -6.836   3.852 -33.108  1.00  0.00     0.012 A 
BRANCH  14  18
HETATM   18  O   UNL     1      -2.668   3.927 -33.101  1.00  0.00    -0.353 OA
HETATM   19  C   UNL     1      -1.997   4.548 -32.010  1.00  0.00     0.210 C 
ENDBRANCH  14  18
BRANCH  15  20
HETATM   20  O   UNL     1      -4.035   5.121 -35.054  1.00  0.00    -0.358 OA
HETATM   21  H   UNL     1      -4.472   5.991 -35.146  1.00  0.00     0.218 HD
ENDBRANCH  15  20
ENDBRANCH   7  12
BRANCH   1  22
HETATM   22  C   UNL     1      -6.825  -0.434 -32.957  1.00  0.00    -0.002 A 
HETATM   23  C   UNL     1      -5.600  -0.483 -32.272  1.00  0.00     0.050 A 
HETATM   24  C   UNL     1      -4.528  -1.239 -32.757  1.00  0.00     0.069 A 
HETATM   25  C   UNL     1      -4.678  -1.956 -33.944  1.00  0.00     0.037 A 
HETATM   26  C   UNL     1      -5.887  -1.907 -34.641  1.00  0.00     0.004 A 
HETATM   27  C   UNL     1      -6.953  -1.148 -34.155  1.00  0.00     0.014 A 
BRANCH  24  28
HETATM   28  O   UNL     1      -3.400  -1.193 -31.983  1.00  0.00    -0.356 OA
HETATM   29  C   UNL     1      -3.268  -0.087 -31.100  1.00  0.00     0.210 C 
ENDBRANCH  24  28
ENDBRANCH   1  22
TORSDOF 5
ENDMDL
MODEL 2
REMARK VINA RESULT:      -8.2      1.931      3.054
REMARK  5 active torsions:
REMARK  status: ('A' for Active; 'I' for Inactive)
REMARK    1  A    between atoms: O_2  and  C_3 
REMARK    2  A    between atoms: C_5  and  C_6 
REMARK    3  A    between atoms: C_12  and  C_13 
REMARK    4  A    between atoms: C_15  and  O_16 
REMARK    5  A    between atoms: C_18  and  O_19 
ROOT
HETATM    1  C   UNL     1      -7.798   0.234 -34.018  1.00  0.00     0.098 A 
HETATM    2  N   UNL     1      -8.468   0.327 -35.194  1.00  0.00    -0.173 NA
HETATM    3  N   UNL     1      -9.573   1.062 -34.926  1.00  0.00    -0.272 N 
HETATM    4  H   UNL     1     -10.234   1.253 -35.674  1.00  0.00     0.189 HD
HETATM    5  C   UNL     1      -9.610   1.440 -33.641  1.00  0.00     0.128 A 
HETATM    6  C   UNL     1      -8.495   0.947 -33.026  1.00  0.00     0.034 A 
HETATM    7  C   UNL     1      -8.490   1.345 -31.604  1.00  0.00     0.156 A 
HETATM    8  N   UNL     1      -9.745   2.119 -31.553  1.00  0.00    -0.343 N 
HETATM    9  C   UNL     1     -10.426   2.187 -32.763  1.00  0.00     0.271 A 
HETATM   10  O   UNL     1     -11.466   2.772 -32.994  1.00  0.00    -0.266 OA
HETATM   11  H   UNL     1     -10.085   2.595 -30.731  1.00  0.00     0.163 HD
ENDROOT
BRANCH   7  12
HETATM   12  C   UNL     1      -7.269   2.190 -31.337  1.00  0.00    -0.028 A 
HETATM   13  C   UNL     1      -6.954   3.332 -32.108  1.00  0.00     0.049 A 
HETATM   14  C   UNL     1      -5.821   4.098 -31.827  1.00  0.00     0.101 A 
HETATM   15  C   UNL     1      -5.000   3.719 -30.761  1.00  0.00     0.099 A 
HETATM   16  C   UNL     1      -5.284   2.605 -29.985  1.00  0.00     0.040 A 
HETATM   17  C   UNL     1      -6.416   1.843 -30.272  1.00  0.00     0.012 A 
BRANCH  14  18
HETATM   18  O   UNL     1      -5.414   5.221 -32.500  1.00  0.00    -0.353 OA
HETATM   19  C   UNL     1      -5.239   5.093 -33.907  1.00  0.00     0.210 C 
ENDBRANCH  14  18
BRANCH  15  20
HETATM   20  O   UNL     1      -3.885   4.451 -30.456  1.00  0.00    -0.358 OA
HETATM   21  H   UNL     1      -3.722   5.001 -31.248  1.00  0.00     0.218 HD
ENDBRANCH  15  20
ENDBRANCH   7  12
BRANCH   1  22
HETATM   22  C   UNL     1      -6.546  -0.513 -33.913  1.00  0.00    -0.002 A 
HETATM   23  C   UNL     1      -6.461  -1.820 -34.418  1.00  0.00     0.050 A 
HETATM   24  C   UNL     1      -5.273  -2.554 -34.335  1.00  0.00     0.069 A 
HETATM   25  C   UNL     1      -4.153  -1.975 -33.738  1.00  0.00     0.037 A 
HETATM   26  C   UNL     1      -4.227  -0.680 -33.222  1.00  0.00     0.004 A 
HETATM   27  C   UNL     1      -5.417   0.046 -33.303  1.00  0.00     0.014 A 
BRANCH  24  28
HETATM   28  O   UNL     1      -5.338  -3.811 -34.871  1.00  0.00    -0.356 OA
HETATM   29  C   UNL     1      -6.616  -4.434 -34.900  1.00  0.00     0.210 C 
ENDBRANCH  24  28
ENDBRANCH   1  22
TORSDOF 5
ENDMDL
MODEL 3
REMARK VINA RESULT:      -8.1      1.041      1.833
REMARK  5 active torsions:
REMARK  status: ('A' for Active; 'I' for Inactive)
REMARK    1  A    between atoms: O_2  and  C_3 
REMARK    2  A    between atoms: C_5  and  C_6 
REMARK    3  A    between atoms: C_12  and  C_13 
REMARK    4  A    between atoms: C_15  and  O_16 
REMARK    5  A    between atoms: C_18  and  O_19 
ROOT
HETATM    1  C   UNL     1      -7.700   0.344 -32.311  1.00  0.00     0.098 A 
HETATM    2  N   UNL     1      -8.973  -0.047 -32.569  1.00  0.00    -0.173 NA
HETATM    3  N   UNL     1      -9.765   0.878 -31.976  1.00  0.00    -0.272 N 
HETATM    4  H   UNL     1     -10.773   0.778 -32.036  1.00  0.00     0.189 HD
HETATM    5  C   UNL     1      -9.038   1.831 -31.374  1.00  0.00     0.128 A 
HETATM    6  C   UNL     1      -7.718   1.540 -31.572  1.00  0.00     0.034 A 
HETATM    7  C   UNL     1      -6.878   2.570 -30.929  1.00  0.00     0.156 A 
HETATM    8  N   UNL     1      -7.928   3.445 -30.374  1.00  0.00    -0.343 N 
HETATM    9  C   UNL     1      -9.226   3.018 -30.634  1.00  0.00     0.271 A 
HETATM   10  O   UNL     1     -10.263   3.563 -30.307  1.00  0.00    -0.266 OA
HETATM   11  H   UNL     1      -7.746   4.303 -29.875  1.00  0.00     0.163 HD
ENDROOT
BRANCH   7  12
HETATM   12  C   UNL     1      -6.045   3.251 -31.987  1.00  0.00    -0.028 A 
HETATM   13  C   UNL     1      -4.633   3.281 -31.938  1.00  0.00     0.049 A 
HETATM   14  C   UNL     1      -3.893   3.911 -32.940  1.00  0.00     0.101 A 
HETATM   15  C   UNL     1      -4.574   4.512 -34.003  1.00  0.00     0.099 A 
HETATM   16  C   UNL     1      -5.959   4.496 -34.080  1.00  0.00     0.040 A 
HETATM   17  C   UNL     1      -6.692   3.867 -33.074  1.00  0.00     0.012 A 
BRANCH  14  18
HETATM   18  O   UNL     1      -2.527   4.005 -33.001  1.00  0.00    -0.353 OA
HETATM   19  C   UNL     1      -1.886   4.693 -31.932  1.00  0.00     0.210 C 
ENDBRANCH  14  18
BRANCH  15  20
HETATM   20  O   UNL     1      -3.878   5.134 -35.004  1.00  0.00    -0.358 OA
HETATM   21  H   UNL     1      -4.494   5.153 -35.763  1.00  0.00     0.218 HD
ENDBRANCH  15  20
ENDBRANCH   7  12
BRANCH   1  22
HETATM   22  C   UNL     1      -6.555  -0.432 -32.785  1.00  0.00    -0.002 A 
HETATM   23  C   UNL     1      -6.714  -1.353 -33.832  1.00  0.00     0.050 A 
HETATM   24  C   UNL     1      -5.634  -2.104 -34.308  1.00  0.00     0.069 A 
HETATM   25  C   UNL     1      -4.376  -1.934 -33.729  1.00  0.00     0.037 A 
HETATM   26  C   UNL     1      -4.206  -1.029 -32.679  1.00  0.00     0.004 A 
HETATM   27  C   UNL     1      -5.290  -0.285 -32.205  1.00  0.00     0.014 A 
BRANCH  24  28
HETATM   28  O   UNL     1      -5.938  -2.959 -35.332  1.00  0.00    -0.356 OA
HETATM   29  C   UNL     1      -6.396  -4.256 -34.974  1.00  0.00     0.210 C 
ENDBRANCH  24  28
ENDBRANCH   1  22
TORSDOF 5
ENDMDL
MODEL 4
REMARK VINA RESULT:      -8.0      1.680      2.477
REMARK  5 active torsions:
REMARK  status: ('A' for Active; 'I' for Inactive)
REMARK    1  A    between atoms: O_2  and  C_3 
REMARK    2  A    between atoms: C_5  and  C_6 
REMARK    3  A    between atoms: C_12  and  C_13 
REMARK    4  A    between atoms: C_15  and  O_16 
REMARK    5  A    between atoms: C_18  and  O_19 
ROOT
HETATM    1  C   UNL     1      -7.809   0.239 -34.031  1.00  0.00     0.098 A 
HETATM    2  N   UNL     1      -8.485   0.339 -35.203  1.00  0.00    -0.173 NA
HETATM    3  N   UNL     1      -9.582   1.083 -34.927  1.00  0.00    -0.272 N 
HETATM    4  H   UNL     1     -10.246   1.281 -35.670  1.00  0.00     0.189 HD
HETATM    5  C   UNL     1      -9.607   1.459 -33.641  1.00  0.00     0.128 A 
HETATM    6  C   UNL     1      -8.492   0.955 -33.034  1.00  0.00     0.034 A 
HETATM    7  C   UNL     1      -8.476   1.351 -31.611  1.00  0.00     0.156 A 
HETATM    8  N   UNL     1      -9.724   2.135 -31.551  1.00  0.00    -0.343 N 
HETATM    9  C   UNL     1     -10.411   2.211 -32.757  1.00  0.00     0.271 A 
HETATM   10  O   UNL     1     -11.449   2.806 -32.981  1.00  0.00    -0.266 OA
HETATM   11  H   UNL     1     -10.054   2.613 -30.726  1.00  0.00     0.163 HD
ENDROOT
BRANCH   7  12
HETATM   12  C   UNL     1      -7.246   2.186 -31.351  1.00  0.00    -0.028 A 
HETATM   13  C   UNL     1      -6.937   3.338 -32.109  1.00  0.00     0.049 A 
HETATM   14  C   UNL     1      -5.796   4.094 -31.834  1.00  0.00     0.101 A 
HETATM   15  C   UNL     1      -4.960   3.694 -30.787  1.00  0.00     0.099 A 
HETATM   16  C   UNL     1      -5.238   2.569 -30.024  1.00  0.00     0.040 A 
HETATM   17  C   UNL     1      -6.378   1.818 -30.306  1.00  0.00     0.012 A 
BRANCH  14  18
HETATM   18  O   UNL     1      -5.394   5.225 -32.496  1.00  0.00    -0.353 OA
HETATM   19  C   UNL     1      -5.019   5.067 -33.860  1.00  0.00     0.210 C 
ENDBRANCH  14  18
BRANCH  15  20
HETATM   20  O   UNL     1      -3.836   4.416 -30.489  1.00  0.00    -0.358 OA
HETATM   21  H   UNL     1      -3.996   5.299 -30.876  1.00  0.00     0.218 HD
ENDBRANCH  15  20
ENDBRANCH   7  12
BRANCH   1  22
HETATM   22  C   UNL     1      -6.562  -0.519 -33.935  1.00  0.00    -0.002 A 
HETATM   23  C   UNL     1      -5.423   0.068 -33.362  1.00  0.00     0.050 A 
HETATM   24  C   UNL     1      -4.220  -0.638 -33.253  1.00  0.00     0.069 A 
HETATM   25  C   UNL     1      -4.153  -1.949 -33.725  1.00  0.00     0.037 A 
HETATM   26  C   UNL     1      -5.275  -2.541 -34.308  1.00  0.00     0.004 A 
HETATM   27  C   UNL     1      -6.472  -1.830 -34.418  1.00  0.00     0.014 A 
BRANCH  24  28
HETATM   28  O   UNL     1      -3.198   0.060 -32.671  1.00  0.00    -0.356 OA
HETATM   29  C   UNL     1      -3.035  -0.086 -31.266  1.00  0.00     0.210 C 
ENDBRANCH  24  28
ENDBRANCH   1  22
TORSDOF 5
ENDMDL
MODEL 5
REMARK VINA RESULT:      -7.8      1.708      5.009
REMARK  5 active torsions:
REMARK  status: ('A' for Active; 'I' for Inactive)
REMARK    1  A    between atoms: O_2  and  C_3 
REMARK    2  A    between atoms: C_5  and  C_6 
REMARK    3  A    between atoms: C_12  and  C_13 
REMARK    4  A    between atoms: C_15  and  O_16 
REMARK    5  A    between atoms: C_18  and  O_19 
ROOT
HETATM    1  C   UNL     1      -7.044   2.486 -32.198  1.00  0.00     0.098 A 
HETATM    2  N   UNL     1      -7.862   2.829 -31.172  1.00  0.00    -0.173 NA
HETATM    3  N   UNL     1      -9.085   2.352 -31.506  1.00  0.00    -0.272 N 
HETATM    4  H   UNL     1      -9.865   2.504 -30.874  1.00  0.00     0.189 HD
HETATM    5  C   UNL     1      -9.055   1.717 -32.686  1.00  0.00     0.128 A 
HETATM    6  C   UNL     1      -7.775   1.766 -33.158  1.00  0.00     0.034 A 
HETATM    7  C   UNL     1      -7.695   1.071 -34.459  1.00  0.00     0.156 A 
HETATM    8  N   UNL     1      -9.099   0.643 -34.605  1.00  0.00    -0.343 N 
HETATM    9  C   UNL     1      -9.926   1.019 -33.552  1.00  0.00     0.271 A 
HETATM   10  O   UNL     1     -11.110   0.779 -33.420  1.00  0.00    -0.266 OA
HETATM   11  H   UNL     1      -9.448   0.094 -35.377  1.00  0.00     0.163 HD
ENDROOT
BRANCH   7  12
HETATM   12  C   UNL     1      -6.738  -0.090 -34.335  1.00  0.00    -0.028 A 
HETATM   13  C   UNL     1      -5.449   0.048 -33.773  1.00  0.00     0.049 A 
HETATM   14  C   UNL     1      -4.593  -1.050 -33.662  1.00  0.00     0.101 A 
HETATM   15  C   UNL     1      -5.036  -2.296 -34.115  1.00  0.00     0.099 A 
HETATM   16  C   UNL     1      -6.296  -2.463 -34.669  1.00  0.00     0.040 A 
HETATM   17  C   UNL     1      -7.145  -1.362 -34.778  1.00  0.00     0.012 A 
BRANCH  14  18
HETATM   18  O   UNL     1      -3.326  -1.041 -33.137  1.00  0.00    -0.353 OA
HETATM   19  C   UNL     1      -3.224  -1.005 -31.718  1.00  0.00     0.210 C 
ENDBRANCH  14  18
BRANCH  15  20
HETATM   20  O   UNL     1      -4.222  -3.393 -34.018  1.00  0.00    -0.358 OA
HETATM   21  H   UNL     1      -3.595  -3.176 -33.300  1.00  0.00     0.218 HD
ENDBRANCH  15  20
ENDBRANCH   7  12
BRANCH   1  22
HETATM   22  C   UNL     1      -5.629   2.855 -32.198  1.00  0.00    -0.002 A 
HETATM   23  C   UNL     1      -5.126   3.720 -33.182  1.00  0.00     0.050 A 
HETATM   24  C   UNL     1      -3.778   4.092 -33.201  1.00  0.00     0.069 A 
HETATM   25  C   UNL     1      -2.918   3.593 -32.223  1.00  0.00     0.037 A 
HETATM   26  C   UNL     1      -3.403   2.722 -31.244  1.00  0.00     0.004 A 
HETATM   27  C   UNL     1      -4.749   2.351 -31.233  1.00  0.00     0.014 A 
BRANCH  24  28
HETATM   28  O   UNL     1      -3.433   4.942 -34.217  1.00  0.00    -0.356 OA
HETATM   29  C   UNL     1      -2.048   5.062 -34.514  1.00  0.00     0.210 C 
ENDBRANCH  24  28
ENDBRANCH   1  22
TORSDOF 5
ENDMDL
MODEL 6
REMARK VINA RESULT:      -7.7      2.452      4.703
REMARK  5 active torsions:
REMARK  status: ('A' for Active; 'I' for Inactive)
REMARK    1  A    between atoms: O_2  and  C_3 
REMARK    2  A    between atoms: C_5  and  C_6 
REMARK    3  A    between atoms: C_12  and  C_13 
REMARK    4  A    between atoms: C_15  and  O_16 
REMARK    5  A    between atoms: C_18  and  O_19 
ROOT
HETATM    1  C   UNL     1      -4.592   0.315 -32.473  1.00  0.00     0.098 A 
HETATM    2  N   UNL     1      -3.694   0.137 -31.472  1.00  0.00    -0.173 NA
HETATM    3  N   UNL     1      -3.363   1.383 -31.055  1.00  0.00    -0.272 N 
HETATM    4  H   UNL     1      -2.687   1.490 -30.304  1.00  0.00     0.189 HD
HETATM    5  C   UNL     1      -4.027   2.321 -31.745  1.00  0.00     0.128 A 
HETATM    6  C   UNL     1      -4.830   1.688 -32.649  1.00  0.00     0.034 A 
HETATM    7  C   UNL     1      -5.587   2.688 -33.430  1.00  0.00     0.156 A 
HETATM    8  N   UNL     1      -5.083   3.929 -32.812  1.00  0.00    -0.343 N 
HETATM    9  C   UNL     1      -4.150   3.727 -31.801  1.00  0.00     0.271 A 
HETATM   10  O   UNL     1      -3.598   4.573 -31.125  1.00  0.00    -0.266 OA
HETATM   11  H   UNL     1      -5.397   4.855 -33.061  1.00  0.00     0.163 HD
ENDROOT
BRANCH   7  12
HETATM   12  C   UNL     1      -7.063   2.474 -33.197  1.00  0.00    -0.028 A 
HETATM   13  C   UNL     1      -7.686   2.774 -31.965  1.00  0.00     0.049 A 
HETATM   14  C   UNL     1      -9.057   2.575 -31.785  1.00  0.00     0.101 A 
HETATM   15  C   UNL     1      -9.808   2.075 -32.853  1.00  0.00     0.099 A 
HETATM   16  C   UNL     1      -9.225   1.773 -34.075  1.00  0.00     0.040 A 
HETATM   17  C   UNL     1      -7.856   1.973 -34.246  1.00  0.00     0.012 A 
BRANCH  14  18
HETATM   18  O   UNL     1      -9.770   2.828 -30.643  1.00  0.00    -0.353 OA
HETATM   19  C   UNL     1     -10.035   4.195 -30.346  1.00  0.00     0.210 C 
ENDBRANCH  14  18
BRANCH  15  20
HETATM   20  O   UNL     1     -11.155   1.872 -32.712  1.00  0.00    -0.358 OA
HETATM   21  H   UNL     1     -11.230   1.068 -32.161  1.00  0.00     0.218 HD
ENDBRANCH  15  20
ENDBRANCH   7  12
BRANCH   1  22
HETATM   22  C   UNL     1      -5.168  -0.823 -33.187  1.00  0.00    -0.002 A 
HETATM   23  C   UNL     1      -4.345  -1.877 -33.615  1.00  0.00     0.050 A 
HETATM   24  C   UNL     1      -4.872  -2.979 -34.295  1.00  0.00     0.069 A 
HETATM   25  C   UNL     1      -6.241  -3.031 -34.555  1.00  0.00     0.037 A 
HETATM   26  C   UNL     1      -7.070  -1.984 -34.145  1.00  0.00     0.004 A 
HETATM   27  C   UNL     1      -6.537  -0.884 -33.470  1.00  0.00     0.014 A 
BRANCH  24  28
HETATM   28  O   UNL     1      -3.951  -3.928 -34.648  1.00  0.00    -0.356 OA
HETATM   29  C   UNL     1      -3.450  -4.758 -33.607  1.00  0.00     0.210 C 
ENDBRANCH  24  28
ENDBRANCH   1  22
TORSDOF 5
ENDMDL
MODEL 7
REMARK VINA RESULT:      -7.4      3.860      5.933
REMARK  5 active torsions:
REMARK  status: ('A' for Active; 'I' for Inactive)
REMARK    1  A    between atoms: O_2  and  C_3 
REMARK    2  A    between atoms: C_5  and  C_6 
REMARK    3  A    between atoms: C_12  and  C_13 
REMARK    4  A    between atoms: C_15  and  O_16 
REMARK    5  A    between atoms: C_18  and  O_19 
ROOT
HETATM    1  C   UNL     1      -2.809   3.656 -31.837  1.00  0.00     0.098 A 
HETATM    2  N   UNL     1      -1.662   3.981 -31.190  1.00  0.00    -0.173 NA
HETATM    3  N   UNL     1      -1.101   4.974 -31.921  1.00  0.00    -0.272 N 
HETATM    4  H   UNL     1      -0.217   5.371 -31.619  1.00  0.00     0.189 HD
HETATM    5  C   UNL     1      -1.856   5.285 -32.983  1.00  0.00     0.128 A 
HETATM    6  C   UNL     1      -2.960   4.481 -32.965  1.00  0.00     0.034 A 
HETATM    7  C   UNL     1      -3.826   4.795 -34.119  1.00  0.00     0.156 A 
HETATM    8  N   UNL     1      -3.038   5.875 -34.742  1.00  0.00    -0.343 N 
HETATM    9  C   UNL     1      -1.858   6.182 -34.074  1.00  0.00     0.271 A 
HETATM   10  O   UNL     1      -1.043   7.036 -34.366  1.00  0.00    -0.266 OA
HETATM   11  H   UNL     1      -3.325   6.386 -35.564  1.00  0.00     0.163 HD
ENDROOT
BRANCH   7  12
HETATM   12  C   UNL     1      -5.166   5.266 -33.610  1.00  0.00    -0.028 A 
HETATM   13  C   UNL     1      -5.302   6.381 -32.752  1.00  0.00     0.049 A 
HETATM   14  C   UNL     1      -6.559   6.797 -32.307  1.00  0.00     0.101 A 
HETATM   15  C   UNL     1      -7.689   6.092 -32.732  1.00  0.00     0.099 A 
HETATM   16  C   UNL     1      -7.588   4.996 -33.576  1.00  0.00     0.040 A 
HETATM   17  C   UNL     1      -6.329   4.585 -34.014  1.00  0.00     0.012 A 
BRANCH  14  18
HETATM   18  O   UNL     1      -6.815   7.857 -31.478  1.00  0.00    -0.353 OA
HETATM   19  C   UNL     1      -6.387   7.729 -30.126  1.00  0.00     0.210 C 
ENDBRANCH  14  18
BRANCH  15  20
HETATM   20  O   UNL     1      -8.936   6.476 -32.318  1.00  0.00    -0.358 OA
HETATM   21  H   UNL     1      -9.377   5.647 -32.049  1.00  0.00     0.218 HD
ENDBRANCH  15  20
ENDBRANCH   7  12
BRANCH   1  22
HETATM   22  C   UNL     1      -3.685   2.595 -31.344  1.00  0.00    -0.002 A 
HETATM   23  C   UNL     1      -4.936   2.913 -30.792  1.00  0.00     0.050 A 
HETATM   24  C   UNL     1      -5.795   1.916 -30.318  1.00  0.00     0.069 A 
HETATM   25  C   UNL     1      -5.400   0.581 -30.396  1.00  0.00     0.037 A 
HETATM   26  C   UNL     1      -4.154   0.250 -30.934  1.00  0.00     0.004 A 
HETATM   27  C   UNL     1      -3.299   1.250 -31.401  1.00  0.00     0.014 A 
BRANCH  24  28
HETATM   28  O   UNL     1      -6.979   2.375 -29.810  1.00  0.00    -0.356 OA
HETATM   29  C   UNL     1      -7.169   3.784 -29.789  1.00  0.00     0.210 C 
ENDBRANCH  24  28
ENDBRANCH   1  22
TORSDOF 5
ENDMDL
MODEL 8
REMARK VINA RESULT:      -7.4      3.547      5.774
REMARK  5 active torsions:
REMARK  status: ('A' for Active; 'I' for Inactive)
REMARK    1  A    between atoms: O_2  and  C_3 
REMARK    2  A    between atoms: C_5  and  C_6 
REMARK    3  A    between atoms: C_12  and  C_13 
REMARK    4  A    between atoms: C_15  and  O_16 
REMARK    5  A    between atoms: C_18  and  O_19 
ROOT
HETATM    1  C   UNL     1      -2.971   3.578 -31.983  1.00  0.00     0.098 A 
HETATM    2  N   UNL     1      -1.822   3.873 -31.325  1.00  0.00    -0.173 NA
HETATM    3  N   UNL     1      -1.271   4.909 -32.003  1.00  0.00    -0.272 N 
HETATM    4  H   UNL     1      -0.387   5.293 -31.685  1.00  0.00     0.189 HD
HETATM    5  C   UNL     1      -2.035   5.275 -33.041  1.00  0.00     0.128 A 
HETATM    6  C   UNL     1      -3.134   4.465 -33.061  1.00  0.00     0.034 A 
HETATM    7  C   UNL     1      -4.010   4.838 -34.191  1.00  0.00     0.156 A 
HETATM    8  N   UNL     1      -3.231   5.956 -34.757  1.00  0.00    -0.343 N 
HETATM    9  C   UNL     1      -2.048   6.231 -34.080  1.00  0.00     0.271 A 
HETATM   10  O   UNL     1      -1.240   7.105 -34.329  1.00  0.00    -0.266 OA
HETATM   11  H   UNL     1      -3.526   6.510 -35.547  1.00  0.00     0.163 HD
ENDROOT
BRANCH   7  12
HETATM   12  C   UNL     1      -5.349   5.273 -33.647  1.00  0.00    -0.028 A 
HETATM   13  C   UNL     1      -6.547   4.588 -33.949  1.00  0.00     0.049 A 
HETATM   14  C   UNL     1      -7.769   5.010 -33.420  1.00  0.00     0.101 A 
HETATM   15  C   UNL     1      -7.787   6.126 -32.578  1.00  0.00     0.099 A 
HETATM   16  C   UNL     1      -6.627   6.818 -32.262  1.00  0.00     0.040 A 
HETATM   17  C   UNL     1      -5.411   6.391 -32.795  1.00  0.00     0.012 A 
BRANCH  14  18
HETATM   18  O   UNL     1      -8.991   4.430 -33.638  1.00  0.00    -0.353 OA
HETATM   19  C   UNL     1      -8.987   3.061 -34.030  1.00  0.00     0.210 C 
ENDBRANCH  14  18
BRANCH  15  20
HETATM   20  O   UNL     1      -8.967   6.564 -32.039  1.00  0.00    -0.358 OA
HETATM   21  H   UNL     1      -9.639   5.934 -32.366  1.00  0.00     0.218 HD
ENDBRANCH  15  20
ENDBRANCH   7  12
BRANCH   1  22
HETATM   22  C   UNL     1      -3.839   2.487 -31.545  1.00  0.00    -0.002 A 
HETATM   23  C   UNL     1      -3.695   1.205 -32.100  1.00  0.00     0.050 A 
HETATM   24  C   UNL     1      -4.508   0.143 -31.694  1.00  0.00     0.069 A 
HETATM   25  C   UNL     1      -5.482   0.362 -30.719  1.00  0.00     0.037 A 
HETATM   26  C   UNL     1      -5.644   1.634 -30.166  1.00  0.00     0.004 A 
HETATM   27  C   UNL     1      -4.831   2.692 -30.579  1.00  0.00     0.014 A 
BRANCH  24  28
HETATM   28  O   UNL     1      -4.251  -1.047 -32.320  1.00  0.00    -0.356 OA
HETATM   29  C   UNL     1      -3.084  -1.750 -31.914  1.00  0.00     0.210 C 
ENDBRANCH  24  28
ENDBRANCH   1  22
TORSDOF 5
ENDMDL
MODEL 9
REMARK VINA RESULT:      -7.2      3.020      5.481
REMARK  5 active torsions:
REMARK  status: ('A' for Active; 'I' for Inactive)
REMARK    1  A    between atoms: O_2  and  C_3 
REMARK    2  A    between atoms: C_5  and  C_6 
REMARK    3  A    between atoms: C_12  and  C_13 
REMARK    4  A    between atoms: C_15  and  O_16 
REMARK    5  A    between atoms: C_18  and  O_19 
ROOT
HETATM    1  C   UNL     1      -3.481   2.492 -31.515  1.00  0.00     0.098 A 
HETATM    2  N   UNL     1      -2.917   1.264 -31.628  1.00  0.00    -0.173 NA
HETATM    3  N   UNL     1      -3.769   0.414 -31.007  1.00  0.00    -0.272 N 
HETATM    4  H   UNL     1      -3.539  -0.574 -30.964  1.00  0.00     0.189 HD
HETATM    5  C   UNL     1      -4.841   1.060 -30.528  1.00  0.00     0.128 A 
HETATM    6  C   UNL     1      -4.708   2.383 -30.838  1.00  0.00     0.034 A 
HETATM    7  C   UNL     1      -5.875   3.135 -30.332  1.00  0.00     0.156 A 
HETATM    8  N   UNL     1      -6.642   2.032 -29.722  1.00  0.00    -0.343 N 
HETATM    9  C   UNL     1      -6.039   0.784 -29.832  1.00  0.00     0.271 A 
HETATM   10  O   UNL     1      -6.467  -0.282 -29.434  1.00  0.00    -0.266 OA
HETATM   11  H   UNL     1      -7.545   2.144 -29.286  1.00  0.00     0.163 HD
ENDROOT
BRANCH   7  12
HETATM   12  C   UNL     1      -6.589   3.771 -31.499  1.00  0.00    -0.028 A 
HETATM   13  C   UNL     1      -7.516   3.064 -32.297  1.00  0.00     0.049 A 
HETATM   14  C   UNL     1      -8.168   3.687 -33.363  1.00  0.00     0.101 A 
HETATM   15  C   UNL     1      -7.891   5.032 -33.627  1.00  0.00     0.099 A 
HETATM   16  C   UNL     1      -6.987   5.753 -32.860  1.00  0.00     0.040 A 
HETATM   17  C   UNL     1      -6.339   5.123 -31.798  1.00  0.00     0.012 A 
BRANCH  14  18
HETATM   18  O   UNL     1      -9.083   3.109 -34.204  1.00  0.00    -0.353 OA
HETATM   19  C   UNL     1      -9.249   1.699 -34.093  1.00  0.00     0.210 C 
ENDBRANCH  14  18
BRANCH  15  20
HETATM   20  O   UNL     1      -8.516   5.673 -34.662  1.00  0.00    -0.358 OA
HETATM   21  H   UNL     1      -8.550   6.612 -34.391  1.00  0.00     0.218 HD
ENDBRANCH  15  20
ENDBRANCH   7  12
BRANCH   1  22
HETATM   22  C   UNL     1      -2.828   3.681 -32.059  1.00  0.00    -0.002 A 
HETATM   23  C   UNL     1      -1.890   4.386 -31.287  1.00  0.00     0.050 A 
HETATM   24  C   UNL     1      -1.248   5.523 -31.787  1.00  0.00     0.069 A 
HETATM   25  C   UNL     1      -1.546   5.965 -33.076  1.00  0.00     0.037 A 
HETATM   26  C   UNL     1      -2.485   5.281 -33.850  1.00  0.00     0.004 A 
HETATM   27  C   UNL     1      -3.127   4.148 -33.344  1.00  0.00     0.014 A 
BRANCH  24  28
HETATM   28  O   UNL     1      -0.358   6.103 -30.924  1.00  0.00    -0.356 OA
HETATM   29  C   UNL     1       0.360   5.235 -30.058  1.00  0.00     0.210 C 
ENDBRANCH  24  28
ENDBRANCH   1  22
TORSDOF 5
ENDMDL
MODEL 10
REMARK VINA RESULT:      -7.2      2.638      6.003
REMARK  5 active torsions:
REMARK  status: ('A' for Active; 'I' for Inactive)
REMARK    1  A    between atoms: O_2  and  C_3 
REMARK    2  A    between atoms: C_5  and  C_6 
REMARK    3  A    between atoms: C_12  and  C_13 
REMARK    4  A    between atoms: C_15  and  O_16 
REMARK    5  A    between atoms: C_18  and  O_19 
ROOT
HETATM    1  C   UNL     1      -6.820   2.569 -33.147  1.00  0.00     0.098 A 
HETATM    2  N   UNL     1      -6.706   3.786 -33.736  1.00  0.00    -0.173 NA
HETATM    3  N   UNL     1      -5.414   4.154 -33.561  1.00  0.00    -0.272 N 
HETATM    4  H   UNL     1      -5.102   5.051 -33.922  1.00  0.00     0.189 HD
HETATM    5  C   UNL     1      -4.722   3.214 -32.902  1.00  0.00     0.128 A 
HETATM    6  C   UNL     1      -5.572   2.181 -32.629  1.00  0.00     0.034 A 
HETATM    7  C   UNL     1      -4.848   1.115 -31.907  1.00  0.00     0.156 A 
HETATM    8  N   UNL     1      -3.504   1.720 -31.843  1.00  0.00    -0.343 N 
HETATM    9  C   UNL     1      -3.411   2.974 -32.436  1.00  0.00     0.271 A 
HETATM   10  O   UNL     1      -2.421   3.674 -32.534  1.00  0.00    -0.266 OA
HETATM   11  H   UNL     1      -2.698   1.267 -31.439  1.00  0.00     0.163 HD
ENDROOT
BRANCH   7  12
HETATM   12  C   UNL     1      -4.885  -0.147 -32.733  1.00  0.00    -0.028 A 
HETATM   13  C   UNL     1      -4.116  -1.287 -32.410  1.00  0.00     0.049 A 
HETATM   14  C   UNL     1      -4.182  -2.443 -33.191  1.00  0.00     0.101 A 
HETATM   15  C   UNL     1      -5.031  -2.457 -34.301  1.00  0.00     0.099 A 
HETATM   16  C   UNL     1      -5.800  -1.354 -34.642  1.00  0.00     0.040 A 
HETATM   17  C   UNL     1      -5.727  -0.202 -33.859  1.00  0.00     0.012 A 
BRANCH  14  18
HETATM   18  O   UNL     1      -3.488  -3.606 -32.978  1.00  0.00    -0.353 OA
HETATM   19  C   UNL     1      -2.866  -3.754 -31.706  1.00  0.00     0.210 C 
ENDBRANCH  14  18
BRANCH  15  20
HETATM   20  O   UNL     1      -5.122  -3.576 -35.085  1.00  0.00    -0.358 OA
HETATM   21  H   UNL     1      -4.998  -3.252 -35.999  1.00  0.00     0.218 HD
ENDBRANCH  15  20
ENDBRANCH   7  12
BRANCH   1  22
HETATM   22  C   UNL     1      -8.095   1.855 -33.120  1.00  0.00    -0.002 A 
HETATM   23  C   UNL     1      -9.087   2.148 -34.069  1.00  0.00     0.050 A 
HETATM   24  C   UNL     1     -10.313   1.475 -34.068  1.00  0.00     0.069 A 
HETATM   25  C   UNL     1     -10.554   0.496 -33.104  1.00  0.00     0.037 A 
HETATM   26  C   UNL     1      -9.581   0.203 -32.147  1.00  0.00     0.004 A 
HETATM   27  C   UNL     1      -8.360   0.881 -32.150  1.00  0.00     0.014 A 
BRANCH  24  28
HETATM   28  O   UNL     1     -11.180   1.863 -35.053  1.00  0.00    -0.356 OA
HETATM   29  C   UNL     1     -11.994   2.997 -34.785  1.00  0.00     0.210 C 
ENDBRANCH  24  28
ENDBRANCH   1  22
TORSDOF 5
ENDMDL
