MODEL 1
REMARK VINA RESULT:      -9.4      0.000      0.000
REMARK  5 active torsions:
REMARK  status: ('A' for Active; 'I' for Inactive)
REMARK    1  A    between atoms: C_7  and  C_8 
REMARK    2  A    between atoms: C_8  and  N_9 
REMARK    3  A    between atoms: C_13  and  C_14 
REMARK    4  A    between atoms: C_17  and  C_18 
REMARK    5  A    between atoms: C_18  and  N_19 
ROOT
HETATM    1  N   UNL     1      -4.519   0.533 -31.924  1.00  0.00    -0.067 N 
HETATM    2  H   UNL     1      -3.769   0.689 -31.238  1.00  0.00     0.280 HD
HETATM    3  C   UNL     1      -5.059   1.887 -32.322  1.00  0.00     0.236 C 
HETATM    4  C   UNL     1      -5.755   2.560 -31.142  1.00  0.00     0.040 C 
HETATM    5  C   UNL     1      -6.852   1.697 -30.513  1.00  0.00     0.060 C 
HETATM    6  C   UNL     1      -6.274   0.324 -30.147  1.00  0.00     0.040 C 
HETATM    7  C   UNL     1      -5.557  -0.369 -31.301  1.00  0.00     0.236 C 
ENDROOT
BRANCH   5   8
HETATM    8  C   UNL     1      -8.038   1.577 -31.433  1.00  0.00     0.134 A 
HETATM    9  N   UNL     1      -8.826   2.609 -31.895  1.00  0.00    -0.323 N 
HETATM   10  C   UNL     1      -8.675   4.012 -31.596  1.00  0.00     0.159 C 
HETATM   11  C   UNL     1      -9.773   2.022 -32.702  1.00  0.00     0.155 A 
HETATM   12  N   UNL     1      -9.548   0.724 -32.748  1.00  0.00    -0.133 NA
HETATM   13  N   UNL     1      -8.477   0.451 -31.953  1.00  0.00    -0.134 NA
BRANCH  11  14
HETATM   14  C   UNL     1     -10.884   2.706 -33.427  1.00  0.00     0.315 C 
BRANCH  14  15
HETATM   15  N   UNL     1     -12.213   2.016 -33.168  1.00  0.00    -0.064 N 
HETATM   16  H   UNL     1     -12.044   1.449 -32.321  1.00  0.00     0.280 HD
HETATM   17  C   UNL     1     -13.312   2.992 -32.807  1.00  0.00     0.235 C 
HETATM   18  C   UNL     1     -14.546   2.219 -32.367  1.00  0.00     0.028 C 
HETATM   19  C   UNL     1     -14.999   1.233 -33.437  1.00  0.00     0.003 C 
HETATM   20  C   UNL     1     -13.862   0.306 -33.851  1.00  0.00     0.028 C 
HETATM   21  C   UNL     1     -12.621   1.081 -34.274  1.00  0.00     0.235 C 
ENDBRANCH  14  15
ENDBRANCH  11  14
ENDBRANCH   5   8
BRANCH   1  22
HETATM   22  C   UNL     1      -3.864  -0.190 -33.097  1.00  0.00     0.273 C 
BRANCH  22  23
HETATM   23  C   UNL     1      -4.724  -1.255 -33.723  1.00  0.00    -0.032 A 
HETATM   24  C   UNL     1      -5.979  -0.938 -34.263  1.00  0.00     0.012 A 
HETATM   25  C   UNL     1      -6.782  -1.944 -34.802  1.00  0.00     0.043 A 
HETATM   26  C   UNL     1      -6.339  -3.262 -34.803  1.00  0.00     0.122 A 
HETATM   27  C   UNL     1      -5.088  -3.604 -34.288  1.00  0.00    -0.023 A 
HETATM   28  F   UNL     1      -7.137  -4.212 -35.305  1.00  0.00    -0.206 F 
HETATM   29  C   UNL     1      -4.641  -5.035 -34.271  1.00  0.00     0.051 C 
HETATM   30  C   UNL     1      -4.287  -2.594 -33.741  1.00  0.00     0.018 A 
ENDBRANCH  22  23
ENDBRANCH   1  22
TORSDOF 5
ENDMDL
MODEL 2
REMARK VINA RESULT:      -9.3      3.521      7.555
REMARK  5 active torsions:
REMARK  status: ('A' for Active; 'I' for Inactive)
REMARK    1  A    between atoms: C_7  and  C_8 
REMARK    2  A    between atoms: C_8  and  N_9 
REMARK    3  A    between atoms: C_13  and  C_14 
REMARK    4  A    between atoms: C_17  and  C_18 
REMARK    5  A    between atoms: C_18  and  N_19 
ROOT
HETATM    1  N   UNL     1      -7.652   0.527 -32.116  1.00  0.00    -0.067 N 
HETATM    2  H   UNL     1      -8.521   0.287 -31.622  1.00  0.00     0.280 HD
HETATM    3  C   UNL     1      -6.504  -0.053 -31.321  1.00  0.00     0.236 C 
HETATM    4  C   UNL     1      -6.378   0.642 -29.968  1.00  0.00     0.040 C 
HETATM    5  C   UNL     1      -6.255   2.164 -30.078  1.00  0.00     0.060 C 
HETATM    6  C   UNL     1      -7.420   2.712 -30.912  1.00  0.00     0.040 C 
HETATM    7  C   UNL     1      -7.583   2.027 -32.264  1.00  0.00     0.236 C 
ENDROOT
BRANCH   5   8
HETATM    8  C   UNL     1      -4.921   2.556 -30.655  1.00  0.00     0.134 A 
HETATM    9  N   UNL     1      -4.438   3.837 -30.809  1.00  0.00    -0.323 N 
HETATM   10  C   UNL     1      -5.108   5.063 -30.449  1.00  0.00     0.159 C 
HETATM   11  C   UNL     1      -3.188   3.700 -31.368  1.00  0.00     0.155 A 
HETATM   12  N   UNL     1      -2.924   2.417 -31.509  1.00  0.00    -0.133 NA
HETATM   13  N   UNL     1      -4.003   1.711 -31.075  1.00  0.00    -0.134 NA
BRANCH  11  14
HETATM   14  C   UNL     1      -2.253   4.796 -31.759  1.00  0.00     0.315 C 
BRANCH  14  15
HETATM   15  N   UNL     1      -1.510   5.340 -30.549  1.00  0.00    -0.064 N 
HETATM   16  H   UNL     1      -1.877   4.788 -29.757  1.00  0.00     0.280 HD
HETATM   17  C   UNL     1      -0.025   5.059 -30.606  1.00  0.00     0.235 C 
HETATM   18  C   UNL     1       0.611   5.448 -29.280  1.00  0.00     0.028 C 
HETATM   19  C   UNL     1       0.328   6.904 -28.931  1.00  0.00     0.003 C 
HETATM   20  C   UNL     1      -1.167   7.198 -28.955  1.00  0.00     0.028 C 
HETATM   21  C   UNL     1      -1.806   6.791 -30.276  1.00  0.00     0.235 C 
ENDBRANCH  14  15
ENDBRANCH  11  14
ENDBRANCH   5   8
BRANCH   1  22
HETATM   22  C   UNL     1      -7.771  -0.110 -33.498  1.00  0.00     0.273 C 
BRANCH  22  23
HETATM   23  C   UNL     1      -6.688  -1.107 -33.811  1.00  0.00    -0.032 A 
HETATM   24  C   UNL     1      -5.337  -0.782 -33.627  1.00  0.00     0.012 A 
HETATM   25  C   UNL     1      -4.344  -1.703 -33.962  1.00  0.00     0.043 A 
HETATM   26  C   UNL     1      -4.694  -2.946 -34.480  1.00  0.00     0.122 A 
HETATM   27  C   UNL     1      -6.031  -3.304 -34.657  1.00  0.00    -0.023 A 
HETATM   28  F   UNL     1      -3.722  -3.804 -34.814  1.00  0.00    -0.206 F 
HETATM   29  C   UNL     1      -6.387  -4.637 -35.245  1.00  0.00     0.051 C 
HETATM   30  C   UNL     1      -7.026  -2.374 -34.327  1.00  0.00     0.018 A 
ENDBRANCH  22  23
ENDBRANCH   1  22
TORSDOF 5
ENDMDL
MODEL 3
REMARK VINA RESULT:      -8.8      4.098      7.685
REMARK  5 active torsions:
REMARK  status: ('A' for Active; 'I' for Inactive)
REMARK    1  A    between atoms: C_7  and  C_8 
REMARK    2  A    between atoms: C_8  and  N_9 
REMARK    3  A    between atoms: C_13  and  C_14 
REMARK    4  A    between atoms: C_17  and  C_18 
REMARK    5  A    between atoms: C_18  and  N_19 
ROOT
HETATM    1  N   UNL     1      -5.589   0.771 -32.213  1.00  0.00    -0.067 N 
HETATM    2  H   UNL     1      -6.389   0.130 -32.139  1.00  0.00     0.280 HD
HETATM    3  C   UNL     1      -5.075   1.019 -30.814  1.00  0.00     0.236 C 
HETATM    4  C   UNL     1      -6.103   1.787 -29.988  1.00  0.00     0.040 C 
HETATM    5  C   UNL     1      -6.553   3.095 -30.646  1.00  0.00     0.060 C 
HETATM    6  C   UNL     1      -7.042   2.807 -32.071  1.00  0.00     0.040 C 
HETATM    7  C   UNL     1      -6.044   2.026 -32.918  1.00  0.00     0.236 C 
ENDROOT
BRANCH   5   8
HETATM    8  C   UNL     1      -5.446   4.115 -30.629  1.00  0.00     0.134 A 
HETATM    9  N   UNL     1      -5.279   5.130 -29.713  1.00  0.00    -0.323 N 
HETATM   10  C   UNL     1      -6.126   5.422 -28.582  1.00  0.00     0.159 C 
HETATM   11  C   UNL     1      -4.138   5.795 -30.097  1.00  0.00     0.155 A 
HETATM   12  N   UNL     1      -3.633   5.197 -31.158  1.00  0.00    -0.133 NA
HETATM   13  N   UNL     1      -4.452   4.162 -31.491  1.00  0.00    -0.134 NA
BRANCH  11  14
HETATM   14  C   UNL     1      -3.535   6.995 -29.446  1.00  0.00     0.315 C 
BRANCH  14  15
HETATM   15  N   UNL     1      -2.061   6.772 -29.144  1.00  0.00    -0.064 N 
HETATM   16  H   UNL     1      -1.915   5.765 -29.322  1.00  0.00     0.280 HD
HETATM   17  C   UNL     1      -1.155   7.504 -30.109  1.00  0.00     0.235 C 
HETATM   18  C   UNL     1       0.284   7.073 -29.872  1.00  0.00     0.028 C 
HETATM   19  C   UNL     1       0.704   7.300 -28.424  1.00  0.00     0.003 C 
HETATM   20  C   UNL     1      -0.262   6.625 -27.457  1.00  0.00     0.028 C 
HETATM   21  C   UNL     1      -1.704   7.043 -27.707  1.00  0.00     0.235 C 
ENDBRANCH  14  15
ENDBRANCH  11  14
ENDBRANCH   5   8
BRANCH   1  22
HETATM   22  C   UNL     1      -4.561   0.051 -33.082  1.00  0.00     0.273 C 
BRANCH  22  23
HETATM   23  C   UNL     1      -5.056  -1.238 -33.682  1.00  0.00    -0.032 A 
HETATM   24  C   UNL     1      -6.324  -1.312 -34.277  1.00  0.00     0.012 A 
HETATM   25  C   UNL     1      -6.784  -2.525 -34.792  1.00  0.00     0.043 A 
HETATM   26  C   UNL     1      -5.986  -3.661 -34.713  1.00  0.00     0.122 A 
HETATM   27  C   UNL     1      -4.714  -3.613 -34.143  1.00  0.00    -0.023 A 
HETATM   28  F   UNL     1      -6.459  -4.818 -35.194  1.00  0.00    -0.206 F 
HETATM   29  C   UNL     1      -3.881  -4.856 -34.041  1.00  0.00     0.051 C 
HETATM   30  C   UNL     1      -4.257  -2.396 -33.620  1.00  0.00     0.018 A 
ENDBRANCH  22  23
ENDBRANCH   1  22
TORSDOF 5
ENDMDL
MODEL 4
REMARK VINA RESULT:      -8.6      3.831      7.838
REMARK  5 active torsions:
REMARK  status: ('A' for Active; 'I' for Inactive)
REMARK    1  A    between atoms: C_7  and  C_8 
REMARK    2  A    between atoms: C_8  and  N_9 
REMARK    3  A    between atoms: C_13  and  C_14 
REMARK    4  A    between atoms: C_17  and  C_18 
REMARK    5  A    between atoms: C_18  and  N_19 
ROOT
HETATM    1  N   UNL     1      -8.104   1.900 -32.429  1.00  0.00    -0.067 N 
HETATM    2  H   UNL     1      -9.049   2.218 -32.674  1.00  0.00     0.280 HD
HETATM    3  C   UNL     1      -7.710   2.597 -31.146  1.00  0.00     0.236 C 
HETATM    4  C   UNL     1      -7.561   4.099 -31.371  1.00  0.00     0.040 C 
HETATM    5  C   UNL     1      -6.592   4.449 -32.503  1.00  0.00     0.060 C 
HETATM    6  C   UNL     1      -7.008   3.705 -33.779  1.00  0.00     0.040 C 
HETATM    7  C   UNL     1      -7.181   2.202 -33.584  1.00  0.00     0.236 C 
ENDROOT
BRANCH   5   8
HETATM    8  C   UNL     1      -5.172   4.140 -32.113  1.00  0.00     0.134 A 
HETATM    9  N   UNL     1      -4.063   4.920 -32.361  1.00  0.00    -0.323 N 
HETATM   10  C   UNL     1      -4.037   6.192 -33.043  1.00  0.00     0.159 C 
HETATM   11  C   UNL     1      -2.998   4.239 -31.819  1.00  0.00     0.155 A 
HETATM   12  N   UNL     1      -3.443   3.136 -31.252  1.00  0.00    -0.133 NA
HETATM   13  N   UNL     1      -4.789   3.073 -31.444  1.00  0.00    -0.134 NA
BRANCH  11  14
HETATM   14  C   UNL     1      -1.563   4.649 -31.843  1.00  0.00     0.315 C 
BRANCH  14  15
HETATM   15  N   UNL     1      -1.136   5.225 -30.502  1.00  0.00    -0.064 N 
HETATM   16  H   UNL     1      -1.599   4.618 -29.806  1.00  0.00     0.280 HD
HETATM   17  C   UNL     1       0.350   5.084 -30.259  1.00  0.00     0.235 C 
HETATM   18  C   UNL     1       0.666   5.491 -28.828  1.00  0.00     0.028 C 
HETATM   19  C   UNL     1       0.179   6.905 -28.529  1.00  0.00     0.003 C 
HETATM   20  C   UNL     1      -1.302   7.059 -28.854  1.00  0.00     0.028 C 
HETATM   21  C   UNL     1      -1.619   6.633 -30.281  1.00  0.00     0.235 C 
ENDBRANCH  14  15
ENDBRANCH  11  14
ENDBRANCH   5   8
BRANCH   1  22
HETATM   22  C   UNL     1      -8.208   0.388 -32.250  1.00  0.00     0.273 C 
BRANCH  22  23
HETATM   23  C   UNL     1      -7.089  -0.386 -32.894  1.00  0.00    -0.032 A 
HETATM   24  C   UNL     1      -7.276  -1.025 -34.128  1.00  0.00     0.012 A 
HETATM   25  C   UNL     1      -6.242  -1.775 -34.691  1.00  0.00     0.043 A 
HETATM   26  C   UNL     1      -5.025  -1.888 -34.027  1.00  0.00     0.122 A 
HETATM   27  C   UNL     1      -4.804  -1.249 -32.806  1.00  0.00    -0.023 A 
HETATM   28  F   UNL     1      -4.055  -2.631 -34.576  1.00  0.00    -0.206 F 
HETATM   29  C   UNL     1      -3.496  -1.409 -32.092  1.00  0.00     0.051 C 
HETATM   30  C   UNL     1      -5.847  -0.504 -32.240  1.00  0.00     0.018 A 
ENDBRANCH  22  23
ENDBRANCH   1  22
TORSDOF 5
ENDMDL
MODEL 5
REMARK VINA RESULT:      -8.5      1.758      2.545
REMARK  5 active torsions:
REMARK  status: ('A' for Active; 'I' for Inactive)
REMARK    1  A    between atoms: C_7  and  C_8 
REMARK    2  A    between atoms: C_8  and  N_9 
REMARK    3  A    between atoms: C_13  and  C_14 
REMARK    4  A    between atoms: C_17  and  C_18 
REMARK    5  A    between atoms: C_18  and  N_19 
ROOT
HETATM    1  N   UNL     1      -7.084   0.921 -33.117  1.00  0.00    -0.067 N 
HETATM    2  H   UNL     1      -6.163   0.707 -32.713  1.00  0.00     0.280 HD
HETATM    3  C   UNL     1      -6.932   2.166 -33.959  1.00  0.00     0.236 C 
HETATM    4  C   UNL     1      -6.609   3.375 -33.085  1.00  0.00     0.040 C 
HETATM    5  C   UNL     1      -7.623   3.596 -31.959  1.00  0.00     0.060 C 
HETATM    6  C   UNL     1      -7.770   2.305 -31.144  1.00  0.00     0.040 C 
HETATM    7  C   UNL     1      -8.077   1.075 -31.990  1.00  0.00     0.236 C 
ENDROOT
BRANCH   5   8
HETATM    8  C   UNL     1      -8.944   4.064 -32.508  1.00  0.00     0.134 A 
HETATM    9  N   UNL     1     -10.148   4.095 -31.837  1.00  0.00    -0.323 N 
HETATM   10  C   UNL     1     -10.388   3.687 -30.474  1.00  0.00     0.159 C 
HETATM   11  C   UNL     1     -11.061   4.600 -32.733  1.00  0.00     0.155 A 
HETATM   12  N   UNL     1     -10.440   4.885 -33.859  1.00  0.00    -0.133 NA
HETATM   13  N   UNL     1      -9.130   4.543 -33.720  1.00  0.00    -0.134 NA
BRANCH  11  14
HETATM   14  C   UNL     1     -12.521   4.810 -32.505  1.00  0.00     0.315 C 
BRANCH  14  15
HETATM   15  N   UNL     1     -13.276   3.490 -32.535  1.00  0.00    -0.064 N 
HETATM   16  H   UNL     1     -12.820   2.920 -31.803  1.00  0.00     0.280 HD
HETATM   17  C   UNL     1     -14.720   3.639 -32.112  1.00  0.00     0.235 C 
HETATM   18  C   UNL     1     -15.347   2.260 -31.971  1.00  0.00     0.028 C 
HETATM   19  C   UNL     1     -15.219   1.454 -33.259  1.00  0.00     0.003 C 
HETATM   20  C   UNL     1     -13.768   1.378 -33.720  1.00  0.00     0.028 C 
HETATM   21  C   UNL     1     -13.137   2.758 -33.843  1.00  0.00     0.235 C 
ENDBRANCH  14  15
ENDBRANCH  11  14
ENDBRANCH   5   8
BRANCH   1  22
HETATM   22  C   UNL     1      -7.460  -0.296 -33.957  1.00  0.00     0.273 C 
BRANCH  22  23
HETATM   23  C   UNL     1      -6.406  -1.369 -33.994  1.00  0.00    -0.032 A 
HETATM   24  C   UNL     1      -5.128  -1.139 -33.465  1.00  0.00     0.012 A 
HETATM   25  C   UNL     1      -4.148  -2.129 -33.545  1.00  0.00     0.043 A 
HETATM   26  C   UNL     1      -4.440  -3.347 -34.151  1.00  0.00     0.122 A 
HETATM   27  C   UNL     1      -5.707  -3.612 -34.670  1.00  0.00    -0.023 A 
HETATM   28  F   UNL     1      -3.477  -4.274 -34.235  1.00  0.00    -0.206 F 
HETATM   29  C   UNL     1      -5.992  -4.919 -35.346  1.00  0.00     0.051 C 
HETATM   30  C   UNL     1      -6.686  -2.612 -34.595  1.00  0.00     0.018 A 
ENDBRANCH  22  23
ENDBRANCH   1  22
TORSDOF 5
ENDMDL
MODEL 6
REMARK VINA RESULT:      -8.4      6.767      9.878
REMARK  5 active torsions:
REMARK  status: ('A' for Active; 'I' for Inactive)
REMARK    1  A    between atoms: C_7  and  C_8 
REMARK    2  A    between atoms: C_8  and  N_9 
REMARK    3  A    between atoms: C_13  and  C_14 
REMARK    4  A    between atoms: C_17  and  C_18 
REMARK    5  A    between atoms: C_18  and  N_19 
ROOT
HETATM    1  N   UNL     1      -0.594   6.296 -30.454  1.00  0.00    -0.067 N 
HETATM    2  H   UNL     1      -0.142   7.163 -30.770  1.00  0.00     0.280 HD
HETATM    3  C   UNL     1      -0.298   5.229 -31.483  1.00  0.00     0.236 C 
HETATM    4  C   UNL     1      -0.980   5.553 -32.809  1.00  0.00     0.040 C 
HETATM    5  C   UNL     1      -2.488   5.780 -32.674  1.00  0.00     0.060 C 
HETATM    6  C   UNL     1      -2.750   6.848 -31.605  1.00  0.00     0.040 C 
HETATM    7  C   UNL     1      -2.068   6.563 -30.271  1.00  0.00     0.236 C 
ENDROOT
BRANCH   5   8
HETATM    8  C   UNL     1      -3.203   4.492 -32.365  1.00  0.00     0.134 A 
HETATM    9  N   UNL     1      -4.537   4.221 -32.577  1.00  0.00    -0.323 N 
HETATM   10  C   UNL     1      -5.521   5.113 -33.141  1.00  0.00     0.159 C 
HETATM   11  C   UNL     1      -4.728   2.928 -32.150  1.00  0.00     0.155 A 
HETATM   12  N   UNL     1      -3.574   2.442 -31.737  1.00  0.00    -0.133 NA
HETATM   13  N   UNL     1      -2.633   3.416 -31.863  1.00  0.00    -0.134 NA
BRANCH  11  14
HETATM   14  C   UNL     1      -6.010   2.164 -32.141  1.00  0.00     0.315 C 
BRANCH  14  15
HETATM   15  N   UNL     1      -6.053   1.154 -33.277  1.00  0.00    -0.064 N 
HETATM   16  H   UNL     1      -5.221   1.378 -33.847  1.00  0.00     0.280 HD
HETATM   17  C   UNL     1      -5.863  -0.267 -32.796  1.00  0.00     0.235 C 
HETATM   18  C   UNL     1      -5.715  -1.189 -33.996  1.00  0.00     0.028 C 
HETATM   19  C   UNL     1      -6.905  -1.070 -34.942  1.00  0.00     0.003 C 
HETATM   20  C   UNL     1      -7.137   0.378 -35.358  1.00  0.00     0.028 C 
HETATM   21  C   UNL     1      -7.267   1.302 -34.155  1.00  0.00     0.235 C 
ENDBRANCH  14  15
ENDBRANCH  11  14
ENDBRANCH   5   8
BRANCH   1  22
HETATM   22  C   UNL     1       0.031   5.974 -29.099  1.00  0.00     0.273 C 
BRANCH  22  23
HETATM   23  C   UNL     1       0.143   7.157 -28.176  1.00  0.00    -0.032 A 
HETATM   24  C   UNL     1       1.220   8.049 -28.280  1.00  0.00     0.012 A 
HETATM   25  C   UNL     1       1.332   9.117 -27.388  1.00  0.00     0.043 A 
HETATM   26  C   UNL     1       0.374   9.297 -26.396  1.00  0.00     0.122 A 
HETATM   27  C   UNL     1      -0.718   8.436 -26.280  1.00  0.00    -0.023 A 
HETATM   28  F   UNL     1       0.515  10.317 -25.539  1.00  0.00    -0.206 F 
HETATM   29  C   UNL     1      -1.723   8.630 -25.184  1.00  0.00     0.051 C 
HETATM   30  C   UNL     1      -0.823   7.360 -27.171  1.00  0.00     0.018 A 
ENDBRANCH  22  23
ENDBRANCH   1  22
TORSDOF 5
ENDMDL
MODEL 7
REMARK VINA RESULT:      -8.4      3.250      6.663
REMARK  5 active torsions:
REMARK  status: ('A' for Active; 'I' for Inactive)
REMARK    1  A    between atoms: C_7  and  C_8 
REMARK    2  A    between atoms: C_8  and  N_9 
REMARK    3  A    between atoms: C_13  and  C_14 
REMARK    4  A    between atoms: C_17  and  C_18 
REMARK    5  A    between atoms: C_18  and  N_19 
ROOT
HETATM    1  N   UNL     1      -7.538   0.978 -33.465  1.00  0.00    -0.067 N 
HETATM    2  H   UNL     1      -8.143   0.195 -33.187  1.00  0.00     0.280 HD
HETATM    3  C   UNL     1      -6.652   1.308 -32.285  1.00  0.00     0.236 C 
HETATM    4  C   UNL     1      -7.478   1.859 -31.127  1.00  0.00     0.040 C 
HETATM    5  C   UNL     1      -8.342   3.062 -31.516  1.00  0.00     0.060 C 
HETATM    6  C   UNL     1      -9.205   2.698 -32.731  1.00  0.00     0.040 C 
HETATM    7  C   UNL     1      -8.412   2.129 -33.901  1.00  0.00     0.236 C 
ENDROOT
BRANCH   5   8
HETATM    8  C   UNL     1      -7.490   4.274 -31.779  1.00  0.00     0.134 A 
HETATM    9  N   UNL     1      -6.498   4.774 -30.964  1.00  0.00    -0.323 N 
HETATM   10  C   UNL     1      -6.071   4.237 -29.695  1.00  0.00     0.159 C 
HETATM   11  C   UNL     1      -6.000   5.878 -31.615  1.00  0.00     0.155 A 
HETATM   12  N   UNL     1      -6.631   6.015 -32.764  1.00  0.00    -0.133 NA
HETATM   13  N   UNL     1      -7.560   5.025 -32.859  1.00  0.00    -0.134 NA
BRANCH  11  14
HETATM   14  C   UNL     1      -4.923   6.794 -31.137  1.00  0.00     0.315 C 
BRANCH  14  15
HETATM   15  N   UNL     1      -3.633   6.573 -31.911  1.00  0.00    -0.064 N 
HETATM   16  H   UNL     1      -3.946   6.395 -32.879  1.00  0.00     0.280 HD
HETATM   17  C   UNL     1      -2.773   7.816 -31.970  1.00  0.00     0.235 C 
HETATM   18  C   UNL     1      -1.611   7.579 -32.923  1.00  0.00     0.028 C 
HETATM   19  C   UNL     1      -0.800   6.352 -32.521  1.00  0.00     0.003 C 
HETATM   20  C   UNL     1      -1.690   5.122 -32.386  1.00  0.00     0.028 C 
HETATM   21  C   UNL     1      -2.862   5.367 -31.446  1.00  0.00     0.235 C 
ENDBRANCH  14  15
ENDBRANCH  11  14
ENDBRANCH   5   8
BRANCH   1  22
HETATM   22  C   UNL     1      -6.734   0.475 -34.661  1.00  0.00     0.273 C 
BRANCH  22  23
HETATM   23  C   UNL     1      -6.058  -0.851 -34.435  1.00  0.00    -0.032 A 
HETATM   24  C   UNL     1      -4.819  -0.922 -33.783  1.00  0.00     0.012 A 
HETATM   25  C   UNL     1      -4.186  -2.155 -33.619  1.00  0.00     0.043 A 
HETATM   26  C   UNL     1      -4.783  -3.314 -34.103  1.00  0.00     0.122 A 
HETATM   27  C   UNL     1      -6.024  -3.275 -34.740  1.00  0.00    -0.023 A 
HETATM   28  F   UNL     1      -4.146  -4.481 -33.953  1.00  0.00    -0.206 F 
HETATM   29  C   UNL     1      -6.637  -4.532 -35.282  1.00  0.00     0.051 C 
HETATM   30  C   UNL     1      -6.654  -2.035 -34.911  1.00  0.00     0.018 A 
ENDBRANCH  22  23
ENDBRANCH   1  22
TORSDOF 5
ENDMDL
MODEL 8
REMARK VINA RESULT:      -8.4      1.959      2.805
REMARK  5 active torsions:
REMARK  status: ('A' for Active; 'I' for Inactive)
REMARK    1  A    between atoms: C_7  and  C_8 
REMARK    2  A    between atoms: C_8  and  N_9 
REMARK    3  A    between atoms: C_13  and  C_14 
REMARK    4  A    between atoms: C_17  and  C_18 
REMARK    5  A    between atoms: C_18  and  N_19 
ROOT
HETATM    1  N   UNL     1      -3.876   1.494 -30.922  1.00  0.00    -0.067 N 
HETATM    2  H   UNL     1      -3.076   1.813 -30.361  1.00  0.00     0.280 HD
HETATM    3  C   UNL     1      -3.646   1.953 -32.343  1.00  0.00     0.236 C 
HETATM    4  C   UNL     1      -3.698   3.475 -32.436  1.00  0.00     0.040 C 
HETATM    5  C   UNL     1      -4.990   4.072 -31.870  1.00  0.00     0.060 C 
HETATM    6  C   UNL     1      -5.203   3.564 -30.439  1.00  0.00     0.040 C 
HETATM    7  C   UNL     1      -5.141   2.046 -30.310  1.00  0.00     0.236 C 
ENDROOT
BRANCH   5   8
HETATM    8  C   UNL     1      -6.164   3.755 -32.757  1.00  0.00     0.134 A 
HETATM    9  N   UNL     1      -7.353   4.448 -32.824  1.00  0.00    -0.323 N 
HETATM   10  C   UNL     1      -7.716   5.618 -32.063  1.00  0.00     0.159 C 
HETATM   11  C   UNL     1      -8.111   3.797 -33.770  1.00  0.00     0.155 A 
HETATM   12  N   UNL     1      -7.409   2.797 -34.263  1.00  0.00    -0.133 NA
HETATM   13  N   UNL     1      -6.206   2.768 -33.627  1.00  0.00    -0.134 NA
BRANCH  11  14
HETATM   14  C   UNL     1      -9.500   4.137 -34.199  1.00  0.00     0.315 C 
BRANCH  14  15
HETATM   15  N   UNL     1     -10.341   2.884 -34.378  1.00  0.00    -0.064 N 
HETATM   16  H   UNL     1      -9.768   2.279 -34.989  1.00  0.00     0.280 HD
HETATM   17  C   UNL     1     -10.527   2.121 -33.086  1.00  0.00     0.235 C 
HETATM   18  C   UNL     1     -11.198   0.788 -33.380  1.00  0.00     0.028 C 
HETATM   19  C   UNL     1     -12.519   0.979 -34.116  1.00  0.00     0.003 C 
HETATM   20  C   UNL     1     -12.335   1.817 -35.376  1.00  0.00     0.028 C 
HETATM   21  C   UNL     1     -11.647   3.143 -35.081  1.00  0.00     0.235 C 
ENDBRANCH  14  15
ENDBRANCH  11  14
ENDBRANCH   5   8
BRANCH   1  22
HETATM   22  C   UNL     1      -3.884  -0.028 -30.805  1.00  0.00     0.273 C 
BRANCH  22  23
HETATM   23  C   UNL     1      -4.511  -0.732 -31.978  1.00  0.00    -0.032 A 
HETATM   24  C   UNL     1      -3.757  -1.598 -32.783  1.00  0.00     0.012 A 
HETATM   25  C   UNL     1      -4.343  -2.211 -33.891  1.00  0.00     0.043 A 
HETATM   26  C   UNL     1      -5.677  -1.962 -34.199  1.00  0.00     0.122 A 
HETATM   27  C   UNL     1      -6.457  -1.120 -33.406  1.00  0.00    -0.023 A 
HETATM   28  F   UNL     1      -6.210  -2.545 -35.280  1.00  0.00    -0.206 F 
HETATM   29  C   UNL     1      -7.884  -0.841 -33.772  1.00  0.00     0.051 C 
HETATM   30  C   UNL     1      -5.863  -0.499 -32.298  1.00  0.00     0.018 A 
ENDBRANCH  22  23
ENDBRANCH   1  22
TORSDOF 5
ENDMDL
MODEL 9
REMARK VINA RESULT:      -8.2      5.362      8.871
REMARK  5 active torsions:
REMARK  status: ('A' for Active; 'I' for Inactive)
REMARK    1  A    between atoms: C_7  and  C_8 
REMARK    2  A    between atoms: C_8  and  N_9 
REMARK    3  A    between atoms: C_13  and  C_14 
REMARK    4  A    between atoms: C_17  and  C_18 
REMARK    5  A    between atoms: C_18  and  N_19 
ROOT
HETATM    1  N   UNL     1      -4.496   2.877 -32.915  1.00  0.00    -0.067 N 
HETATM    2  H   UNL     1      -4.581   2.523 -33.877  1.00  0.00     0.280 HD
HETATM    3  C   UNL     1      -5.489   4.006 -32.759  1.00  0.00     0.236 C 
HETATM    4  C   UNL     1      -5.102   5.192 -33.637  1.00  0.00     0.040 C 
HETATM    5  C   UNL     1      -3.672   5.684 -33.397  1.00  0.00     0.060 C 
HETATM    6  C   UNL     1      -2.698   4.508 -33.538  1.00  0.00     0.040 C 
HETATM    7  C   UNL     1      -3.065   3.299 -32.685  1.00  0.00     0.236 C 
ENDROOT
BRANCH   5   8
HETATM    8  C   UNL     1      -3.550   6.352 -32.054  1.00  0.00     0.134 A 
HETATM    9  N   UNL     1      -2.646   7.331 -31.703  1.00  0.00    -0.323 N 
HETATM   10  C   UNL     1      -1.634   7.916 -32.548  1.00  0.00     0.159 C 
HETATM   11  C   UNL     1      -2.917   7.635 -30.389  1.00  0.00     0.155 A 
HETATM   12  N   UNL     1      -3.940   6.908 -29.986  1.00  0.00    -0.133 NA
HETATM   13  N   UNL     1      -4.325   6.108 -31.017  1.00  0.00    -0.134 NA
BRANCH  11  14
HETATM   14  C   UNL     1      -2.198   8.620 -29.528  1.00  0.00     0.315 C 
BRANCH  14  15
HETATM   15  N   UNL     1      -1.279   7.917 -28.541  1.00  0.00    -0.064 N 
HETATM   16  H   UNL     1      -1.815   7.085 -28.244  1.00  0.00     0.280 HD
HETATM   17  C   UNL     1      -0.019   7.395 -29.194  1.00  0.00     0.235 C 
HETATM   18  C   UNL     1       0.745   6.536 -28.197  1.00  0.00     0.028 C 
HETATM   19  C   UNL     1       1.051   7.305 -26.917  1.00  0.00     0.003 C 
HETATM   20  C   UNL     1      -0.216   7.896 -26.310  1.00  0.00     0.028 C 
HETATM   21  C   UNL     1      -0.988   8.740 -27.314  1.00  0.00     0.235 C 
ENDBRANCH  14  15
ENDBRANCH  11  14
ENDBRANCH   5   8
BRANCH   1  22
HETATM   22  C   UNL     1      -4.824   1.695 -32.008  1.00  0.00     0.273 C 
BRANCH  22  23
HETATM   23  C   UNL     1      -5.471   0.536 -32.716  1.00  0.00    -0.032 A 
HETATM   24  C   UNL     1      -6.865   0.467 -32.856  1.00  0.00     0.012 A 
HETATM   25  C   UNL     1      -7.452  -0.635 -33.478  1.00  0.00     0.043 A 
HETATM   26  C   UNL     1      -6.654  -1.667 -33.962  1.00  0.00     0.122 A 
HETATM   27  C   UNL     1      -5.264  -1.618 -33.853  1.00  0.00    -0.023 A 
HETATM   28  F   UNL     1      -7.242  -2.724 -34.535  1.00  0.00    -0.206 F 
HETATM   29  C   UNL     1      -4.424  -2.754 -34.354  1.00  0.00     0.051 C 
HETATM   30  C   UNL     1      -4.678  -0.514 -33.221  1.00  0.00     0.018 A 
ENDBRANCH  22  23
ENDBRANCH   1  22
TORSDOF 5
ENDMDL
MODEL 10
REMARK VINA RESULT:      -8.0      3.852      5.019
REMARK  5 active torsions:
REMARK  status: ('A' for Active; 'I' for Inactive)
REMARK    1  A    between atoms: C_7  and  C_8 
REMARK    2  A    between atoms: C_8  and  N_9 
REMARK    3  A    between atoms: C_13  and  C_14 
REMARK    4  A    between atoms: C_17  and  C_18 
REMARK    5  A    between atoms: C_18  and  N_19 
ROOT
HETATM    1  N   UNL     1      -6.897   1.290 -33.028  1.00  0.00    -0.067 N 
HETATM    2  H   UNL     1      -6.202   0.870 -32.398  1.00  0.00     0.280 HD
HETATM    3  C   UNL     1      -6.203   2.388 -33.801  1.00  0.00     0.236 C 
HETATM    4  C   UNL     1      -5.792   3.527 -32.873  1.00  0.00     0.040 C 
HETATM    5  C   UNL     1      -6.954   4.088 -32.050  1.00  0.00     0.060 C 
HETATM    6  C   UNL     1      -7.649   2.944 -31.301  1.00  0.00     0.040 C 
HETATM    7  C   UNL     1      -8.059   1.782 -32.199  1.00  0.00     0.236 C 
ENDROOT
BRANCH   5   8
HETATM    8  C   UNL     1      -7.915   4.850 -32.923  1.00  0.00     0.134 A 
HETATM    9  N   UNL     1      -8.755   5.868 -32.527  1.00  0.00    -0.323 N 
HETATM   10  C   UNL     1      -8.884   6.414 -31.198  1.00  0.00     0.159 C 
HETATM   11  C   UNL     1      -9.432   6.255 -33.660  1.00  0.00     0.155 A 
HETATM   12  N   UNL     1      -9.002   5.538 -34.678  1.00  0.00    -0.133 NA
HETATM   13  N   UNL     1      -8.069   4.661 -34.217  1.00  0.00    -0.134 NA
BRANCH  11  14
HETATM   14  C   UNL     1     -10.482   7.311 -33.762  1.00  0.00     0.315 C 
BRANCH  14  15
HETATM   15  N   UNL     1     -10.209   8.244 -34.931  1.00  0.00    -0.064 N 
HETATM   16  H   UNL     1      -9.219   8.067 -35.171  1.00  0.00     0.280 HD
HETATM   17  C   UNL     1     -11.009   7.881 -36.162  1.00  0.00     0.235 C 
HETATM   18  C   UNL     1     -10.535   8.722 -37.337  1.00  0.00     0.028 C 
HETATM   19  C   UNL     1     -10.623  10.213 -37.028  1.00  0.00     0.003 C 
HETATM   20  C   UNL     1      -9.880  10.555 -35.742  1.00  0.00     0.028 C 
HETATM   21  C   UNL     1     -10.343   9.699 -34.571  1.00  0.00     0.235 C 
ENDBRANCH  14  15
ENDBRANCH  11  14
ENDBRANCH   5   8
BRANCH   1  22
HETATM   22  C   UNL     1      -7.371   0.160 -33.937  1.00  0.00     0.273 C 
BRANCH  22  23
HETATM   23  C   UNL     1      -6.420  -1.003 -34.019  1.00  0.00    -0.032 A 
HETATM   24  C   UNL     1      -5.111  -0.897 -33.526  1.00  0.00     0.012 A 
HETATM   25  C   UNL     1      -4.229  -1.972 -33.648  1.00  0.00     0.043 A 
HETATM   26  C   UNL     1      -4.647  -3.149 -34.259  1.00  0.00     0.122 A 
HETATM   27  C   UNL     1      -5.948  -3.289 -34.744  1.00  0.00    -0.023 A 
HETATM   28  F   UNL     1      -3.776  -4.157 -34.384  1.00  0.00    -0.206 F 
HETATM   29  C   UNL     1      -6.370  -4.555 -35.427  1.00  0.00     0.051 C 
HETATM   30  C   UNL     1      -6.829  -2.206 -34.627  1.00  0.00     0.018 A 
ENDBRANCH  22  23
ENDBRANCH   1  22
TORSDOF 5
ENDMDL
