MODEL 1
REMARK VINA RESULT:     -10.4      0.000      0.000
REMARK  5 active torsions:
REMARK  status: ('A' for Active; 'I' for Inactive)
REMARK    1  A    between atoms: C_7  and  C_8 
REMARK    2  A    between atoms: C_16  and  C_17 
REMARK    3  A    between atoms: C_20  and  O_21 
REMARK    4  A    between atoms: C_24  and  C_25 
REMARK       I    between atoms: C_25  and  N_26 
REMARK    5  A    between atoms: N_26  and  C_27 
ROOT
HETATM    1  C   UNL     1      -5.499   2.549 -29.645  1.00  0.00     0.070 C 
HETATM    2  C   UNL     1      -6.159   1.811 -30.783  1.00  0.00     0.037 C 
HETATM    3  N   UNL     1      -7.460   1.369 -30.537  1.00  0.00    -0.192 N 
HETATM    4  C   UNL     1      -8.303   1.030 -31.535  1.00  0.00     0.726 A 
HETATM    5  N   UNL     1      -7.812   0.837 -32.794  1.00  0.00    -0.083 N 
HETATM    6  N   UNL     1      -8.803   0.670 -33.691  1.00  0.00    -0.135 NA
HETATM    7  C   UNL     1      -9.889   0.725 -32.899  1.00  0.00     0.199 A 
HETATM    8  N   UNL     1      -9.606   0.919 -31.557  1.00  0.00    -0.041 NA
HETATM    9  C   UNL     1      -6.395   0.979 -33.147  1.00  0.00     0.202 C 
HETATM   10  C   UNL     1      -5.615   1.637 -32.014  1.00  0.00     0.062 C 
HETATM   11  H   UNL     1      -7.878   1.642 -29.651  1.00  0.00     0.184 HD
ENDROOT
BRANCH  10  12
HETATM   12  C   UNL     1      -4.301   2.183 -32.447  1.00  0.00     0.256 C 
HETATM   13  N   UNL     1      -4.304   3.540 -32.677  1.00  0.00    -0.323 N 
HETATM   14  H   UNL     1      -5.166   4.038 -32.493  1.00  0.00     0.169 HD
HETATM   15  O   UNL     1      -3.349   1.416 -32.519  1.00  0.00    -0.267 OA
BRANCH  13  16
HETATM   16  C   UNL     1      -3.236   4.319 -33.170  1.00  0.00     0.035 A 
HETATM   17  C   UNL     1      -3.208   4.886 -34.446  1.00  0.00     0.029 A 
HETATM   18  C   UNL     1      -2.122   5.666 -34.855  1.00  0.00     0.002 A 
HETATM   19  C   UNL     1      -1.056   5.891 -33.989  1.00  0.00     0.000 A 
HETATM   20  C   UNL     1      -1.072   5.331 -32.715  1.00  0.00     0.002 A 
HETATM   21  C   UNL     1      -2.154   4.545 -32.310  1.00  0.00     0.029 A 
ENDBRANCH  13  16
ENDBRANCH  10  12
BRANCH   9  22
HETATM   22  C   UNL     1      -5.800  -0.374 -33.531  1.00  0.00    -0.028 A 
HETATM   23  C   UNL     1      -4.840  -0.972 -32.694  1.00  0.00     0.012 A 
HETATM   24  C   UNL     1      -4.295  -2.219 -33.009  1.00  0.00     0.037 A 
HETATM   25  C   UNL     1      -4.712  -2.878 -34.160  1.00  0.00     0.065 A 
HETATM   26  C   UNL     1      -5.664  -2.313 -34.997  1.00  0.00     0.037 A 
HETATM   27  C   UNL     1      -6.210  -1.067 -34.685  1.00  0.00     0.012 A 
BRANCH  25  28
HETATM   28  O   UNL     1      -4.204  -4.095 -34.506  1.00  0.00    -0.361 OA
HETATM   29  H   UNL     1      -4.017  -4.093 -35.459  1.00  0.00     0.217 HD
ENDBRANCH  25  28
ENDBRANCH   9  22
BRANCH   7  30
HETATM   30  C   UNL     1     -11.260   0.667 -33.402  1.00  0.00     0.014 A 
HETATM   31  C   UNL     1     -11.817   1.749 -34.102  1.00  0.00     0.017 A 
HETATM   32  C   UNL     1     -13.143   1.708 -34.544  1.00  0.00     0.025 A 
HETATM   33  C   UNL     1     -13.921   0.581 -34.290  1.00  0.00     0.034 A 
HETATM   34 CL   UNL     1     -15.556   0.533 -34.822  1.00  0.00    -0.084 Cl
HETATM   35  C   UNL     1     -13.385  -0.505 -33.602  1.00  0.00     0.025 A 
HETATM   36  C   UNL     1     -12.058  -0.462 -33.161  1.00  0.00     0.017 A 
ENDBRANCH   7  30
TORSDOF 5
ENDMDL
MODEL 2
REMARK VINA RESULT:     -10.4      3.987      8.733
REMARK  5 active torsions:
REMARK  status: ('A' for Active; 'I' for Inactive)
REMARK    1  A    between atoms: C_7  and  C_8 
REMARK    2  A    between atoms: C_16  and  C_17 
REMARK    3  A    between atoms: C_20  and  O_21 
REMARK    4  A    between atoms: C_24  and  C_25 
REMARK       I    between atoms: C_25  and  N_26 
REMARK    5  A    between atoms: N_26  and  C_27 
ROOT
HETATM    1  C   UNL     1      -9.783   5.448 -34.594  1.00  0.00     0.070 C 
HETATM    2  C   UNL     1      -8.616   4.701 -33.999  1.00  0.00     0.037 C 
HETATM    3  N   UNL     1      -7.369   5.310 -34.158  1.00  0.00    -0.192 N 
HETATM    4  C   UNL     1      -6.307   4.978 -33.394  1.00  0.00     0.726 A 
HETATM    5  N   UNL     1      -6.347   3.839 -32.642  1.00  0.00    -0.083 N 
HETATM    6  N   UNL     1      -5.283   3.749 -31.823  1.00  0.00    -0.135 NA
HETATM    7  C   UNL     1      -4.594   4.855 -32.160  1.00  0.00     0.199 A 
HETATM    8  N   UNL     1      -5.193   5.619 -33.150  1.00  0.00    -0.041 NA
HETATM    9  C   UNL     1      -7.497   2.928 -32.604  1.00  0.00     0.202 C 
HETATM   10  C   UNL     1      -8.715   3.561 -33.269  1.00  0.00     0.062 C 
HETATM   11  H   UNL     1      -7.360   6.231 -34.589  1.00  0.00     0.184 HD
ENDROOT
BRANCH  10  12
HETATM   12  C   UNL     1      -9.993   2.892 -32.908  1.00  0.00     0.256 C 
HETATM   13  N   UNL     1     -10.600   2.236 -33.955  1.00  0.00    -0.323 N 
HETATM   14  H   UNL     1     -10.111   2.230 -34.842  1.00  0.00     0.169 HD
HETATM   15  O   UNL     1     -10.367   2.943 -31.743  1.00  0.00    -0.267 OA
BRANCH  13  16
HETATM   16  C   UNL     1     -11.852   1.585 -33.937  1.00  0.00     0.035 A 
HETATM   17  C   UNL     1     -13.052   2.192 -34.313  1.00  0.00     0.029 A 
HETATM   18  C   UNL     1     -14.252   1.473 -34.290  1.00  0.00     0.002 A 
HETATM   19  C   UNL     1     -14.260   0.138 -33.895  1.00  0.00     0.000 A 
HETATM   20  C   UNL     1     -13.071  -0.478 -33.518  1.00  0.00     0.002 A 
HETATM   21  C   UNL     1     -11.873   0.244 -33.534  1.00  0.00     0.029 A 
ENDBRANCH  13  16
ENDBRANCH  10  12
BRANCH   9  22
HETATM   22  C   UNL     1      -7.140   1.586 -33.240  1.00  0.00    -0.028 A 
HETATM   23  C   UNL     1      -6.784   0.502 -32.417  1.00  0.00     0.012 A 
HETATM   24  C   UNL     1      -6.475  -0.743 -32.970  1.00  0.00     0.037 A 
HETATM   25  C   UNL     1      -6.526  -0.912 -34.348  1.00  0.00     0.065 A 
HETATM   26  C   UNL     1      -6.884   0.139 -35.180  1.00  0.00     0.037 A 
HETATM   27  C   UNL     1      -7.193   1.384 -34.631  1.00  0.00     0.012 A 
BRANCH  25  28
HETATM   28  O   UNL     1      -6.230  -2.110 -34.929  1.00  0.00    -0.361 OA
HETATM   29  H   UNL     1      -6.401  -2.042 -35.883  1.00  0.00     0.217 HD
ENDBRANCH  25  28
ENDBRANCH   9  22
BRANCH   7  30
HETATM   30  C   UNL     1      -3.362   5.275 -31.496  1.00  0.00     0.014 A 
HETATM   31  C   UNL     1      -3.372   6.312 -30.549  1.00  0.00     0.017 A 
HETATM   32  C   UNL     1      -2.185   6.740 -29.948  1.00  0.00     0.025 A 
HETATM   33  C   UNL     1      -0.979   6.132 -30.288  1.00  0.00     0.034 A 
HETATM   34 CL   UNL     1       0.485   6.665 -29.557  1.00  0.00    -0.084 Cl
HETATM   35  C   UNL     1      -0.950   5.097 -31.221  1.00  0.00     0.025 A 
HETATM   36  C   UNL     1      -2.138   4.671 -31.822  1.00  0.00     0.017 A 
ENDBRANCH   7  30
TORSDOF 5
ENDMDL
MODEL 3
REMARK VINA RESULT:      -9.9      4.538      7.441
REMARK  5 active torsions:
REMARK  status: ('A' for Active; 'I' for Inactive)
REMARK    1  A    between atoms: C_7  and  C_8 
REMARK    2  A    between atoms: C_16  and  C_17 
REMARK    3  A    between atoms: C_20  and  O_21 
REMARK    4  A    between atoms: C_24  and  C_25 
REMARK       I    between atoms: C_25  and  N_26 
REMARK    5  A    between atoms: N_26  and  C_27 
ROOT
HETATM    1  C   UNL     1      -2.370   7.574 -32.803  1.00  0.00     0.070 C 
HETATM    2  C   UNL     1      -3.334   6.539 -32.279  1.00  0.00     0.037 C 
HETATM    3  N   UNL     1      -3.972   5.768 -33.252  1.00  0.00    -0.192 N 
HETATM    4  C   UNL     1      -4.563   4.590 -32.960  1.00  0.00     0.726 A 
HETATM    5  N   UNL     1      -4.800   4.261 -31.656  1.00  0.00    -0.083 N 
HETATM    6  N   UNL     1      -5.239   2.994 -31.536  1.00  0.00    -0.135 NA
HETATM    7  C   UNL     1      -5.295   2.611 -32.825  1.00  0.00     0.199 A 
HETATM    8  N   UNL     1      -4.908   3.589 -33.727  1.00  0.00    -0.041 NA
HETATM    9  C   UNL     1      -4.446   5.121 -30.521  1.00  0.00     0.202 C 
HETATM   10  C   UNL     1      -3.539   6.264 -30.966  1.00  0.00     0.062 C 
HETATM   11  H   UNL     1      -3.684   5.913 -34.216  1.00  0.00     0.184 HD
ENDROOT
BRANCH  10  12
HETATM   12  C   UNL     1      -2.817   6.913 -29.839  1.00  0.00     0.256 C 
HETATM   13  N   UNL     1      -1.530   6.459 -29.662  1.00  0.00    -0.323 N 
HETATM   14  H   UNL     1      -1.185   5.775 -30.324  1.00  0.00     0.169 HD
HETATM   15  O   UNL     1      -3.391   7.794 -29.212  1.00  0.00    -0.267 OA
BRANCH  13  16
HETATM   16  C   UNL     1      -0.635   6.826 -28.633  1.00  0.00     0.035 A 
HETATM   17  C   UNL     1      -0.675   6.298 -27.341  1.00  0.00     0.029 A 
HETATM   18  C   UNL     1       0.262   6.695 -26.381  1.00  0.00     0.002 A 
HETATM   19  C   UNL     1       1.250   7.620 -26.707  1.00  0.00     0.000 A 
HETATM   20  C   UNL     1       1.299   8.153 -27.992  1.00  0.00     0.002 A 
HETATM   21  C   UNL     1       0.358   7.762 -28.948  1.00  0.00     0.029 A 
ENDBRANCH  13  16
ENDBRANCH  10  12
BRANCH   9  22
HETATM   22  C   UNL     1      -5.704   5.637 -29.825  1.00  0.00    -0.028 A 
HETATM   23  C   UNL     1      -6.566   6.512 -30.509  1.00  0.00     0.012 A 
HETATM   24  C   UNL     1      -7.735   6.982 -29.905  1.00  0.00     0.037 A 
HETATM   25  C   UNL     1      -8.050   6.574 -28.614  1.00  0.00     0.065 A 
HETATM   26  C   UNL     1      -7.220   5.704 -27.922  1.00  0.00     0.037 A 
HETATM   27  C   UNL     1      -6.052   5.233 -28.522  1.00  0.00     0.012 A 
BRANCH  25  28
HETATM   28  O   UNL     1      -9.180   7.010 -27.987  1.00  0.00    -0.361 OA
HETATM   29  H   UNL     1      -9.309   6.484 -27.180  1.00  0.00     0.217 HD
ENDBRANCH  25  28
ENDBRANCH   9  22
BRANCH   7  30
HETATM   30  C   UNL     1      -5.651   1.259 -33.253  1.00  0.00     0.014 A 
HETATM   31  C   UNL     1      -5.041   0.136 -32.674  1.00  0.00     0.017 A 
HETATM   32  C   UNL     1      -5.353  -1.153 -33.115  1.00  0.00     0.025 A 
HETATM   33  C   UNL     1      -6.281  -1.327 -34.139  1.00  0.00     0.034 A 
HETATM   34 CL   UNL     1      -6.658  -2.913 -34.692  1.00  0.00    -0.084 Cl
HETATM   35  C   UNL     1      -6.903  -0.225 -34.722  1.00  0.00     0.025 A 
HETATM   36  C   UNL     1      -6.589   1.064 -34.279  1.00  0.00     0.017 A 
ENDBRANCH   7  30
TORSDOF 5
ENDMDL
MODEL 4
REMARK VINA RESULT:      -9.7      2.494      3.275
REMARK  5 active torsions:
REMARK  status: ('A' for Active; 'I' for Inactive)
REMARK    1  A    between atoms: C_7  and  C_8 
REMARK    2  A    between atoms: C_16  and  C_17 
REMARK    3  A    between atoms: C_20  and  O_21 
REMARK    4  A    between atoms: C_24  and  C_25 
REMARK       I    between atoms: C_25  and  N_26 
REMARK    5  A    between atoms: N_26  and  C_27 
ROOT
HETATM    1  C   UNL     1      -6.234   6.440 -29.149  1.00  0.00     0.070 C 
HETATM    2  C   UNL     1      -6.547   5.254 -30.028  1.00  0.00     0.037 C 
HETATM    3  N   UNL     1      -7.789   4.656 -29.808  1.00  0.00    -0.192 N 
HETATM    4  C   UNL     1      -8.367   3.846 -30.720  1.00  0.00     0.726 A 
HETATM    5  N   UNL     1      -7.623   3.364 -31.759  1.00  0.00    -0.083 N 
HETATM    6  N   UNL     1      -8.389   2.715 -32.657  1.00  0.00    -0.135 NA
HETATM    7  C   UNL     1      -9.601   2.796 -32.078  1.00  0.00     0.199 A 
HETATM    8  N   UNL     1      -9.610   3.467 -30.866  1.00  0.00    -0.041 NA
HETATM    9  C   UNL     1      -6.203   3.675 -31.958  1.00  0.00     0.202 C 
HETATM   10  C   UNL     1      -5.760   4.810 -31.041  1.00  0.00     0.062 C 
HETATM   11  H   UNL     1      -8.403   5.107 -29.135  1.00  0.00     0.184 HD
ENDROOT
BRANCH  10  12
HETATM   12  C   UNL     1      -4.487   5.447 -31.469  1.00  0.00     0.256 C 
HETATM   13  N   UNL     1      -3.425   5.202 -30.627  1.00  0.00    -0.323 N 
HETATM   14  H   UNL     1      -3.592   4.589 -29.838  1.00  0.00     0.169 HD
HETATM   15  O   UNL     1      -4.476   6.080 -32.517  1.00  0.00    -0.267 OA
BRANCH  13  16
HETATM   16  C   UNL     1      -2.122   5.734 -30.728  1.00  0.00     0.035 A 
HETATM   17  C   UNL     1      -1.765   7.011 -30.289  1.00  0.00     0.029 A 
HETATM   18  C   UNL     1      -0.445   7.460 -30.403  1.00  0.00     0.002 A 
HETATM   19  C   UNL     1       0.531   6.632 -30.951  1.00  0.00     0.000 A 
HETATM   20  C   UNL     1       0.187   5.358 -31.392  1.00  0.00     0.002 A 
HETATM   21  C   UNL     1      -1.133   4.913 -31.285  1.00  0.00     0.029 A 
ENDBRANCH  13  16
ENDBRANCH  10  12
BRANCH   9  22
HETATM   22  C   UNL     1      -5.347   2.426 -31.764  1.00  0.00    -0.028 A 
HETATM   23  C   UNL     1      -4.247   2.200 -32.611  1.00  0.00     0.012 A 
HETATM   24  C   UNL     1      -3.433   1.077 -32.441  1.00  0.00     0.037 A 
HETATM   25  C   UNL     1      -3.712   0.177 -31.419  1.00  0.00     0.065 A 
HETATM   26  C   UNL     1      -4.786   0.383 -30.565  1.00  0.00     0.037 A 
HETATM   27  C   UNL     1      -5.601   1.503 -30.732  1.00  0.00     0.012 A 
BRANCH  25  28
HETATM   28  O   UNL     1      -2.945  -0.933 -31.220  1.00  0.00    -0.361 OA
HETATM   29  H   UNL     1      -3.482  -1.719 -31.412  1.00  0.00     0.217 HD
ENDBRANCH  25  28
ENDBRANCH   9  22
BRANCH   7  30
HETATM   30  C   UNL     1     -10.827   2.296 -32.696  1.00  0.00     0.014 A 
HETATM   31  C   UNL     1     -11.962   3.115 -32.809  1.00  0.00     0.017 A 
HETATM   32  C   UNL     1     -13.147   2.620 -33.362  1.00  0.00     0.025 A 
HETATM   33  C   UNL     1     -13.204   1.302 -33.809  1.00  0.00     0.034 A 
HETATM   34 CL   UNL     1     -14.665   0.689 -34.479  1.00  0.00    -0.084 Cl
HETATM   35  C   UNL     1     -12.086   0.476 -33.711  1.00  0.00     0.025 A 
HETATM   36  C   UNL     1     -10.902   0.973 -33.157  1.00  0.00     0.017 A 
ENDBRANCH   7  30
TORSDOF 5
ENDMDL
MODEL 5
REMARK VINA RESULT:      -9.7      5.251      7.652
REMARK  5 active torsions:
REMARK  status: ('A' for Active; 'I' for Inactive)
REMARK    1  A    between atoms: C_7  and  C_8 
REMARK    2  A    between atoms: C_16  and  C_17 
REMARK    3  A    between atoms: C_20  and  O_21 
REMARK    4  A    between atoms: C_24  and  C_25 
REMARK       I    between atoms: C_25  and  N_26 
REMARK    5  A    between atoms: N_26  and  C_27 
ROOT
HETATM    1  C   UNL     1      -8.444   4.217 -30.640  1.00  0.00     0.070 C 
HETATM    2  C   UNL     1      -9.315   4.306 -31.868  1.00  0.00     0.037 C 
HETATM    3  N   UNL     1      -9.836   5.572 -32.144  1.00  0.00    -0.192 N 
HETATM    4  C   UNL     1     -10.313   5.902 -33.362  1.00  0.00     0.726 A 
HETATM    5  N   UNL     1     -10.563   4.918 -34.276  1.00  0.00    -0.083 N 
HETATM    6  N   UNL     1     -10.874   5.429 -35.482  1.00  0.00    -0.135 NA
HETATM    7  C   UNL     1     -10.843   6.750 -35.225  1.00  0.00     0.199 A 
HETATM    8  N   UNL     1     -10.525   7.068 -33.914  1.00  0.00    -0.041 NA
HETATM    9  C   UNL     1     -10.341   3.491 -34.018  1.00  0.00     0.202 C 
HETATM   10  C   UNL     1      -9.540   3.287 -32.736  1.00  0.00     0.062 C 
HETATM   11  H   UNL     1      -9.528   6.335 -31.546  1.00  0.00     0.184 HD
ENDROOT
BRANCH  10  12
HETATM   12  C   UNL     1      -8.930   1.935 -32.634  1.00  0.00     0.256 C 
HETATM   13  N   UNL     1      -7.829   1.753 -33.441  1.00  0.00    -0.323 N 
HETATM   14  H   UNL     1      -7.516   2.549 -33.983  1.00  0.00     0.169 HD
HETATM   15  O   UNL     1      -9.412   1.138 -31.840  1.00  0.00    -0.267 OA
BRANCH  13  16
HETATM   16  C   UNL     1      -7.096   0.560 -33.618  1.00  0.00     0.035 A 
HETATM   17  C   UNL     1      -6.035   0.168 -32.799  1.00  0.00     0.029 A 
HETATM   18  C   UNL     1      -5.370  -1.042 -33.025  1.00  0.00     0.002 A 
HETATM   19  C   UNL     1      -5.764  -1.873 -34.069  1.00  0.00     0.000 A 
HETATM   20  C   UNL     1      -6.820  -1.493 -34.893  1.00  0.00     0.002 A 
HETATM   21  C   UNL     1      -7.479  -0.281 -34.671  1.00  0.00     0.029 A 
ENDBRANCH  13  16
ENDBRANCH  10  12
BRANCH   9  22
HETATM   22  C   UNL     1     -11.669   2.738 -33.979  1.00  0.00    -0.028 A 
HETATM   23  C   UNL     1     -12.636   3.088 -33.020  1.00  0.00     0.012 A 
HETATM   24  C   UNL     1     -13.869   2.432 -32.976  1.00  0.00     0.037 A 
HETATM   25  C   UNL     1     -14.143   1.426 -33.895  1.00  0.00     0.065 A 
HETATM   26  C   UNL     1     -13.208   1.069 -34.857  1.00  0.00     0.037 A 
HETATM   27  C   UNL     1     -11.976   1.723 -34.904  1.00  0.00     0.012 A 
BRANCH  25  28
HETATM   28  O   UNL     1     -15.332   0.759 -33.886  1.00  0.00    -0.361 OA
HETATM   29  H   UNL     1     -15.187  -0.138 -34.231  1.00  0.00     0.217 HD
ENDBRANCH  25  28
ENDBRANCH   9  22
BRANCH   7  30
HETATM   30  C   UNL     1     -11.043   7.777 -36.245  1.00  0.00     0.014 A 
HETATM   31  C   UNL     1     -12.318   8.313 -36.487  1.00  0.00     0.017 A 
HETATM   32  C   UNL     1     -12.513   9.264 -37.493  1.00  0.00     0.025 A 
HETATM   33  C   UNL     1     -11.433   9.689 -38.262  1.00  0.00     0.034 A 
HETATM   34 CL   UNL     1     -11.674  10.851 -39.508  1.00  0.00    -0.084 Cl
HETATM   35  C   UNL     1     -10.159   9.174 -38.033  1.00  0.00     0.025 A 
HETATM   36  C   UNL     1      -9.965   8.222 -37.027  1.00  0.00     0.017 A 
ENDBRANCH   7  30
TORSDOF 5
ENDMDL
MODEL 6
REMARK VINA RESULT:      -9.5      4.731      8.412
REMARK  5 active torsions:
REMARK  status: ('A' for Active; 'I' for Inactive)
REMARK    1  A    between atoms: C_7  and  C_8 
REMARK    2  A    between atoms: C_16  and  C_17 
REMARK    3  A    between atoms: C_20  and  O_21 
REMARK    4  A    between atoms: C_24  and  C_25 
REMARK       I    between atoms: C_25  and  N_26 
REMARK    5  A    between atoms: N_26  and  C_27 
ROOT
HETATM    1  C   UNL     1      -8.881   2.157 -31.321  1.00  0.00     0.070 C 
HETATM    2  C   UNL     1      -7.707   3.070 -31.068  1.00  0.00     0.037 C 
HETATM    3  N   UNL     1      -8.029   4.347 -30.605  1.00  0.00    -0.192 N 
HETATM    4  C   UNL     1      -7.122   5.139 -29.996  1.00  0.00     0.726 A 
HETATM    5  N   UNL     1      -5.795   4.826 -30.074  1.00  0.00    -0.083 N 
HETATM    6  N   UNL     1      -5.052   5.619 -29.280  1.00  0.00    -0.135 NA
HETATM    7  C   UNL     1      -5.991   6.439 -28.772  1.00  0.00     0.199 A 
HETATM    8  N   UNL     1      -7.276   6.181 -29.221  1.00  0.00    -0.041 NA
HETATM    9  C   UNL     1      -5.275   3.656 -30.790  1.00  0.00     0.202 C 
HETATM   10  C   UNL     1      -6.404   2.706 -31.175  1.00  0.00     0.062 C 
HETATM   11  H   UNL     1      -9.010   4.530 -30.407  1.00  0.00     0.184 HD
ENDROOT
BRANCH  10  12
HETATM   12  C   UNL     1      -5.929   1.339 -31.518  1.00  0.00     0.256 C 
HETATM   13  N   UNL     1      -6.096   1.003 -32.843  1.00  0.00    -0.323 N 
HETATM   14  H   UNL     1      -6.475   1.714 -33.457  1.00  0.00     0.169 HD
HETATM   15  O   UNL     1      -5.411   0.665 -30.637  1.00  0.00    -0.267 OA
BRANCH  13  16
HETATM   16  C   UNL     1      -5.817  -0.244 -33.443  1.00  0.00     0.035 A 
HETATM   17  C   UNL     1      -4.546  -0.819 -33.491  1.00  0.00     0.029 A 
HETATM   18  C   UNL     1      -4.353  -2.072 -34.085  1.00  0.00     0.002 A 
HETATM   19  C   UNL     1      -5.432  -2.762 -34.630  1.00  0.00     0.000 A 
HETATM   20  C   UNL     1      -6.704  -2.199 -34.588  1.00  0.00     0.002 A 
HETATM   21  C   UNL     1      -6.895  -0.944 -34.001  1.00  0.00     0.029 A 
ENDBRANCH  13  16
ENDBRANCH  10  12
BRANCH   9  22
HETATM   22  C   UNL     1      -4.462   4.089 -32.008  1.00  0.00    -0.028 A 
HETATM   23  C   UNL     1      -5.109   4.723 -33.083  1.00  0.00     0.012 A 
HETATM   24  C   UNL     1      -4.387   5.151 -34.201  1.00  0.00     0.037 A 
HETATM   25  C   UNL     1      -3.012   4.952 -34.245  1.00  0.00     0.065 A 
HETATM   26  C   UNL     1      -2.349   4.337 -33.192  1.00  0.00     0.037 A 
HETATM   27  C   UNL     1      -3.068   3.909 -32.075  1.00  0.00     0.012 A 
BRANCH  25  28
HETATM   28  O   UNL     1      -2.270   5.351 -35.316  1.00  0.00    -0.361 OA
HETATM   29  H   UNL     1      -1.922   6.240 -35.138  1.00  0.00     0.217 HD
ENDBRANCH  25  28
ENDBRANCH   9  22
BRANCH   7  30
HETATM   30  C   UNL     1      -5.711   7.467 -27.771  1.00  0.00     0.014 A 
HETATM   31  C   UNL     1      -6.468   8.649 -27.722  1.00  0.00     0.017 A 
HETATM   32  C   UNL     1      -6.170   9.649 -26.791  1.00  0.00     0.025 A 
HETATM   33  C   UNL     1      -5.114   9.471 -25.901  1.00  0.00     0.034 A 
HETATM   34 CL   UNL     1      -4.738  10.706 -24.762  1.00  0.00    -0.084 Cl
HETATM   35  C   UNL     1      -4.356   8.303 -25.929  1.00  0.00     0.025 A 
HETATM   36  C   UNL     1      -4.655   7.304 -26.862  1.00  0.00     0.017 A 
ENDBRANCH   7  30
TORSDOF 5
ENDMDL
MODEL 7
REMARK VINA RESULT:      -9.5      3.356      5.895
REMARK  5 active torsions:
REMARK  status: ('A' for Active; 'I' for Inactive)
REMARK    1  A    between atoms: C_7  and  C_8 
REMARK    2  A    between atoms: C_16  and  C_17 
REMARK    3  A    between atoms: C_20  and  O_21 
REMARK    4  A    between atoms: C_24  and  C_25 
REMARK       I    between atoms: C_25  and  N_26 
REMARK    5  A    between atoms: N_26  and  C_27 
ROOT
HETATM    1  C   UNL     1      -3.367   5.680 -34.449  1.00  0.00     0.070 C 
HETATM    2  C   UNL     1      -4.476   5.228 -33.533  1.00  0.00     0.037 C 
HETATM    3  N   UNL     1      -5.714   5.023 -34.145  1.00  0.00    -0.192 N 
HETATM    4  C   UNL     1      -6.687   4.288 -33.567  1.00  0.00     0.726 A 
HETATM    5  N   UNL     1      -6.591   3.965 -32.244  1.00  0.00    -0.083 N 
HETATM    6  N   UNL     1      -7.553   3.098 -31.874  1.00  0.00    -0.135 NA
HETATM    7  C   UNL     1      -8.243   2.965 -33.022  1.00  0.00     0.199 A 
HETATM    8  N   UNL     1      -7.744   3.711 -34.077  1.00  0.00    -0.041 NA
HETATM    9  C   UNL     1      -5.473   4.371 -31.385  1.00  0.00     0.202 C 
HETATM   10  C   UNL     1      -4.324   4.934 -32.216  1.00  0.00     0.062 C 
HETATM   11  H   UNL     1      -5.748   5.121 -35.157  1.00  0.00     0.184 HD
ENDROOT
BRANCH  10  12
HETATM   12  C   UNL     1      -3.032   4.972 -31.481  1.00  0.00     0.256 C 
HETATM   13  N   UNL     1      -2.747   6.192 -30.911  1.00  0.00    -0.323 N 
HETATM   14  H   UNL     1      -3.444   6.920 -31.003  1.00  0.00     0.169 HD
HETATM   15  O   UNL     1      -2.372   3.943 -31.411  1.00  0.00    -0.267 OA
BRANCH  13  16
HETATM   16  C   UNL     1      -1.566   6.553 -30.226  1.00  0.00     0.035 A 
HETATM   17  C   UNL     1      -0.300   6.576 -30.814  1.00  0.00     0.029 A 
HETATM   18  C   UNL     1       0.821   6.968 -30.075  1.00  0.00     0.002 A 
HETATM   19  C   UNL     1       0.684   7.345 -28.742  1.00  0.00     0.000 A 
HETATM   20  C   UNL     1      -0.572   7.325 -28.145  1.00  0.00     0.002 A 
HETATM   21  C   UNL     1      -1.692   6.926 -28.882  1.00  0.00     0.029 A 
ENDBRANCH  13  16
ENDBRANCH  10  12
BRANCH   9  22
HETATM   22  C   UNL     1      -5.942   5.365 -30.325  1.00  0.00    -0.028 A 
HETATM   23  C   UNL     1      -5.831   5.031 -28.964  1.00  0.00     0.012 A 
HETATM   24  C   UNL     1      -6.231   5.931 -27.972  1.00  0.00     0.037 A 
HETATM   25  C   UNL     1      -6.739   7.172 -28.338  1.00  0.00     0.065 A 
HETATM   26  C   UNL     1      -6.850   7.528 -29.675  1.00  0.00     0.037 A 
HETATM   27  C   UNL     1      -6.451   6.632 -30.667  1.00  0.00     0.012 A 
BRANCH  25  28
HETATM   28  O   UNL     1      -7.144   8.078 -27.403  1.00  0.00    -0.361 OA
HETATM   29  H   UNL     1      -6.614   8.886 -27.506  1.00  0.00     0.217 HD
ENDBRANCH  25  28
ENDBRANCH   9  22
BRANCH   7  30
HETATM   30  C   UNL     1      -9.375   2.054 -33.184  1.00  0.00     0.014 A 
HETATM   31  C   UNL     1     -10.560   2.480 -33.803  1.00  0.00     0.017 A 
HETATM   32  C   UNL     1     -11.656   1.619 -33.917  1.00  0.00     0.025 A 
HETATM   33  C   UNL     1     -11.571   0.323 -33.415  1.00  0.00     0.034 A 
HETATM   34 CL   UNL     1     -12.922  -0.735 -33.544  1.00  0.00    -0.084 Cl
HETATM   35  C   UNL     1     -10.401  -0.121 -32.803  1.00  0.00     0.025 A 
HETATM   36  C   UNL     1      -9.306   0.742 -32.689  1.00  0.00     0.017 A 
ENDBRANCH   7  30
TORSDOF 5
ENDMDL
MODEL 8
REMARK VINA RESULT:      -9.5      4.392      8.116
REMARK  5 active torsions:
REMARK  status: ('A' for Active; 'I' for Inactive)
REMARK    1  A    between atoms: C_7  and  C_8 
REMARK    2  A    between atoms: C_16  and  C_17 
REMARK    3  A    between atoms: C_20  and  O_21 
REMARK    4  A    between atoms: C_24  and  C_25 
REMARK       I    between atoms: C_25  and  N_26 
REMARK    5  A    between atoms: N_26  and  C_27 
ROOT
HETATM    1  C   UNL     1     -12.932   1.680 -33.581  1.00  0.00     0.070 C 
HETATM    2  C   UNL     1     -11.425   1.738 -33.559  1.00  0.00     0.037 C 
HETATM    3  N   UNL     1     -10.790   0.621 -33.013  1.00  0.00    -0.192 N 
HETATM    4  C   UNL     1      -9.488   0.352 -33.244  1.00  0.00     0.726 A 
HETATM    5  N   UNL     1      -8.687   1.318 -33.782  1.00  0.00    -0.083 N 
HETATM    6  N   UNL     1      -7.470   0.833 -34.097  1.00  0.00    -0.135 NA
HETATM    7  C   UNL     1      -7.577  -0.441 -33.678  1.00  0.00     0.199 A 
HETATM    8  N   UNL     1      -8.806  -0.757 -33.121  1.00  0.00    -0.041 NA
HETATM    9  C   UNL     1      -9.156   2.661 -34.138  1.00  0.00     0.202 C 
HETATM   10  C   UNL     1     -10.679   2.734 -34.100  1.00  0.00     0.062 C 
HETATM   11  H   UNL     1     -11.384  -0.161 -32.747  1.00  0.00     0.184 HD
ENDROOT
BRANCH  10  12
HETATM   12  C   UNL     1     -11.229   3.904 -34.835  1.00  0.00     0.256 C 
HETATM   13  N   UNL     1     -11.573   4.964 -34.027  1.00  0.00    -0.323 N 
HETATM   14  H   UNL     1     -11.383   4.871 -33.036  1.00  0.00     0.169 HD
HETATM   15  O   UNL     1     -11.290   3.847 -36.057  1.00  0.00    -0.267 OA
BRANCH  13  16
HETATM   16  C   UNL     1     -12.189   6.169 -34.426  1.00  0.00     0.035 A 
HETATM   17  C   UNL     1     -11.488   7.323 -34.782  1.00  0.00     0.029 A 
HETATM   18  C   UNL     1     -12.171   8.474 -35.189  1.00  0.00     0.002 A 
HETATM   19  C   UNL     1     -13.562   8.479 -35.248  1.00  0.00     0.000 A 
HETATM   20  C   UNL     1     -14.272   7.336 -34.895  1.00  0.00     0.002 A 
HETATM   21  C   UNL     1     -13.589   6.188 -34.481  1.00  0.00     0.029 A 
ENDBRANCH  13  16
ENDBRANCH  10  12
BRANCH   9  22
HETATM   22  C   UNL     1      -8.518   3.712 -33.231  1.00  0.00    -0.028 A 
HETATM   23  C   UNL     1      -7.654   4.673 -33.785  1.00  0.00     0.012 A 
HETATM   24  C   UNL     1      -7.075   5.660 -32.983  1.00  0.00     0.037 A 
HETATM   25  C   UNL     1      -7.361   5.692 -31.623  1.00  0.00     0.065 A 
HETATM   26  C   UNL     1      -8.218   4.760 -31.055  1.00  0.00     0.037 A 
HETATM   27  C   UNL     1      -8.798   3.774 -31.854  1.00  0.00     0.012 A 
BRANCH  25  28
HETATM   28  O   UNL     1      -6.815   6.636 -30.804  1.00  0.00    -0.361 OA
HETATM   29  H   UNL     1      -6.951   6.361 -29.882  1.00  0.00     0.217 HD
ENDBRANCH  25  28
ENDBRANCH   9  22
BRANCH   7  30
HETATM   30  C   UNL     1      -6.528  -1.443 -33.858  1.00  0.00     0.014 A 
HETATM   31  C   UNL     1      -6.767  -2.611 -34.599  1.00  0.00     0.017 A 
HETATM   32  C   UNL     1      -5.775  -3.587 -34.733  1.00  0.00     0.025 A 
HETATM   33  C   UNL     1      -4.534  -3.399 -34.129  1.00  0.00     0.034 A 
HETATM   34 CL   UNL     1      -3.316  -4.604 -34.284  1.00  0.00    -0.084 Cl
HETATM   35  C   UNL     1      -4.275  -2.243 -33.396  1.00  0.00     0.025 A 
HETATM   36  C   UNL     1      -5.269  -1.268 -33.262  1.00  0.00     0.017 A 
ENDBRANCH   7  30
TORSDOF 5
ENDMDL
MODEL 9
REMARK VINA RESULT:      -9.5      6.134     10.954
REMARK  5 active torsions:
REMARK  status: ('A' for Active; 'I' for Inactive)
REMARK    1  A    between atoms: C_7  and  C_8 
REMARK    2  A    between atoms: C_16  and  C_17 
REMARK    3  A    between atoms: C_20  and  O_21 
REMARK    4  A    between atoms: C_24  and  C_25 
REMARK       I    between atoms: C_25  and  N_26 
REMARK    5  A    between atoms: N_26  and  C_27 
ROOT
HETATM    1  C   UNL     1      -6.675   9.206 -31.250  1.00  0.00     0.070 C 
HETATM    2  C   UNL     1      -5.315   8.587 -31.047  1.00  0.00     0.037 C 
HETATM    3  N   UNL     1      -4.342   9.435 -30.515  1.00  0.00    -0.192 N 
HETATM    4  C   UNL     1      -3.215   8.964 -29.943  1.00  0.00     0.726 A 
HETATM    5  N   UNL     1      -2.862   7.658 -30.126  1.00  0.00    -0.083 N 
HETATM    6  N   UNL     1      -1.811   7.316 -29.357  1.00  0.00    -0.135 NA
HETATM    7  C   UNL     1      -1.533   8.487 -28.754  1.00  0.00     0.199 A 
HETATM    8  N   UNL     1      -2.370   9.529 -29.120  1.00  0.00    -0.041 NA
HETATM    9  C   UNL     1      -3.646   6.706 -30.921  1.00  0.00     0.202 C 
HETATM   10  C   UNL     1      -5.018   7.280 -31.260  1.00  0.00     0.062 C 
HETATM   11  H   UNL     1      -4.646  10.367 -30.241  1.00  0.00     0.184 HD
ENDROOT
BRANCH  10  12
HETATM   12  C   UNL     1      -5.997   6.245 -31.687  1.00  0.00     0.256 C 
HETATM   13  N   UNL     1      -6.360   5.369 -30.689  1.00  0.00    -0.323 N 
HETATM   14  H   UNL     1      -5.972   5.531 -29.768  1.00  0.00     0.169 HD
HETATM   15  O   UNL     1      -6.417   6.281 -32.837  1.00  0.00    -0.267 OA
BRANCH  13  16
HETATM   16  C   UNL     1      -7.202   4.243 -30.814  1.00  0.00     0.035 A 
HETATM   17  C   UNL     1      -8.564   4.250 -30.507  1.00  0.00     0.029 A 
HETATM   18  C   UNL     1      -9.338   3.097 -30.678  1.00  0.00     0.002 A 
HETATM   19  C   UNL     1      -8.758   1.930 -31.164  1.00  0.00     0.000 A 
HETATM   20  C   UNL     1      -7.401   1.910 -31.473  1.00  0.00     0.002 A 
HETATM   21  C   UNL     1      -6.626   3.060 -31.294  1.00  0.00     0.029 A 
ENDBRANCH  13  16
ENDBRANCH  10  12
BRANCH   9  22
HETATM   22  C   UNL     1      -2.880   6.295 -32.176  1.00  0.00    -0.028 A 
HETATM   23  C   UNL     1      -2.829   4.939 -32.545  1.00  0.00     0.012 A 
HETATM   24  C   UNL     1      -2.155   4.537 -33.701  1.00  0.00     0.037 A 
HETATM   25  C   UNL     1      -1.533   5.492 -34.497  1.00  0.00     0.065 A 
HETATM   26  C   UNL     1      -1.577   6.837 -34.160  1.00  0.00     0.037 A 
HETATM   27  C   UNL     1      -2.249   7.241 -33.006  1.00  0.00     0.012 A 
BRANCH  25  28
HETATM   28  O   UNL     1      -0.862   5.143 -35.632  1.00  0.00    -0.361 OA
HETATM   29  H   UNL     1      -0.249   4.419 -35.420  1.00  0.00     0.217 HD
ENDBRANCH  25  28
ENDBRANCH   9  22
BRANCH   7  30
HETATM   30  C   UNL     1      -0.495   8.647 -27.738  1.00  0.00     0.014 A 
HETATM   31  C   UNL     1       0.846   8.342 -28.023  1.00  0.00     0.017 A 
HETATM   32  C   UNL     1       1.829   8.455 -27.036  1.00  0.00     0.025 A 
HETATM   33  C   UNL     1       1.478   8.877 -25.756  1.00  0.00     0.034 A 
HETATM   34 CL   UNL     1       2.685   9.005 -24.536  1.00  0.00    -0.084 Cl
HETATM   35  C   UNL     1       0.154   9.190 -25.455  1.00  0.00     0.025 A 
HETATM   36  C   UNL     1      -0.828   9.076 -26.444  1.00  0.00     0.017 A 
ENDBRANCH   7  30
TORSDOF 5
ENDMDL
MODEL 10
REMARK VINA RESULT:      -9.4      4.690      8.243
REMARK  5 active torsions:
REMARK  status: ('A' for Active; 'I' for Inactive)
REMARK    1  A    between atoms: C_7  and  C_8 
REMARK    2  A    between atoms: C_16  and  C_17 
REMARK    3  A    between atoms: C_20  and  O_21 
REMARK    4  A    between atoms: C_24  and  C_25 
REMARK       I    between atoms: C_25  and  N_26 
REMARK    5  A    between atoms: N_26  and  C_27 
ROOT
HETATM    1  C   UNL     1      -8.696   5.539 -33.275  1.00  0.00     0.070 C 
HETATM    2  C   UNL     1      -8.967   4.057 -33.356  1.00  0.00     0.037 C 
HETATM    3  N   UNL     1      -8.123   3.339 -34.205  1.00  0.00    -0.192 N 
HETATM    4  C   UNL     1      -7.989   1.999 -34.116  1.00  0.00     0.726 A 
HETATM    5  N   UNL     1      -8.890   1.279 -33.386  1.00  0.00    -0.083 N 
HETATM    6  N   UNL     1      -8.516  -0.010 -33.268  1.00  0.00    -0.135 NA
HETATM    7  C   UNL     1      -7.386  -0.025 -33.999  1.00  0.00     0.199 A 
HETATM    8  N   UNL     1      -7.052   1.199 -34.557  1.00  0.00    -0.041 NA
HETATM    9  C   UNL     1     -10.023   1.877 -32.670  1.00  0.00     0.202 C 
HETATM   10  C   UNL     1      -9.890   3.395 -32.613  1.00  0.00     0.062 C 
HETATM   11  H   UNL     1      -7.358   3.853 -34.635  1.00  0.00     0.184 HD
ENDROOT
BRANCH  10  12
HETATM   12  C   UNL     1     -10.749   4.020 -31.573  1.00  0.00     0.256 C 
HETATM   13  N   UNL     1     -11.724   4.853 -32.075  1.00  0.00    -0.323 N 
HETATM   14  H   UNL     1     -11.794   4.927 -33.083  1.00  0.00     0.169 HD
HETATM   15  O   UNL     1     -10.555   3.722 -30.401  1.00  0.00    -0.267 OA
BRANCH  13  16
HETATM   16  C   UNL     1     -12.630   5.642 -31.335  1.00  0.00     0.035 A 
HETATM   17  C   UNL     1     -12.348   6.931 -30.877  1.00  0.00     0.029 A 
HETATM   18  C   UNL     1     -13.308   7.660 -30.167  1.00  0.00     0.002 A 
HETATM   19  C   UNL     1     -14.561   7.109 -29.915  1.00  0.00     0.000 A 
HETATM   20  C   UNL     1     -14.853   5.825 -30.366  1.00  0.00     0.002 A 
HETATM   21  C   UNL     1     -13.891   5.094 -31.068  1.00  0.00     0.029 A 
ENDBRANCH  13  16
ENDBRANCH  10  12
BRANCH   9  22
HETATM   22  C   UNL     1     -11.345   1.450 -33.304  1.00  0.00    -0.028 A 
HETATM   23  C   UNL     1     -11.826   0.146 -33.091  1.00  0.00     0.012 A 
HETATM   24  C   UNL     1     -13.044  -0.265 -33.640  1.00  0.00     0.037 A 
HETATM   25  C   UNL     1     -13.790   0.630 -34.399  1.00  0.00     0.065 A 
HETATM   26  C   UNL     1     -13.340   1.925 -34.615  1.00  0.00     0.037 A 
HETATM   27  C   UNL     1     -12.124   2.338 -34.068  1.00  0.00     0.012 A 
BRANCH  25  28
HETATM   28  O   UNL     1     -14.982   0.270 -34.954  1.00  0.00    -0.361 OA
HETATM   29  H   UNL     1     -14.870  -0.587 -35.398  1.00  0.00     0.217 HD
ENDBRANCH  25  28
ENDBRANCH   9  22
BRANCH   7  30
HETATM   30  C   UNL     1      -6.528  -1.199 -34.137  1.00  0.00     0.014 A 
HETATM   31  C   UNL     1      -7.038  -2.410 -34.631  1.00  0.00     0.017 A 
HETATM   32  C   UNL     1      -6.224  -3.544 -34.721  1.00  0.00     0.025 A 
HETATM   33  C   UNL     1      -4.892  -3.472 -34.319  1.00  0.00     0.034 A 
HETATM   34 CL   UNL     1      -3.893  -4.869 -34.418  1.00  0.00    -0.084 Cl
HETATM   35  C   UNL     1      -4.366  -2.277 -33.833  1.00  0.00     0.025 A 
HETATM   36  C   UNL     1      -5.182  -1.145 -33.743  1.00  0.00     0.017 A 
ENDBRANCH   7  30
TORSDOF 5
ENDMDL
