MODEL 1
REMARK VINA RESULT:     -10.0      0.000      0.000
REMARK  8 active torsions:
REMARK  status: ('A' for Active; 'I' for Inactive)
REMARK    1  A    between atoms: C_4  and  S_5 
REMARK    2  A    between atoms: S_5  and  C_6 
REMARK    3  A    between atoms: C_6  and  C_7 
REMARK       I    between atoms: C_7  and  N_8 
REMARK    4  A    between atoms: N_8  and  C_9 
REMARK    5  A    between atoms: C_9  and  C_10 
REMARK    6  A    between atoms: C_20  and  C_21 
REMARK    7  A    between atoms: C_26  and  C_27 
REMARK       I    between atoms: C_27  and  N_28 
REMARK    8  A    between atoms: N_28  and  C_29 
ROOT
HETATM    1  C   UNL     1      -7.572   5.138 -33.815  1.00  0.00     0.069 C 
HETATM    2  C   UNL     1      -6.833   3.923 -33.299  1.00  0.00     0.019 C 
HETATM    3  N   UNL     1      -5.455   4.071 -33.237  1.00  0.00    -0.353 N 
HETATM    4  C   UNL     1      -4.579   3.195 -32.620  1.00  0.00     0.088 C 
HETATM    5  C   UNL     1      -5.053   1.989 -32.223  1.00  0.00     0.071 C 
HETATM    6  C   UNL     1      -4.252   1.019 -31.542  1.00  0.00     0.099 C 
HETATM    7  N   UNL     1      -3.625   0.218 -30.983  1.00  0.00    -0.192 NA
HETATM    8  C   UNL     1      -6.517   1.600 -32.475  1.00  0.00     0.130 C 
HETATM    9  C   UNL     1      -7.415   2.762 -32.902  1.00  0.00     0.048 C 
HETATM   10  H   UNL     1      -5.124   5.023 -33.342  1.00  0.00     0.166 HD
ENDROOT
BRANCH   4  11
HETATM   11  S   UNL     1      -2.889   3.616 -32.307  1.00  0.00    -0.102 SA
BRANCH  11  12
HETATM   12  C   UNL     1      -2.445   4.615 -33.753  1.00  0.00     0.183 C 
BRANCH  12  13
HETATM   13  C   UNL     1      -1.538   5.787 -33.423  1.00  0.00     0.227 C 
HETATM   14  N   UNL     1      -1.010   5.815 -32.154  1.00  0.00    -0.356 N 
HETATM   15  H   UNL     1      -1.533   5.336 -31.428  1.00  0.00     0.162 HD
HETATM   16  O   UNL     1      -1.221   6.598 -34.292  1.00  0.00    -0.273 OA
BRANCH  14  17
HETATM   17  C   UNL     1      -0.134   6.895 -31.757  1.00  0.00     0.161 C 
BRANCH  17  18
HETATM   18  C   UNL     1       0.263   6.857 -30.303  1.00  0.00    -0.041 A 
HETATM   19  C   UNL     1       0.355   8.012 -29.512  1.00  0.00     0.009 A 
HETATM   20  C   UNL     1       0.682   7.924 -28.157  1.00  0.00     0.001 A 
HETATM   21  C   UNL     1       0.897   6.680 -27.568  1.00  0.00     0.000 A 
HETATM   22  C   UNL     1       0.784   5.522 -28.332  1.00  0.00     0.001 A 
HETATM   23  C   UNL     1       0.467   5.609 -29.689  1.00  0.00     0.009 A 
ENDBRANCH  17  18
ENDBRANCH  14  17
ENDBRANCH  12  13
ENDBRANCH  11  12
ENDBRANCH   4  11
BRANCH   8  24
HETATM   24  C   UNL     1      -6.623   0.442 -33.436  1.00  0.00     0.066 A 
HETATM   25  O   UNL     1      -6.801  -0.788 -32.875  1.00  0.00    -0.326 OA
HETATM   26  C   UNL     1      -6.887  -1.682 -33.893  1.00  0.00     0.142 A 
HETATM   27  C   UNL     1      -6.771  -1.042 -35.105  1.00  0.00     0.027 A 
HETATM   28  C   UNL     1      -6.602   0.333 -34.812  1.00  0.00     0.035 A 
ENDBRANCH   8  24
BRANCH   9  29
HETATM   29  C   UNL     1      -8.924   2.628 -32.834  1.00  0.00     0.255 C 
HETATM   30  N   UNL     1      -9.559   2.130 -33.953  1.00  0.00    -0.322 N 
HETATM   31  H   UNL     1      -9.022   1.921 -34.789  1.00  0.00     0.169 HD
HETATM   32  O   UNL     1      -9.517   2.910 -31.795  1.00  0.00    -0.268 OA
BRANCH  30  33
HETATM   33  C   UNL     1     -10.944   1.831 -34.098  1.00  0.00     0.057 A 
HETATM   34  C   UNL     1     -11.435   0.625 -33.556  1.00  0.00     0.062 A 
HETATM   35 CL   UNL     1     -10.391  -0.463 -32.706  1.00  0.00    -0.082 Cl
HETATM   36  C   UNL     1     -12.786   0.278 -33.654  1.00  0.00     0.050 A 
HETATM   37  C   UNL     1     -13.666   1.135 -34.304  1.00  0.00     0.035 A 
HETATM   38 CL   UNL     1     -15.331   0.722 -34.426  1.00  0.00    -0.084 Cl
HETATM   39  C   UNL     1     -13.207   2.327 -34.852  1.00  0.00     0.026 A 
HETATM   40  C   UNL     1     -11.854   2.672 -34.749  1.00  0.00     0.033 A 
ENDBRANCH  30  33
ENDBRANCH   9  29
TORSDOF 8
ENDMDL
MODEL 2
REMARK VINA RESULT:      -9.4      4.581     10.867
REMARK  8 active torsions:
REMARK  status: ('A' for Active; 'I' for Inactive)
REMARK    1  A    between atoms: C_4  and  S_5 
REMARK    2  A    between atoms: S_5  and  C_6 
REMARK    3  A    between atoms: C_6  and  C_7 
REMARK       I    between atoms: C_7  and  N_8 
REMARK    4  A    between atoms: N_8  and  C_9 
REMARK    5  A    between atoms: C_9  and  C_10 
REMARK    6  A    between atoms: C_20  and  C_21 
REMARK    7  A    between atoms: C_26  and  C_27 
REMARK       I    between atoms: C_27  and  N_28 
REMARK    8  A    between atoms: N_28  and  C_29 
ROOT
HETATM    1  C   UNL     1      -1.056   5.238 -32.393  1.00  0.00     0.069 C 
HETATM    2  C   UNL     1      -2.436   5.012 -31.817  1.00  0.00     0.019 C 
HETATM    3  N   UNL     1      -3.127   3.948 -32.379  1.00  0.00    -0.353 N 
HETATM    4  C   UNL     1      -4.309   3.412 -31.898  1.00  0.00     0.088 C 
HETATM    5  C   UNL     1      -4.974   4.092 -30.933  1.00  0.00     0.071 C 
HETATM    6  C   UNL     1      -6.183   3.618 -30.333  1.00  0.00     0.099 C 
HETATM    7  N   UNL     1      -7.161   3.253 -29.827  1.00  0.00    -0.192 NA
HETATM    8  C   UNL     1      -4.439   5.433 -30.407  1.00  0.00     0.130 C 
HETATM    9  C   UNL     1      -3.001   5.746 -30.824  1.00  0.00     0.048 C 
HETATM   10  H   UNL     1      -2.563   3.328 -32.949  1.00  0.00     0.166 HD
ENDROOT
BRANCH   4  11
HETATM   11  S   UNL     1      -4.947   1.867 -32.476  1.00  0.00    -0.102 SA
BRANCH  11  12
HETATM   12  C   UNL     1      -6.146   2.370 -33.739  1.00  0.00     0.183 C 
BRANCH  12  13
HETATM   13  C   UNL     1      -6.913   1.207 -34.344  1.00  0.00     0.227 C 
HETATM   14  N   UNL     1      -6.282  -0.014 -34.332  1.00  0.00    -0.356 N 
HETATM   15  H   UNL     1      -5.267  -0.008 -34.313  1.00  0.00     0.162 HD
HETATM   16  O   UNL     1      -8.074   1.350 -34.722  1.00  0.00    -0.273 OA
BRANCH  14  17
HETATM   17  C   UNL     1      -6.941  -1.177 -34.886  1.00  0.00     0.161 C 
BRANCH  17  18
HETATM   18  C   UNL     1      -6.191  -2.467 -34.670  1.00  0.00    -0.041 A 
HETATM   19  C   UNL     1      -6.706  -3.715 -35.050  1.00  0.00     0.009 A 
HETATM   20  C   UNL     1      -5.955  -4.879 -34.874  1.00  0.00     0.001 A 
HETATM   21  C   UNL     1      -4.671  -4.810 -34.338  1.00  0.00     0.000 A 
HETATM   22  C   UNL     1      -4.135  -3.577 -33.980  1.00  0.00     0.001 A 
HETATM   23  C   UNL     1      -4.888  -2.413 -34.147  1.00  0.00     0.009 A 
ENDBRANCH  17  18
ENDBRANCH  14  17
ENDBRANCH  12  13
ENDBRANCH  11  12
ENDBRANCH   4  11
BRANCH   8  24
HETATM   24  C   UNL     1      -5.371   6.570 -30.746  1.00  0.00     0.066 A 
HETATM   25  O   UNL     1      -5.721   7.386 -29.712  1.00  0.00    -0.326 OA
HETATM   26  C   UNL     1      -6.540   8.342 -30.219  1.00  0.00     0.142 A 
HETATM   27  C   UNL     1      -6.718   8.155 -31.569  1.00  0.00     0.027 A 
HETATM   28  C   UNL     1      -5.960   7.010 -31.914  1.00  0.00     0.035 A 
ENDBRANCH   8  24
BRANCH   9  29
HETATM   29  C   UNL     1      -2.214   6.825 -30.105  1.00  0.00     0.255 C 
HETATM   30  N   UNL     1      -1.496   6.438 -28.991  1.00  0.00    -0.322 N 
HETATM   31  H   UNL     1      -1.554   5.480 -28.659  1.00  0.00     0.169 HD
HETATM   32  O   UNL     1      -2.196   7.969 -30.552  1.00  0.00    -0.268 OA
BRANCH  30  33
HETATM   33  C   UNL     1      -0.618   7.241 -28.209  1.00  0.00     0.057 A 
HETATM   34  C   UNL     1      -1.032   7.634 -26.919  1.00  0.00     0.062 A 
HETATM   35 CL   UNL     1      -2.559   7.133 -26.279  1.00  0.00    -0.082 Cl
HETATM   36  C   UNL     1      -0.212   8.413 -26.096  1.00  0.00     0.050 A 
HETATM   37  C   UNL     1       1.035   8.816 -26.558  1.00  0.00     0.035 A 
HETATM   38 CL   UNL     1       2.055   9.770 -25.554  1.00  0.00    -0.084 Cl
HETATM   39  C   UNL     1       1.464   8.447 -27.829  1.00  0.00     0.026 A 
HETATM   40  C   UNL     1       0.642   7.665 -28.648  1.00  0.00     0.033 A 
ENDBRANCH  30  33
ENDBRANCH   9  29
TORSDOF 8
ENDMDL
MODEL 3
REMARK VINA RESULT:      -9.3      2.782      5.027
REMARK  8 active torsions:
REMARK  status: ('A' for Active; 'I' for Inactive)
REMARK    1  A    between atoms: C_4  and  S_5 
REMARK    2  A    between atoms: S_5  and  C_6 
REMARK    3  A    between atoms: C_6  and  C_7 
REMARK       I    between atoms: C_7  and  N_8 
REMARK    4  A    between atoms: N_8  and  C_9 
REMARK    5  A    between atoms: C_9  and  C_10 
REMARK    6  A    between atoms: C_20  and  C_21 
REMARK    7  A    between atoms: C_26  and  C_27 
REMARK       I    between atoms: C_27  and  N_28 
REMARK    8  A    between atoms: N_28  and  C_29 
ROOT
HETATM    1  C   UNL     1      -3.352   1.942 -31.258  1.00  0.00     0.069 C 
HETATM    2  C   UNL     1      -4.406   3.019 -31.395  1.00  0.00     0.019 C 
HETATM    3  N   UNL     1      -4.188   4.141 -30.607  1.00  0.00    -0.353 N 
HETATM    4  C   UNL     1      -4.884   5.334 -30.697  1.00  0.00     0.088 C 
HETATM    5  C   UNL     1      -6.006   5.365 -31.456  1.00  0.00     0.071 C 
HETATM    6  C   UNL     1      -6.784   6.548 -31.653  1.00  0.00     0.099 C 
HETATM    7  N   UNL     1      -7.429   7.496 -31.835  1.00  0.00    -0.192 NA
HETATM    8  C   UNL     1      -6.502   4.102 -32.175  1.00  0.00     0.130 C 
HETATM    9  C   UNL     1      -5.489   2.956 -32.211  1.00  0.00     0.048 C 
HETATM   10  H   UNL     1      -3.262   4.201 -30.199  1.00  0.00     0.166 HD
ENDROOT
BRANCH   4  11
HETATM   11  S   UNL     1      -4.335   6.808 -29.888  1.00  0.00    -0.102 SA
BRANCH  11  12
HETATM   12  C   UNL     1      -3.148   7.502 -31.069  1.00  0.00     0.183 C 
BRANCH  12  13
HETATM   13  C   UNL     1      -1.707   7.127 -30.771  1.00  0.00     0.227 C 
HETATM   14  N   UNL     1      -1.492   6.375 -29.640  1.00  0.00    -0.356 N 
HETATM   15  H   UNL     1      -2.177   6.455 -28.897  1.00  0.00     0.162 HD
HETATM   16  O   UNL     1      -0.810   7.401 -31.567  1.00  0.00    -0.273 OA
BRANCH  14  17
HETATM   17  C   UNL     1      -0.149   5.973 -29.282  1.00  0.00     0.161 C 
BRANCH  17  18
HETATM   18  C   UNL     1       0.521   6.890 -28.291  1.00  0.00    -0.041 A 
HETATM   19  C   UNL     1       1.145   8.089 -28.671  1.00  0.00     0.009 A 
HETATM   20  C   UNL     1       1.712   8.932 -27.712  1.00  0.00     0.001 A 
HETATM   21  C   UNL     1       1.643   8.601 -26.361  1.00  0.00     0.000 A 
HETATM   22  C   UNL     1       1.006   7.429 -25.965  1.00  0.00     0.001 A 
HETATM   23  C   UNL     1       0.447   6.581 -26.923  1.00  0.00     0.009 A 
ENDBRANCH  17  18
ENDBRANCH  14  17
ENDBRANCH  12  13
ENDBRANCH  11  12
ENDBRANCH   4  11
BRANCH   8  24
HETATM   24  C   UNL     1      -7.832   3.643 -31.631  1.00  0.00     0.066 A 
HETATM   25  O   UNL     1      -8.821   3.450 -32.550  1.00  0.00    -0.326 OA
HETATM   26  C   UNL     1      -9.919   3.029 -31.871  1.00  0.00     0.142 A 
HETATM   27  C   UNL     1      -9.648   2.944 -30.526  1.00  0.00     0.027 A 
HETATM   28  C   UNL     1      -8.297   3.338 -30.368  1.00  0.00     0.035 A 
ENDBRANCH   8  24
BRANCH   9  29
HETATM   29  C   UNL     1      -5.673   1.802 -33.177  1.00  0.00     0.255 C 
HETATM   30  N   UNL     1      -5.469   0.531 -32.679  1.00  0.00    -0.322 N 
HETATM   31  H   UNL     1      -5.158   0.406 -31.721  1.00  0.00     0.169 HD
HETATM   32  O   UNL     1      -6.038   2.021 -34.329  1.00  0.00    -0.268 OA
BRANCH  30  33
HETATM   33  C   UNL     1      -5.666  -0.705 -33.360  1.00  0.00     0.057 A 
HETATM   34  C   UNL     1      -6.987  -1.142 -33.596  1.00  0.00     0.062 A 
HETATM   35 CL   UNL     1      -8.346  -0.193 -33.097  1.00  0.00    -0.082 Cl
HETATM   36  C   UNL     1      -7.249  -2.339 -34.268  1.00  0.00     0.050 A 
HETATM   37  C   UNL     1      -6.188  -3.121 -34.712  1.00  0.00     0.035 A 
HETATM   38 CL   UNL     1      -6.498  -4.593 -35.545  1.00  0.00    -0.084 Cl
HETATM   39  C   UNL     1      -4.878  -2.715 -34.487  1.00  0.00     0.026 A 
HETATM   40  C   UNL     1      -4.619  -1.514 -33.815  1.00  0.00     0.033 A 
ENDBRANCH  30  33
ENDBRANCH   9  29
TORSDOF 8
ENDMDL
MODEL 4
REMARK VINA RESULT:      -9.2      3.697      5.924
REMARK  8 active torsions:
REMARK  status: ('A' for Active; 'I' for Inactive)
REMARK    1  A    between atoms: C_4  and  S_5 
REMARK    2  A    between atoms: S_5  and  C_6 
REMARK    3  A    between atoms: C_6  and  C_7 
REMARK       I    between atoms: C_7  and  N_8 
REMARK    4  A    between atoms: N_8  and  C_9 
REMARK    5  A    between atoms: C_9  and  C_10 
REMARK    6  A    between atoms: C_20  and  C_21 
REMARK    7  A    between atoms: C_26  and  C_27 
REMARK       I    between atoms: C_27  and  N_28 
REMARK    8  A    between atoms: N_28  and  C_29 
ROOT
HETATM    1  C   UNL     1      -7.235   3.214 -30.838  1.00  0.00     0.069 C 
HETATM    2  C   UNL     1      -5.942   3.996 -30.917  1.00  0.00     0.019 C 
HETATM    3  N   UNL     1      -6.027   5.298 -30.445  1.00  0.00    -0.353 N 
HETATM    4  C   UNL     1      -4.955   6.145 -30.222  1.00  0.00     0.088 C 
HETATM    5  C   UNL     1      -3.738   5.775 -30.691  1.00  0.00     0.071 C 
HETATM    6  C   UNL     1      -2.553   6.548 -30.488  1.00  0.00     0.099 C 
HETATM    7  N   UNL     1      -1.576   7.154 -30.331  1.00  0.00    -0.192 NA
HETATM    8  C   UNL     1      -3.564   4.462 -31.469  1.00  0.00     0.130 C 
HETATM    9  C   UNL     1      -4.762   3.515 -31.387  1.00  0.00     0.048 C 
HETATM   10  H   UNL     1      -6.869   5.506 -29.920  1.00  0.00     0.166 HD
ENDROOT
BRANCH   4  11
HETATM   11  S   UNL     1      -5.121   7.659 -29.323  1.00  0.00    -0.102 SA
BRANCH  11  12
HETATM   12  C   UNL     1      -5.663   7.102 -27.686  1.00  0.00     0.183 C 
BRANCH  12  13
HETATM   13  C   UNL     1      -4.582   7.197 -26.624  1.00  0.00     0.227 C 
HETATM   14  N   UNL     1      -3.384   6.590 -26.915  1.00  0.00    -0.356 N 
HETATM   15  H   UNL     1      -3.407   5.817 -27.573  1.00  0.00     0.162 HD
HETATM   16  O   UNL     1      -4.754   7.875 -25.612  1.00  0.00    -0.273 OA
BRANCH  14  17
HETATM   17  C   UNL     1      -2.298   6.633 -25.960  1.00  0.00     0.161 C 
BRANCH  17  18
HETATM   18  C   UNL     1      -1.034   7.255 -26.499  1.00  0.00    -0.041 A 
HETATM   19  C   UNL     1      -0.701   8.600 -26.284  1.00  0.00     0.009 A 
HETATM   20  C   UNL     1       0.504   9.121 -26.762  1.00  0.00     0.001 A 
HETATM   21  C   UNL     1       1.402   8.300 -27.440  1.00  0.00     0.000 A 
HETATM   22  C   UNL     1       1.099   6.956 -27.639  1.00  0.00     0.001 A 
HETATM   23  C   UNL     1      -0.109   6.436 -27.170  1.00  0.00     0.009 A 
ENDBRANCH  17  18
ENDBRANCH  14  17
ENDBRANCH  12  13
ENDBRANCH  11  12
ENDBRANCH   4  11
BRANCH   8  24
HETATM   24  C   UNL     1      -3.161   4.717 -32.900  1.00  0.00     0.066 A 
HETATM   25  O   UNL     1      -4.151   5.148 -33.734  1.00  0.00    -0.326 OA
HETATM   26  C   UNL     1      -3.589   5.333 -34.956  1.00  0.00     0.142 A 
HETATM   27  C   UNL     1      -2.249   5.031 -34.919  1.00  0.00     0.027 A 
HETATM   28  C   UNL     1      -1.968   4.635 -33.588  1.00  0.00     0.035 A 
ENDBRANCH   8  24
BRANCH   9  29
HETATM   29  C   UNL     1      -4.614   2.058 -31.780  1.00  0.00     0.255 C 
HETATM   30  N   UNL     1      -5.502   1.569 -32.718  1.00  0.00    -0.322 N 
HETATM   31  H   UNL     1      -6.244   2.165 -33.072  1.00  0.00     0.169 HD
HETATM   32  O   UNL     1      -3.703   1.386 -31.305  1.00  0.00    -0.268 OA
BRANCH  30  33
HETATM   33  C   UNL     1      -5.508   0.272 -33.307  1.00  0.00     0.057 A 
HETATM   34  C   UNL     1      -6.512  -0.036 -34.249  1.00  0.00     0.062 A 
HETATM   35 CL   UNL     1      -7.700   1.136 -34.706  1.00  0.00    -0.082 Cl
HETATM   36  C   UNL     1      -6.567  -1.287 -34.872  1.00  0.00     0.050 A 
HETATM   37  C   UNL     1      -5.617  -2.251 -34.555  1.00  0.00     0.035 A 
HETATM   38 CL   UNL     1      -5.671  -3.791 -35.319  1.00  0.00    -0.084 Cl
HETATM   39  C   UNL     1      -4.620  -1.973 -33.626  1.00  0.00     0.026 A 
HETATM   40  C   UNL     1      -4.567  -0.719 -33.007  1.00  0.00     0.033 A 
ENDBRANCH  30  33
ENDBRANCH   9  29
TORSDOF 8
ENDMDL
MODEL 5
REMARK VINA RESULT:      -9.2      4.429     10.047
REMARK  8 active torsions:
REMARK  status: ('A' for Active; 'I' for Inactive)
REMARK    1  A    between atoms: C_4  and  S_5 
REMARK    2  A    between atoms: S_5  and  C_6 
REMARK    3  A    between atoms: C_6  and  C_7 
REMARK       I    between atoms: C_7  and  N_8 
REMARK    4  A    between atoms: N_8  and  C_9 
REMARK    5  A    between atoms: C_9  and  C_10 
REMARK    6  A    between atoms: C_20  and  C_21 
REMARK    7  A    between atoms: C_26  and  C_27 
REMARK       I    between atoms: C_27  and  N_28 
REMARK    8  A    between atoms: N_28  and  C_29 
ROOT
HETATM    1  C   UNL     1      -5.805   5.388 -27.565  1.00  0.00     0.069 C 
HETATM    2  C   UNL     1      -5.999   5.325 -29.064  1.00  0.00     0.019 C 
HETATM    3  N   UNL     1      -7.065   4.535 -29.473  1.00  0.00    -0.353 N 
HETATM    4  C   UNL     1      -7.574   4.474 -30.759  1.00  0.00     0.088 C 
HETATM    5  C   UNL     1      -6.865   5.056 -31.756  1.00  0.00     0.071 C 
HETATM    6  C   UNL     1      -7.309   5.089 -33.115  1.00  0.00     0.099 C 
HETATM    7  N   UNL     1      -7.650   5.136 -34.223  1.00  0.00    -0.192 NA
HETATM    8  C   UNL     1      -5.522   5.742 -31.467  1.00  0.00     0.130 C 
HETATM    9  C   UNL     1      -5.237   5.973 -29.982  1.00  0.00     0.048 C 
HETATM   10  H   UNL     1      -7.704   4.267 -28.734  1.00  0.00     0.166 HD
ENDROOT
BRANCH   4  11
HETATM   11  S   UNL     1      -9.121   3.698 -31.124  1.00  0.00    -0.102 SA
BRANCH  11  12
HETATM   12  C   UNL     1      -8.669   1.951 -31.298  1.00  0.00     0.183 C 
BRANCH  12  13
HETATM   13  C   UNL     1      -7.941   1.640 -32.593  1.00  0.00     0.227 C 
HETATM   14  N   UNL     1      -6.701   1.060 -32.474  1.00  0.00    -0.356 N 
HETATM   15  H   UNL     1      -6.190   1.237 -31.615  1.00  0.00     0.162 HD
HETATM   16  O   UNL     1      -8.494   1.808 -33.679  1.00  0.00    -0.273 OA
BRANCH  14  17
HETATM   17  C   UNL     1      -5.938   0.728 -33.658  1.00  0.00     0.161 C 
BRANCH  17  18
HETATM   18  C   UNL     1      -5.852  -0.752 -33.935  1.00  0.00    -0.041 A 
HETATM   19  C   UNL     1      -6.961  -1.513 -34.336  1.00  0.00     0.009 A 
HETATM   20  C   UNL     1      -6.824  -2.872 -34.628  1.00  0.00     0.001 A 
HETATM   21  C   UNL     1      -5.575  -3.483 -34.547  1.00  0.00     0.000 A 
HETATM   22  C   UNL     1      -4.460  -2.737 -34.177  1.00  0.00     0.001 A 
HETATM   23  C   UNL     1      -4.597  -1.380 -33.875  1.00  0.00     0.009 A 
ENDBRANCH  17  18
ENDBRANCH  14  17
ENDBRANCH  12  13
ENDBRANCH  11  12
ENDBRANCH   4  11
BRANCH   8  24
HETATM   24  C   UNL     1      -4.379   5.025 -32.141  1.00  0.00     0.066 A 
HETATM   25  O   UNL     1      -4.208   3.716 -31.802  1.00  0.00    -0.326 OA
HETATM   26  C   UNL     1      -3.152   3.253 -32.518  1.00  0.00     0.142 A 
HETATM   27  C   UNL     1      -2.643   4.247 -33.319  1.00  0.00     0.027 A 
HETATM   28  C   UNL     1      -3.437   5.395 -33.080  1.00  0.00     0.035 A 
ENDBRANCH   8  24
BRANCH   9  29
HETATM   29  C   UNL     1      -4.156   6.945 -29.552  1.00  0.00     0.255 C 
HETATM   30  N   UNL     1      -3.020   6.406 -28.981  1.00  0.00    -0.322 N 
HETATM   31  H   UNL     1      -2.961   5.406 -28.819  1.00  0.00     0.169 HD
HETATM   32  O   UNL     1      -4.294   8.147 -29.765  1.00  0.00    -0.268 OA
BRANCH  30  33
HETATM   33  C   UNL     1      -1.842   7.100 -28.583  1.00  0.00     0.057 A 
HETATM   34  C   UNL     1      -0.639   6.838 -29.273  1.00  0.00     0.062 A 
HETATM   35 CL   UNL     1      -0.591   5.722 -30.594  1.00  0.00    -0.082 Cl
HETATM   36  C   UNL     1       0.550   7.494 -28.939  1.00  0.00     0.050 A 
HETATM   37  C   UNL     1       0.552   8.420 -27.902  1.00  0.00     0.035 A 
HETATM   38 CL   UNL     1       2.007   9.237 -27.486  1.00  0.00    -0.084 Cl
HETATM   39  C   UNL     1      -0.619   8.691 -27.203  1.00  0.00     0.026 A 
HETATM   40  C   UNL     1      -1.808   8.035 -27.542  1.00  0.00     0.033 A 
ENDBRANCH  30  33
ENDBRANCH   9  29
TORSDOF 8
ENDMDL
MODEL 6
REMARK VINA RESULT:      -9.1      5.235     11.493
REMARK  8 active torsions:
REMARK  status: ('A' for Active; 'I' for Inactive)
REMARK    1  A    between atoms: C_4  and  S_5 
REMARK    2  A    between atoms: S_5  and  C_6 
REMARK    3  A    between atoms: C_6  and  C_7 
REMARK       I    between atoms: C_7  and  N_8 
REMARK    4  A    between atoms: N_8  and  C_9 
REMARK    5  A    between atoms: C_9  and  C_10 
REMARK    6  A    between atoms: C_20  and  C_21 
REMARK    7  A    between atoms: C_26  and  C_27 
REMARK       I    between atoms: C_27  and  N_28 
REMARK    8  A    between atoms: N_28  and  C_29 
ROOT
HETATM    1  C   UNL     1      -4.730   7.447 -27.998  1.00  0.00     0.069 C 
HETATM    2  C   UNL     1      -3.920   7.355 -29.272  1.00  0.00     0.019 C 
HETATM    3  N   UNL     1      -4.538   6.652 -30.297  1.00  0.00    -0.353 N 
HETATM    4  C   UNL     1      -4.103   6.596 -31.610  1.00  0.00     0.088 C 
HETATM    5  C   UNL     1      -2.870   7.080 -31.898  1.00  0.00     0.071 C 
HETATM    6  C   UNL     1      -2.331   7.110 -33.222  1.00  0.00     0.099 C 
HETATM    7  N   UNL     1      -1.873   7.152 -34.287  1.00  0.00    -0.192 NA
HETATM    8  C   UNL     1      -1.974   7.651 -30.789  1.00  0.00     0.130 C 
HETATM    9  C   UNL     1      -2.692   7.902 -29.462  1.00  0.00     0.048 C 
HETATM   10  H   UNL     1      -5.523   6.466 -30.152  1.00  0.00     0.166 HD
ENDROOT
BRANCH   4  11
HETATM   11  S   UNL     1      -5.114   5.952 -32.911  1.00  0.00    -0.102 SA
BRANCH  11  12
HETATM   12  C   UNL     1      -4.565   4.230 -33.038  1.00  0.00     0.183 C 
BRANCH  12  13
HETATM   13  C   UNL     1      -5.637   3.222 -32.663  1.00  0.00     0.227 C 
HETATM   14  N   UNL     1      -5.305   1.896 -32.800  1.00  0.00    -0.356 N 
HETATM   15  H   UNL     1      -4.587   1.669 -33.480  1.00  0.00     0.162 HD
HETATM   16  O   UNL     1      -6.699   3.593 -32.165  1.00  0.00    -0.273 OA
BRANCH  14  17
HETATM   17  C   UNL     1      -6.267   0.869 -32.463  1.00  0.00     0.161 C 
BRANCH  17  18
HETATM   18  C   UNL     1      -6.055  -0.432 -33.196  1.00  0.00    -0.041 A 
HETATM   19  C   UNL     1      -7.087  -1.091 -33.881  1.00  0.00     0.009 A 
HETATM   20  C   UNL     1      -6.834  -2.270 -34.587  1.00  0.00     0.001 A 
HETATM   21  C   UNL     1      -5.544  -2.793 -34.637  1.00  0.00     0.000 A 
HETATM   22  C   UNL     1      -4.504  -2.137 -33.985  1.00  0.00     0.001 A 
HETATM   23  C   UNL     1      -4.757  -0.964 -33.271  1.00  0.00     0.009 A 
ENDBRANCH  17  18
ENDBRANCH  14  17
ENDBRANCH  12  13
ENDBRANCH  11  12
ENDBRANCH   4  11
BRANCH   8  24
HETATM   24  C   UNL     1      -0.735   6.812 -30.594  1.00  0.00     0.066 A 
HETATM   25  O   UNL     1      -0.761   5.937 -29.549  1.00  0.00    -0.326 OA
HETATM   26  C   UNL     1       0.424   5.275 -29.553  1.00  0.00     0.142 A 
HETATM   27  C   UNL     1       1.213   5.710 -30.591  1.00  0.00     0.027 A 
HETATM   28  C   UNL     1       0.464   6.704 -31.269  1.00  0.00     0.035 A 
ENDBRANCH   8  24
BRANCH   9  29
HETATM   29  C   UNL     1      -2.059   8.786 -28.404  1.00  0.00     0.255 C 
HETATM   30  N   UNL     1      -1.357   8.153 -27.398  1.00  0.00    -0.322 N 
HETATM   31  H   UNL     1      -1.327   7.139 -27.363  1.00  0.00     0.169 HD
HETATM   32  O   UNL     1      -2.143  10.008 -28.498  1.00  0.00    -0.268 OA
BRANCH  30  33
HETATM   33  C   UNL     1      -0.607   8.764 -26.353  1.00  0.00     0.057 A 
HETATM   34  C   UNL     1       0.782   8.936 -26.531  1.00  0.00     0.062 A 
HETATM   35 CL   UNL     1       1.564   8.443 -27.993  1.00  0.00    -0.082 Cl
HETATM   36  C   UNL     1       1.573   9.539 -25.548  1.00  0.00     0.050 A 
HETATM   37  C   UNL     1       0.983   9.975 -24.367  1.00  0.00     0.035 A 
HETATM   38 CL   UNL     1       1.944  10.724 -23.154  1.00  0.00    -0.084 Cl
HETATM   39  C   UNL     1      -0.383   9.813 -24.166  1.00  0.00     0.026 A 
HETATM   40  C   UNL     1      -1.173   9.211 -25.153  1.00  0.00     0.033 A 
ENDBRANCH  30  33
ENDBRANCH   9  29
TORSDOF 8
ENDMDL
MODEL 7
REMARK VINA RESULT:      -9.1      3.559      5.538
REMARK  8 active torsions:
REMARK  status: ('A' for Active; 'I' for Inactive)
REMARK    1  A    between atoms: C_4  and  S_5 
REMARK    2  A    between atoms: S_5  and  C_6 
REMARK    3  A    between atoms: C_6  and  C_7 
REMARK       I    between atoms: C_7  and  N_8 
REMARK    4  A    between atoms: N_8  and  C_9 
REMARK    5  A    between atoms: C_9  and  C_10 
REMARK    6  A    between atoms: C_20  and  C_21 
REMARK    7  A    between atoms: C_26  and  C_27 
REMARK       I    between atoms: C_27  and  N_28 
REMARK    8  A    between atoms: N_28  and  C_29 
ROOT
HETATM    1  C   UNL     1      -9.065   3.520 -32.811  1.00  0.00     0.069 C 
HETATM    2  C   UNL     1      -7.897   4.070 -32.023  1.00  0.00     0.019 C 
HETATM    3  N   UNL     1      -8.009   5.412 -31.689  1.00  0.00    -0.353 N 
HETATM    4  C   UNL     1      -7.185   6.095 -30.811  1.00  0.00     0.088 C 
HETATM    5  C   UNL     1      -6.048   5.485 -30.394  1.00  0.00     0.071 C 
HETATM    6  C   UNL     1      -5.141   6.076 -29.460  1.00  0.00     0.099 C 
HETATM    7  N   UNL     1      -4.393   6.530 -28.698  1.00  0.00    -0.192 NA
HETATM    8  C   UNL     1      -5.677   4.085 -30.905  1.00  0.00     0.130 C 
HETATM    9  C   UNL     1      -6.808   3.358 -31.634  1.00  0.00     0.048 C 
HETATM   10  H   UNL     1      -8.932   5.809 -31.825  1.00  0.00     0.166 HD
ENDROOT
BRANCH   4  11
HETATM   11  S   UNL     1      -7.588   7.704 -30.198  1.00  0.00    -0.102 SA
BRANCH  11  12
HETATM   12  C   UNL     1      -6.855   8.806 -31.436  1.00  0.00     0.183 C 
BRANCH  12  13
HETATM   13  C   UNL     1      -5.561   9.457 -30.978  1.00  0.00     0.227 C 
HETATM   14  N   UNL     1      -4.408   8.739 -31.187  1.00  0.00    -0.356 N 
HETATM   15  H   UNL     1      -4.497   7.730 -31.242  1.00  0.00     0.162 HD
HETATM   16  O   UNL     1      -5.558  10.607 -30.543  1.00  0.00    -0.273 OA
BRANCH  14  17
HETATM   17  C   UNL     1      -3.131   9.285 -30.783  1.00  0.00     0.161 C 
BRANCH  17  18
HETATM   18  C   UNL     1      -1.972   8.340 -30.976  1.00  0.00    -0.041 A 
HETATM   19  C   UNL     1      -1.562   7.893 -32.241  1.00  0.00     0.009 A 
HETATM   20  C   UNL     1      -0.453   7.054 -32.375  1.00  0.00     0.001 A 
HETATM   21  C   UNL     1       0.274   6.670 -31.252  1.00  0.00     0.000 A 
HETATM   22  C   UNL     1      -0.103   7.125 -29.992  1.00  0.00     0.001 A 
HETATM   23  C   UNL     1      -1.217   7.956 -29.855  1.00  0.00     0.009 A 
ENDBRANCH  17  18
ENDBRANCH  14  17
ENDBRANCH  12  13
ENDBRANCH  11  12
ENDBRANCH   4  11
BRANCH   8  24
HETATM   24  C   UNL     1      -4.418   4.116 -31.736  1.00  0.00     0.066 A 
HETATM   25  O   UNL     1      -4.549   4.593 -33.006  1.00  0.00    -0.326 OA
HETATM   26  C   UNL     1      -3.318   4.554 -33.575  1.00  0.00     0.142 A 
HETATM   27  C   UNL     1      -2.392   4.063 -32.686  1.00  0.00     0.027 A 
HETATM   28  C   UNL     1      -3.101   3.781 -31.492  1.00  0.00     0.035 A 
ENDBRANCH   8  24
BRANCH   9  29
HETATM   29  C   UNL     1      -6.729   1.862 -31.870  1.00  0.00     0.255 C 
HETATM   30  N   UNL     1      -6.314   1.446 -33.120  1.00  0.00    -0.322 N 
HETATM   31  H   UNL     1      -6.129   2.132 -33.845  1.00  0.00     0.169 HD
HETATM   32  O   UNL     1      -6.978   1.084 -30.953  1.00  0.00    -0.268 OA
BRANCH  30  33
HETATM   33  C   UNL     1      -6.077   0.110 -33.550  1.00  0.00     0.057 A 
HETATM   34  C   UNL     1      -4.789  -0.439 -33.369  1.00  0.00     0.062 A 
HETATM   35 CL   UNL     1      -3.526   0.474 -32.618  1.00  0.00    -0.082 Cl
HETATM   36  C   UNL     1      -4.494  -1.749 -33.760  1.00  0.00     0.050 A 
HETATM   37  C   UNL     1      -5.486  -2.528 -34.343  1.00  0.00     0.035 A 
HETATM   38 CL   UNL     1      -5.137  -4.143 -34.822  1.00  0.00    -0.084 Cl
HETATM   39  C   UNL     1      -6.761  -2.009 -34.537  1.00  0.00     0.026 A 
HETATM   40  C   UNL     1      -7.054  -0.698 -34.142  1.00  0.00     0.033 A 
ENDBRANCH  30  33
ENDBRANCH   9  29
TORSDOF 8
ENDMDL
MODEL 8
REMARK VINA RESULT:      -9.1      3.727      6.270
REMARK  8 active torsions:
REMARK  status: ('A' for Active; 'I' for Inactive)
REMARK    1  A    between atoms: C_4  and  S_5 
REMARK    2  A    between atoms: S_5  and  C_6 
REMARK    3  A    between atoms: C_6  and  C_7 
REMARK       I    between atoms: C_7  and  N_8 
REMARK    4  A    between atoms: N_8  and  C_9 
REMARK    5  A    between atoms: C_9  and  C_10 
REMARK    6  A    between atoms: C_20  and  C_21 
REMARK    7  A    between atoms: C_26  and  C_27 
REMARK       I    between atoms: C_27  and  N_28 
REMARK    8  A    between atoms: N_28  and  C_29 
ROOT
HETATM    1  C   UNL     1      -6.951   2.484 -30.316  1.00  0.00     0.069 C 
HETATM    2  C   UNL     1      -7.709   3.064 -31.489  1.00  0.00     0.019 C 
HETATM    3  N   UNL     1      -7.997   4.417 -31.376  1.00  0.00    -0.353 N 
HETATM    4  C   UNL     1      -8.495   5.221 -32.387  1.00  0.00     0.088 C 
HETATM    5  C   UNL     1      -8.942   4.624 -33.519  1.00  0.00     0.071 C 
HETATM    6  C   UNL     1      -9.441   5.353 -34.643  1.00  0.00     0.099 C 
HETATM    7  N   UNL     1      -9.844   5.921 -35.571  1.00  0.00    -0.192 NA
HETATM    8  C   UNL     1      -8.918   3.095 -33.660  1.00  0.00     0.130 C 
HETATM    9  C   UNL     1      -8.091   2.374 -32.595  1.00  0.00     0.048 C 
HETATM   10  H   UNL     1      -7.498   4.898 -30.637  1.00  0.00     0.166 HD
ENDROOT
BRANCH   4  11
HETATM   11  S   UNL     1      -8.528   6.984 -32.258  1.00  0.00    -0.102 SA
BRANCH  11  12
HETATM   12  C   UNL     1      -7.517   7.304 -30.788  1.00  0.00     0.183 C 
BRANCH  12  13
HETATM   13  C   UNL     1      -6.115   7.789 -31.111  1.00  0.00     0.227 C 
HETATM   14  N   UNL     1      -5.153   6.820 -31.271  1.00  0.00    -0.356 N 
HETATM   15  H   UNL     1      -5.307   5.937 -30.795  1.00  0.00     0.162 HD
HETATM   16  O   UNL     1      -5.896   8.982 -31.318  1.00  0.00    -0.273 OA
BRANCH  14  17
HETATM   17  C   UNL     1      -3.791   7.194 -31.581  1.00  0.00     0.161 C 
BRANCH  17  18
HETATM   18  C   UNL     1      -3.205   6.451 -32.756  1.00  0.00    -0.041 A 
HETATM   19  C   UNL     1      -3.999   5.802 -33.713  1.00  0.00     0.009 A 
HETATM   20  C   UNL     1      -3.415   5.167 -34.811  1.00  0.00     0.001 A 
HETATM   21  C   UNL     1      -2.032   5.191 -34.980  1.00  0.00     0.000 A 
HETATM   22  C   UNL     1      -1.232   5.853 -34.053  1.00  0.00     0.001 A 
HETATM   23  C   UNL     1      -1.814   6.480 -32.950  1.00  0.00     0.009 A 
ENDBRANCH  17  18
ENDBRANCH  14  17
ENDBRANCH  12  13
ENDBRANCH  11  12
ENDBRANCH   4  11
BRANCH   8  24
HETATM   24  C   UNL     1     -10.313   2.527 -33.751  1.00  0.00     0.066 A 
HETATM   25  O   UNL     1     -11.219   3.015 -32.857  1.00  0.00    -0.326 OA
HETATM   26  C   UNL     1     -12.400   2.397 -33.110  1.00  0.00     0.142 A 
HETATM   27  C   UNL     1     -12.269   1.520 -34.160  1.00  0.00     0.027 A 
HETATM   28  C   UNL     1     -10.919   1.604 -34.579  1.00  0.00     0.035 A 
ENDBRANCH   8  24
BRANCH   9  29
HETATM   29  C   UNL     1      -7.669   0.932 -32.799  1.00  0.00     0.255 C 
HETATM   30  N   UNL     1      -6.442   0.717 -33.395  1.00  0.00    -0.322 N 
HETATM   31  H   UNL     1      -5.892   1.506 -33.720  1.00  0.00     0.169 HD
HETATM   32  O   UNL     1      -8.387   0.021 -32.393  1.00  0.00    -0.268 OA
BRANCH  30  33
HETATM   33  C   UNL     1      -5.795  -0.533 -33.610  1.00  0.00     0.057 A 
HETATM   34  C   UNL     1      -4.703  -0.878 -32.785  1.00  0.00     0.062 A 
HETATM   35 CL   UNL     1      -4.171   0.174 -31.519  1.00  0.00    -0.082 Cl
HETATM   36  C   UNL     1      -4.031  -2.095 -32.938  1.00  0.00     0.050 A 
HETATM   37  C   UNL     1      -4.442  -2.985 -33.924  1.00  0.00     0.035 A 
HETATM   38 CL   UNL     1      -3.627  -4.487 -34.117  1.00  0.00    -0.084 Cl
HETATM   39  C   UNL     1      -5.511  -2.665 -34.753  1.00  0.00     0.026 A 
HETATM   40  C   UNL     1      -6.183  -1.447 -34.596  1.00  0.00     0.033 A 
ENDBRANCH  30  33
ENDBRANCH   9  29
TORSDOF 8
ENDMDL
MODEL 9
REMARK VINA RESULT:      -9.0      3.986      7.008
REMARK  8 active torsions:
REMARK  status: ('A' for Active; 'I' for Inactive)
REMARK    1  A    between atoms: C_4  and  S_5 
REMARK    2  A    between atoms: S_5  and  C_6 
REMARK    3  A    between atoms: C_6  and  C_7 
REMARK       I    between atoms: C_7  and  N_8 
REMARK    4  A    between atoms: N_8  and  C_9 
REMARK    5  A    between atoms: C_9  and  C_10 
REMARK    6  A    between atoms: C_20  and  C_21 
REMARK    7  A    between atoms: C_26  and  C_27 
REMARK       I    between atoms: C_27  and  N_28 
REMARK    8  A    between atoms: N_28  and  C_29 
ROOT
HETATM    1  C   UNL     1      -9.134   0.468 -33.104  1.00  0.00     0.069 C 
HETATM    2  C   UNL     1      -8.514   1.842 -32.989  1.00  0.00     0.019 C 
HETATM    3  N   UNL     1      -7.137   1.840 -32.813  1.00  0.00    -0.353 N 
HETATM    4  C   UNL     1      -6.316   2.953 -32.882  1.00  0.00     0.088 C 
HETATM    5  C   UNL     1      -6.896   4.177 -32.912  1.00  0.00     0.071 C 
HETATM    6  C   UNL     1      -6.152   5.393 -33.022  1.00  0.00     0.099 C 
HETATM    7  N   UNL     1      -5.572   6.393 -33.117  1.00  0.00    -0.192 NA
HETATM    8  C   UNL     1      -8.424   4.322 -32.846  1.00  0.00     0.130 C 
HETATM    9  C   UNL     1      -9.193   3.017 -33.057  1.00  0.00     0.048 C 
HETATM   10  H   UNL     1      -6.688   0.949 -32.988  1.00  0.00     0.166 HD
ENDROOT
BRANCH   4  11
HETATM   11  S   UNL     1      -4.554   2.818 -32.968  1.00  0.00    -0.102 SA
BRANCH  11  12
HETATM   12  C   UNL     1      -4.138   1.945 -31.436  1.00  0.00     0.183 C 
BRANCH  12  13
HETATM   13  C   UNL     1      -3.572   0.555 -31.665  1.00  0.00     0.227 C 
HETATM   14  N   UNL     1      -4.116  -0.164 -32.701  1.00  0.00    -0.356 N 
HETATM   15  H   UNL     1      -5.066   0.067 -32.973  1.00  0.00     0.162 HD
HETATM   16  O   UNL     1      -2.607   0.155 -31.014  1.00  0.00    -0.273 OA
BRANCH  14  17
HETATM   17  C   UNL     1      -3.635  -1.498 -32.991  1.00  0.00     0.161 C 
BRANCH  17  18
HETATM   18  C   UNL     1      -4.630  -2.361 -33.724  1.00  0.00    -0.041 A 
HETATM   19  C   UNL     1      -4.356  -3.688 -34.089  1.00  0.00     0.009 A 
HETATM   20  C   UNL     1      -5.326  -4.466 -34.726  1.00  0.00     0.001 A 
HETATM   21  C   UNL     1      -6.588  -3.938 -34.985  1.00  0.00     0.000 A 
HETATM   22  C   UNL     1      -6.885  -2.632 -34.605  1.00  0.00     0.001 A 
HETATM   23  C   UNL     1      -5.914  -1.850 -33.978  1.00  0.00     0.009 A 
ENDBRANCH  17  18
ENDBRANCH  14  17
ENDBRANCH  12  13
ENDBRANCH  11  12
ENDBRANCH   4  11
BRANCH   8  24
HETATM   24  C   UNL     1      -8.858   5.018 -31.580  1.00  0.00     0.066 A 
HETATM   25  O   UNL     1      -9.591   6.156 -31.742  1.00  0.00    -0.326 OA
HETATM   26  C   UNL     1      -9.892   6.616 -30.501  1.00  0.00     0.142 A 
HETATM   27  C   UNL     1      -9.366   5.786 -29.540  1.00  0.00     0.027 A 
HETATM   28  C   UNL     1      -8.698   4.748 -30.236  1.00  0.00     0.035 A 
ENDBRANCH   8  24
BRANCH   9  29
HETATM   29  C   UNL     1     -10.673   3.045 -33.383  1.00  0.00     0.255 C 
HETATM   30  N   UNL     1     -11.546   2.740 -32.357  1.00  0.00    -0.322 N 
HETATM   31  H   UNL     1     -11.184   2.461 -31.451  1.00  0.00     0.169 HD
HETATM   32  O   UNL     1     -11.046   3.379 -34.504  1.00  0.00    -0.268 OA
BRANCH  30  33
HETATM   33  C   UNL     1     -12.969   2.786 -32.393  1.00  0.00     0.057 A 
HETATM   34  C   UNL     1     -13.664   1.704 -32.974  1.00  0.00     0.062 A 
HETATM   35 CL   UNL     1     -12.818   0.334 -33.608  1.00  0.00    -0.082 Cl
HETATM   36  C   UNL     1     -15.061   1.683 -33.031  1.00  0.00     0.050 A 
HETATM   37  C   UNL     1     -15.784   2.749 -32.509  1.00  0.00     0.035 A 
HETATM   38 CL   UNL     1     -17.502   2.731 -32.568  1.00  0.00    -0.084 Cl
HETATM   39  C   UNL     1     -15.122   3.829 -31.936  1.00  0.00     0.026 A 
HETATM   40  C   UNL     1     -13.723   3.846 -31.879  1.00  0.00     0.033 A 
ENDBRANCH  30  33
ENDBRANCH   9  29
TORSDOF 8
ENDMDL
MODEL 10
REMARK VINA RESULT:      -9.0      3.198      5.681
REMARK  8 active torsions:
REMARK  status: ('A' for Active; 'I' for Inactive)
REMARK    1  A    between atoms: C_4  and  S_5 
REMARK    2  A    between atoms: S_5  and  C_6 
REMARK    3  A    between atoms: C_6  and  C_7 
REMARK       I    between atoms: C_7  and  N_8 
REMARK    4  A    between atoms: N_8  and  C_9 
REMARK    5  A    between atoms: C_9  and  C_10 
REMARK    6  A    between atoms: C_20  and  C_21 
REMARK    7  A    between atoms: C_26  and  C_27 
REMARK       I    between atoms: C_27  and  N_28 
REMARK    8  A    between atoms: N_28  and  C_29 
ROOT
HETATM    1  C   UNL     1      -6.607   2.191 -30.115  1.00  0.00     0.069 C 
HETATM    2  C   UNL     1      -7.357   2.828 -31.264  1.00  0.00     0.019 C 
HETATM    3  N   UNL     1      -7.607   4.184 -31.107  1.00  0.00    -0.353 N 
HETATM    4  C   UNL     1      -8.090   5.032 -32.088  1.00  0.00     0.088 C 
HETATM    5  C   UNL     1      -8.561   4.484 -33.234  1.00  0.00     0.071 C 
HETATM    6  C   UNL     1      -9.048   5.261 -34.331  1.00  0.00     0.099 C 
HETATM    7  N   UNL     1      -9.443   5.868 -35.237  1.00  0.00    -0.192 NA
HETATM    8  C   UNL     1      -8.580   2.959 -33.423  1.00  0.00     0.130 C 
HETATM    9  C   UNL     1      -7.765   2.184 -32.388  1.00  0.00     0.048 C 
HETATM   10  H   UNL     1      -7.090   4.628 -30.357  1.00  0.00     0.166 HD
ENDROOT
BRANCH   4  11
HETATM   11  S   UNL     1      -8.075   6.791 -31.903  1.00  0.00    -0.102 SA
BRANCH  11  12
HETATM   12  C   UNL     1      -6.567   7.086 -30.942  1.00  0.00     0.183 C 
BRANCH  12  13
HETATM   13  C   UNL     1      -5.303   7.087 -31.782  1.00  0.00     0.227 C 
HETATM   14  N   UNL     1      -4.248   7.826 -31.301  1.00  0.00    -0.356 N 
HETATM   15  H   UNL     1      -4.473   8.604 -30.690  1.00  0.00     0.162 HD
HETATM   16  O   UNL     1      -5.213   6.374 -32.781  1.00  0.00    -0.273 OA
BRANCH  14  17
HETATM   17  C   UNL     1      -3.005   7.881 -32.038  1.00  0.00     0.161 C 
BRANCH  17  18
HETATM   18  C   UNL     1      -1.778   7.692 -31.182  1.00  0.00    -0.041 A 
HETATM   19  C   UNL     1      -1.720   8.099 -29.841  1.00  0.00     0.009 A 
HETATM   20  C   UNL     1      -0.578   7.861 -29.072  1.00  0.00     0.001 A 
HETATM   21  C   UNL     1       0.511   7.192 -29.626  1.00  0.00     0.000 A 
HETATM   22  C   UNL     1       0.461   6.759 -30.948  1.00  0.00     0.001 A 
HETATM   23  C   UNL     1      -0.676   7.005 -31.720  1.00  0.00     0.009 A 
ENDBRANCH  17  18
ENDBRANCH  14  17
ENDBRANCH  12  13
ENDBRANCH  11  12
ENDBRANCH   4  11
BRANCH   8  24
HETATM   24  C   UNL     1      -9.990   2.432 -33.521  1.00  0.00     0.066 A 
HETATM   25  O   UNL     1     -10.916   3.047 -32.731  1.00  0.00    -0.326 OA
HETATM   26  C   UNL     1     -12.109   2.445 -32.974  1.00  0.00     0.142 A 
HETATM   27  C   UNL     1     -11.964   1.453 -33.914  1.00  0.00     0.027 A 
HETATM   28  C   UNL     1     -10.594   1.444 -34.273  1.00  0.00     0.035 A 
ENDBRANCH   8  24
BRANCH   9  29
HETATM   29  C   UNL     1      -7.384   0.737 -32.640  1.00  0.00     0.255 C 
HETATM   30  N   UNL     1      -6.148   0.506 -33.210  1.00  0.00    -0.322 N 
HETATM   31  H   UNL     1      -5.563   1.289 -33.486  1.00  0.00     0.169 HD
HETATM   32  O   UNL     1      -8.143  -0.164 -32.294  1.00  0.00    -0.268 OA
BRANCH  30  33
HETATM   33  C   UNL     1      -5.535  -0.755 -33.459  1.00  0.00     0.057 A 
HETATM   34  C   UNL     1      -4.499  -1.182 -32.602  1.00  0.00     0.062 A 
HETATM   35 CL   UNL     1      -3.994  -0.216 -31.258  1.00  0.00    -0.082 Cl
HETATM   36  C   UNL     1      -3.863  -2.414 -32.785  1.00  0.00     0.050 A 
HETATM   37  C   UNL     1      -4.255  -3.236 -33.835  1.00  0.00     0.035 A 
HETATM   38 CL   UNL     1      -3.485  -4.756 -34.067  1.00  0.00    -0.084 Cl
HETATM   39  C   UNL     1      -5.270  -2.835 -34.697  1.00  0.00     0.026 A 
HETATM   40  C   UNL     1      -5.905  -1.602 -34.509  1.00  0.00     0.033 A 
ENDBRANCH  30  33
ENDBRANCH   9  29
TORSDOF 8
ENDMDL
