MODEL 1
REMARK VINA RESULT:      -9.0      0.000      0.000
REMARK  4 active torsions:
REMARK  status: ('A' for Active; 'I' for Inactive)
REMARK    1  A    between atoms: N_4  and  C_5 
REMARK    2  A    between atoms: C_14  and  C_15 
REMARK       I    between atoms: C_15  and  N_16 
REMARK    3  A    between atoms: N_16  and  N_17 
REMARK       I    between atoms: N_17  and  C_18 
REMARK       I    between atoms: C_18  and  N_19 
REMARK    4  A    between atoms: N_19  and  C_20 
ROOT
HETATM    1  C   UNL     1      -3.380   3.033 -32.059  1.00  0.00     0.277 C 
HETATM    2  N   UNL     1      -3.386   4.305 -32.597  1.00  0.00    -0.261 N 
HETATM    3  O   UNL     1      -2.619   2.737 -31.137  1.00  0.00    -0.265 OA
HETATM    4  H   UNL     1      -3.927   4.533 -33.432  1.00  0.00     0.190 HD
ENDROOT
BRANCH   1   5
HETATM    5  C   UNL     1      -4.323   2.100 -32.658  1.00  0.00     0.077 A 
HETATM    6  S   UNL     1      -3.876   0.438 -32.963  1.00  0.00    -0.064 SA
HETATM    7  C   UNL     1      -5.396   0.106 -33.555  1.00  0.00     0.113 A 
HETATM    8  N   UNL     1      -6.128  -0.942 -34.056  1.00  0.00    -0.226 N 
HETATM    9  C   UNL     1      -6.195   1.179 -33.539  1.00  0.00     0.027 A 
HETATM   10  N   UNL     1      -7.397  -0.492 -34.388  1.00  0.00    -0.171 NA
HETATM   11  C   UNL     1      -7.422   0.815 -34.061  1.00  0.00     0.064 A 
HETATM   12  C   UNL     1      -8.635   1.632 -34.282  1.00  0.00     0.073 C 
HETATM   13  C   UNL     1      -5.646   2.351 -33.028  1.00  0.00     0.041 A 
BRANCH   8  14
HETATM   14  C   UNL     1      -5.785  -2.312 -34.246  1.00  0.00     0.059 A 
HETATM   15  C   UNL     1      -6.761  -3.196 -34.738  1.00  0.00     0.031 A 
HETATM   16  C   UNL     1      -6.469  -4.550 -34.922  1.00  0.00     0.002 A 
HETATM   17  C   UNL     1      -5.200  -5.036 -34.621  1.00  0.00     0.000 A 
HETATM   18  C   UNL     1      -4.223  -4.170 -34.137  1.00  0.00     0.002 A 
HETATM   19  C   UNL     1      -4.511  -2.813 -33.949  1.00  0.00     0.031 A 
ENDBRANCH   8  14
ENDBRANCH   1   5
BRANCH   2  20
HETATM   20  N   UNL     1      -2.393   5.232 -32.235  1.00  0.00    -0.249 N 
HETATM   21  C   UNL     1      -2.805   6.246 -31.381  1.00  0.00     0.339 C 
HETATM   22  N   UNL     1      -1.815   7.177 -31.165  1.00  0.00    -0.308 N 
HETATM   23  O   UNL     1      -3.929   6.230 -30.886  1.00  0.00    -0.245 OA
HETATM   24  H   UNL     1      -0.933   6.997 -31.621  1.00  0.00     0.170 HD
HETATM   25  H   UNL     1      -1.701   5.418 -32.957  1.00  0.00     0.192 HD
BRANCH  22  26
HETATM   26  C   UNL     1      -1.874   8.307 -30.323  1.00  0.00     0.038 A 
HETATM   27  C   UNL     1      -1.374   8.336 -29.019  1.00  0.00     0.053 A 
HETATM   28  C   UNL     1      -1.460   9.507 -28.261  1.00  0.00     0.036 A 
HETATM   29 CL   UNL     1      -0.830   9.535 -26.657  1.00  0.00    -0.084 Cl
HETATM   30  C   UNL     1      -2.047  10.654 -28.787  1.00  0.00     0.024 A 
HETATM   31  C   UNL     1      -2.554  10.632 -30.083  1.00  0.00     0.004 A 
HETATM   32  C   UNL     1      -2.466   9.465 -30.847  1.00  0.00     0.029 A 
ENDBRANCH  22  26
ENDBRANCH   2  20
TORSDOF 4
ENDMDL
MODEL 2
REMARK VINA RESULT:      -9.0      3.603     11.173
REMARK  4 active torsions:
REMARK  status: ('A' for Active; 'I' for Inactive)
REMARK    1  A    between atoms: N_4  and  C_5 
REMARK    2  A    between atoms: C_14  and  C_15 
REMARK       I    between atoms: C_15  and  N_16 
REMARK    3  A    between atoms: N_16  and  N_17 
REMARK       I    between atoms: N_17  and  C_18 
REMARK       I    between atoms: C_18  and  N_19 
REMARK    4  A    between atoms: N_19  and  C_20 
ROOT
HETATM    1  C   UNL     1      -4.388   4.003 -33.037  1.00  0.00     0.277 C 
HETATM    2  N   UNL     1      -4.751   2.816 -32.430  1.00  0.00    -0.261 N 
HETATM    3  O   UNL     1      -4.905   4.359 -34.096  1.00  0.00    -0.265 OA
HETATM    4  H   UNL     1      -4.253   2.455 -31.616  1.00  0.00     0.190 HD
ENDROOT
BRANCH   1   5
HETATM    5  C   UNL     1      -3.373   4.775 -32.335  1.00  0.00     0.077 A 
HETATM    6  S   UNL     1      -3.711   6.387 -31.750  1.00  0.00    -0.064 SA
HETATM    7  C   UNL     1      -2.182   6.505 -31.103  1.00  0.00     0.113 A 
HETATM    8  N   UNL     1      -1.404   7.380 -30.385  1.00  0.00    -0.226 N 
HETATM    9  C   UNL     1      -1.450   5.407 -31.320  1.00  0.00     0.027 A 
HETATM   10  N   UNL     1      -0.152   6.817 -30.187  1.00  0.00    -0.171 NA
HETATM   11  C   UNL     1      -0.199   5.602 -30.766  1.00  0.00     0.064 A 
HETATM   12  C   UNL     1       0.979   4.707 -30.752  1.00  0.00     0.073 C 
HETATM   13  C   UNL     1      -2.075   4.374 -32.011  1.00  0.00     0.041 A 
BRANCH   8  14
HETATM   14  C   UNL     1      -1.700   8.669 -29.852  1.00  0.00     0.059 A 
HETATM   15  C   UNL     1      -1.311   8.965 -28.534  1.00  0.00     0.031 A 
HETATM   16  C   UNL     1      -1.597  10.211 -27.970  1.00  0.00     0.002 A 
HETATM   17  C   UNL     1      -2.270  11.175 -28.715  1.00  0.00     0.000 A 
HETATM   18  C   UNL     1      -2.656  10.895 -30.023  1.00  0.00     0.002 A 
HETATM   19  C   UNL     1      -2.374   9.649 -30.592  1.00  0.00     0.031 A 
ENDBRANCH   8  14
ENDBRANCH   1   5
BRANCH   2  20
HETATM   20  N   UNL     1      -5.574   1.898 -33.105  1.00  0.00    -0.249 N 
HETATM   21  C   UNL     1      -5.108   0.591 -33.140  1.00  0.00     0.339 C 
HETATM   22  N   UNL     1      -5.903  -0.223 -33.913  1.00  0.00    -0.308 N 
HETATM   23  O   UNL     1      -4.110   0.264 -32.502  1.00  0.00    -0.245 OA
HETATM   24  H   UNL     1      -6.715   0.214 -34.324  1.00  0.00     0.170 HD
HETATM   25  H   UNL     1      -6.082   2.284 -33.897  1.00  0.00     0.192 HD
BRANCH  22  26
HETATM   26  C   UNL     1      -5.751  -1.608 -34.132  1.00  0.00     0.038 A 
HETATM   27  C   UNL     1      -4.593  -2.326 -33.821  1.00  0.00     0.053 A 
HETATM   28  C   UNL     1      -4.536  -3.702 -34.057  1.00  0.00     0.036 A 
HETATM   29 CL   UNL     1      -3.108  -4.579 -33.659  1.00  0.00    -0.084 Cl
HETATM   30  C   UNL     1      -5.623  -4.375 -34.609  1.00  0.00     0.024 A 
HETATM   31  C   UNL     1      -6.778  -3.667 -34.928  1.00  0.00     0.004 A 
HETATM   32  C   UNL     1      -6.841  -2.291 -34.689  1.00  0.00     0.029 A 
ENDBRANCH  22  26
ENDBRANCH   2  20
TORSDOF 4
ENDMDL
MODEL 3
REMARK VINA RESULT:      -8.9      2.908      4.067
REMARK  4 active torsions:
REMARK  status: ('A' for Active; 'I' for Inactive)
REMARK    1  A    between atoms: N_4  and  C_5 
REMARK    2  A    between atoms: C_14  and  C_15 
REMARK       I    between atoms: C_15  and  N_16 
REMARK    3  A    between atoms: N_16  and  N_17 
REMARK       I    between atoms: N_17  and  C_18 
REMARK       I    between atoms: C_18  and  N_19 
REMARK    4  A    between atoms: N_19  and  C_20 
ROOT
HETATM    1  C   UNL     1      -1.638   4.913 -31.199  1.00  0.00     0.277 C 
HETATM    2  N   UNL     1      -1.516   5.590 -30.002  1.00  0.00    -0.261 N 
HETATM    3  O   UNL     1      -0.663   4.732 -31.930  1.00  0.00    -0.265 OA
HETATM    4  H   UNL     1      -2.331   5.844 -29.443  1.00  0.00     0.190 HD
ENDROOT
BRANCH   1   5
HETATM    5  C   UNL     1      -2.980   4.444 -31.515  1.00  0.00     0.077 A 
HETATM    6  S   UNL     1      -3.230   2.995 -32.460  1.00  0.00    -0.064 SA
HETATM    7  C   UNL     1      -4.880   3.152 -32.321  1.00  0.00     0.113 A 
HETATM    8  N   UNL     1      -6.036   2.510 -32.689  1.00  0.00    -0.226 N 
HETATM    9  C   UNL     1      -5.232   4.234 -31.617  1.00  0.00     0.027 A 
HETATM   10  N   UNL     1      -7.126   3.235 -32.228  1.00  0.00    -0.171 NA
HETATM   11  C   UNL     1      -6.612   4.291 -31.569  1.00  0.00     0.064 A 
HETATM   12  C   UNL     1      -7.495   5.296 -30.937  1.00  0.00     0.073 C 
HETATM   13  C   UNL     1      -4.192   5.012 -31.118  1.00  0.00     0.041 A 
BRANCH   8  14
HETATM   14  C   UNL     1      -6.240   1.294 -33.405  1.00  0.00     0.059 A 
HETATM   15  C   UNL     1      -7.017   1.317 -34.577  1.00  0.00     0.031 A 
HETATM   16  C   UNL     1      -7.254   0.144 -35.297  1.00  0.00     0.002 A 
HETATM   17  C   UNL     1      -6.715  -1.063 -34.861  1.00  0.00     0.000 A 
HETATM   18  C   UNL     1      -5.940  -1.097 -33.705  1.00  0.00     0.002 A 
HETATM   19  C   UNL     1      -5.701   0.074 -32.978  1.00  0.00     0.031 A 
ENDBRANCH   8  14
ENDBRANCH   1   5
BRANCH   2  20
HETATM   20  N   UNL     1      -0.318   6.253 -29.682  1.00  0.00    -0.249 N 
HETATM   21  C   UNL     1      -0.350   7.016 -28.522  1.00  0.00     0.339 C 
HETATM   22  N   UNL     1       0.814   7.725 -28.336  1.00  0.00    -0.308 N 
HETATM   23  O   UNL     1      -1.327   6.985 -27.778  1.00  0.00    -0.245 OA
HETATM   24  H   UNL     1       1.531   7.587 -29.032  1.00  0.00     0.170 HD
HETATM   25  H   UNL     1       0.225   6.560 -30.484  1.00  0.00     0.192 HD
BRANCH  22  26
HETATM   26  C   UNL     1       1.140   8.562 -27.248  1.00  0.00     0.038 A 
HETATM   27  C   UNL     1       1.992   8.190 -26.204  1.00  0.00     0.053 A 
HETATM   28  C   UNL     1       2.273   9.091 -25.174  1.00  0.00     0.036 A 
HETATM   29 CL   UNL     1       3.333   8.626 -23.898  1.00  0.00    -0.084 Cl
HETATM   30  C   UNL     1       1.708  10.364 -25.167  1.00  0.00     0.024 A 
HETATM   31  C   UNL     1       0.854  10.741 -26.200  1.00  0.00     0.004 A 
HETATM   32  C   UNL     1       0.573   9.844 -27.235  1.00  0.00     0.029 A 
ENDBRANCH  22  26
ENDBRANCH   2  20
TORSDOF 4
ENDMDL
MODEL 4
REMARK VINA RESULT:      -8.8      2.112      2.819
REMARK  4 active torsions:
REMARK  status: ('A' for Active; 'I' for Inactive)
REMARK    1  A    between atoms: N_4  and  C_5 
REMARK    2  A    between atoms: C_14  and  C_15 
REMARK       I    between atoms: C_15  and  N_16 
REMARK    3  A    between atoms: N_16  and  N_17 
REMARK       I    between atoms: N_17  and  C_18 
REMARK       I    between atoms: C_18  and  N_19 
REMARK    4  A    between atoms: N_19  and  C_20 
ROOT
HETATM    1  C   UNL     1      -2.665   4.470 -31.233  1.00  0.00     0.277 C 
HETATM    2  N   UNL     1      -2.989   5.718 -30.740  1.00  0.00    -0.261 N 
HETATM    3  O   UNL     1      -1.495   4.156 -31.452  1.00  0.00    -0.265 OA
HETATM    4  H   UNL     1      -3.958   6.030 -30.660  1.00  0.00     0.190 HD
ENDROOT
BRANCH   1   5
HETATM    5  C   UNL     1      -3.795   3.580 -31.464  1.00  0.00     0.077 A 
HETATM    6  S   UNL     1      -3.616   2.125 -32.416  1.00  0.00    -0.064 SA
HETATM    7  C   UNL     1      -5.211   1.726 -32.161  1.00  0.00     0.113 A 
HETATM    8  N   UNL     1      -6.112   0.734 -32.461  1.00  0.00    -0.226 N 
HETATM    9  C   UNL     1      -5.851   2.633 -31.415  1.00  0.00     0.027 A 
HETATM   10  N   UNL     1      -7.344   1.058 -31.913  1.00  0.00    -0.171 NA
HETATM   11  C   UNL     1      -7.165   2.229 -31.271  1.00  0.00     0.064 A 
HETATM   12  C   UNL     1      -8.284   2.887 -30.562  1.00  0.00     0.073 C 
HETATM   13  C   UNL     1      -5.095   3.715 -30.975  1.00  0.00     0.041 A 
BRANCH   8  14
HETATM   14  C   UNL     1      -5.951  -0.485 -33.183  1.00  0.00     0.059 A 
HETATM   15  C   UNL     1      -7.055  -1.019 -33.870  1.00  0.00     0.031 A 
HETATM   16  C   UNL     1      -6.942  -2.219 -34.576  1.00  0.00     0.002 A 
HETATM   17  C   UNL     1      -5.727  -2.898 -34.607  1.00  0.00     0.000 A 
HETATM   18  C   UNL     1      -4.625  -2.376 -33.934  1.00  0.00     0.002 A 
HETATM   19  C   UNL     1      -4.733  -1.175 -33.224  1.00  0.00     0.031 A 
ENDBRANCH   8  14
ENDBRANCH   1   5
BRANCH   2  20
HETATM   20  N   UNL     1      -2.011   6.724 -30.659  1.00  0.00    -0.249 N 
HETATM   21  C   UNL     1      -1.610   7.066 -29.375  1.00  0.00     0.339 C 
HETATM   22  N   UNL     1      -0.740   8.132 -29.369  1.00  0.00    -0.308 N 
HETATM   23  O   UNL     1      -2.002   6.424 -28.404  1.00  0.00    -0.245 OA
HETATM   24  H   UNL     1      -0.492   8.504 -30.274  1.00  0.00     0.170 HD
HETATM   25  H   UNL     1      -2.069   7.433 -31.385  1.00  0.00     0.192 HD
BRANCH  22  26
HETATM   26  C   UNL     1      -0.105   8.711 -28.251  1.00  0.00     0.038 A 
HETATM   27  C   UNL     1      -0.677   9.709 -27.458  1.00  0.00     0.053 A 
HETATM   28  C   UNL     1       0.019  10.215 -26.357  1.00  0.00     0.036 A 
HETATM   29 CL   UNL     1      -0.700  11.438 -25.379  1.00  0.00    -0.084 Cl
HETATM   30  C   UNL     1       1.288   9.740 -26.037  1.00  0.00     0.024 A 
HETATM   31  C   UNL     1       1.868   8.750 -26.825  1.00  0.00     0.004 A 
HETATM   32  C   UNL     1       1.174   8.238 -27.926  1.00  0.00     0.029 A 
ENDBRANCH  22  26
ENDBRANCH   2  20
TORSDOF 4
ENDMDL
MODEL 5
REMARK VINA RESULT:      -8.7      1.795      2.489
REMARK  4 active torsions:
REMARK  status: ('A' for Active; 'I' for Inactive)
REMARK    1  A    between atoms: N_4  and  C_5 
REMARK    2  A    between atoms: C_14  and  C_15 
REMARK       I    between atoms: C_15  and  N_16 
REMARK    3  A    between atoms: N_16  and  N_17 
REMARK       I    between atoms: N_17  and  C_18 
REMARK       I    between atoms: C_18  and  N_19 
REMARK    4  A    between atoms: N_19  and  C_20 
ROOT
HETATM    1  C   UNL     1      -6.273   4.549 -32.275  1.00  0.00     0.277 C 
HETATM    2  N   UNL     1      -5.068   4.904 -32.848  1.00  0.00    -0.261 N 
HETATM    3  O   UNL     1      -6.859   5.311 -31.505  1.00  0.00    -0.265 OA
HETATM    4  H   UNL     1      -4.518   4.241 -33.396  1.00  0.00     0.190 HD
ENDROOT
BRANCH   1   5
HETATM    5  C   UNL     1      -6.778   3.236 -32.649  1.00  0.00     0.077 A 
HETATM    6  S   UNL     1      -5.685   1.927 -33.035  1.00  0.00    -0.064 SA
HETATM    7  C   UNL     1      -6.965   0.891 -33.280  1.00  0.00     0.113 A 
HETATM    8  N   UNL     1      -7.215  -0.419 -33.605  1.00  0.00    -0.226 N 
HETATM    9  C   UNL     1      -8.147   1.489 -33.097  1.00  0.00     0.027 A 
HETATM   10  N   UNL     1      -8.586  -0.621 -33.655  1.00  0.00    -0.171 NA
HETATM   11  C   UNL     1      -9.144   0.563 -33.338  1.00  0.00     0.064 A 
HETATM   12  C   UNL     1     -10.614   0.723 -33.294  1.00  0.00     0.073 C 
HETATM   13  C   UNL     1      -8.111   2.829 -32.725  1.00  0.00     0.041 A 
BRANCH   8  14
HETATM   14  C   UNL     1      -6.324  -1.503 -33.857  1.00  0.00     0.059 A 
HETATM   15  C   UNL     1      -5.035  -1.470 -33.294  1.00  0.00     0.031 A 
HETATM   16  C   UNL     1      -4.128  -2.505 -33.531  1.00  0.00     0.002 A 
HETATM   17  C   UNL     1      -4.496  -3.586 -34.328  1.00  0.00     0.000 A 
HETATM   18  C   UNL     1      -5.770  -3.632 -34.886  1.00  0.00     0.002 A 
HETATM   19  C   UNL     1      -6.682  -2.597 -34.654  1.00  0.00     0.031 A 
ENDBRANCH   8  14
ENDBRANCH   1   5
BRANCH   2  20
HETATM   20  N   UNL     1      -4.390   6.057 -32.416  1.00  0.00    -0.249 N 
HETATM   21  C   UNL     1      -3.347   5.838 -31.525  1.00  0.00     0.339 C 
HETATM   22  N   UNL     1      -2.808   7.015 -31.059  1.00  0.00    -0.308 N 
HETATM   23  O   UNL     1      -2.982   4.697 -31.256  1.00  0.00    -0.245 OA
HETATM   24  H   UNL     1      -3.210   7.863 -31.431  1.00  0.00     0.170 HD
HETATM   25  H   UNL     1      -4.971   6.886 -32.334  1.00  0.00     0.192 HD
BRANCH  22  26
HETATM   26  C   UNL     1      -1.715   7.165 -30.180  1.00  0.00     0.038 A 
HETATM   27  C   UNL     1      -1.842   7.420 -28.812  1.00  0.00     0.053 A 
HETATM   28  C   UNL     1      -0.703   7.538 -28.012  1.00  0.00     0.036 A 
HETATM   29 CL   UNL     1      -0.871   7.841 -26.325  1.00  0.00    -0.084 Cl
HETATM   30  C   UNL     1       0.570   7.411 -28.563  1.00  0.00     0.024 A 
HETATM   31  C   UNL     1       0.706   7.163 -29.926  1.00  0.00     0.004 A 
HETATM   32  C   UNL     1      -0.432   7.040 -30.729  1.00  0.00     0.029 A 
ENDBRANCH  22  26
ENDBRANCH   2  20
TORSDOF 4
ENDMDL
MODEL 6
REMARK VINA RESULT:      -8.6      3.936     10.616
REMARK  4 active torsions:
REMARK  status: ('A' for Active; 'I' for Inactive)
REMARK    1  A    between atoms: N_4  and  C_5 
REMARK    2  A    between atoms: C_14  and  C_15 
REMARK       I    between atoms: C_15  and  N_16 
REMARK    3  A    between atoms: N_16  and  N_17 
REMARK       I    between atoms: N_17  and  C_18 
REMARK       I    between atoms: C_18  and  N_19 
REMARK    4  A    between atoms: N_19  and  C_20 
ROOT
HETATM    1  C   UNL     1      -6.451   3.246 -32.130  1.00  0.00     0.277 C 
HETATM    2  N   UNL     1      -5.554   2.478 -32.845  1.00  0.00    -0.261 N 
HETATM    3  O   UNL     1      -7.656   2.994 -32.143  1.00  0.00    -0.265 OA
HETATM    4  H   UNL     1      -4.572   2.742 -32.933  1.00  0.00     0.190 HD
ENDROOT
BRANCH   1   5
HETATM    5  C   UNL     1      -5.866   4.348 -31.379  1.00  0.00     0.077 A 
HETATM    6  S   UNL     1      -4.133   4.516 -31.227  1.00  0.00    -0.064 SA
HETATM    7  C   UNL     1      -4.315   5.915 -30.344  1.00  0.00     0.113 A 
HETATM    8  N   UNL     1      -3.558   6.885 -29.736  1.00  0.00    -0.226 N 
HETATM    9  C   UNL     1      -5.599   6.238 -30.160  1.00  0.00     0.027 A 
HETATM   10  N   UNL     1      -4.400   7.808 -29.134  1.00  0.00    -0.171 NA
HETATM   11  C   UNL     1      -5.653   7.396 -29.407  1.00  0.00     0.064 A 
HETATM   12  C   UNL     1      -6.827   8.149 -28.913  1.00  0.00     0.073 C 
HETATM   13  C   UNL     1      -6.539   5.388 -30.735  1.00  0.00     0.041 A 
BRANCH   8  14
HETATM   14  C   UNL     1      -2.144   7.057 -29.667  1.00  0.00     0.059 A 
HETATM   15  C   UNL     1      -1.580   7.582 -28.490  1.00  0.00     0.031 A 
HETATM   16  C   UNL     1      -0.201   7.781 -28.389  1.00  0.00     0.002 A 
HETATM   17  C   UNL     1       0.631   7.456 -29.457  1.00  0.00     0.000 A 
HETATM   18  C   UNL     1       0.084   6.932 -30.625  1.00  0.00     0.002 A 
HETATM   19  C   UNL     1      -1.297   6.732 -30.733  1.00  0.00     0.031 A 
ENDBRANCH   8  14
ENDBRANCH   1   5
BRANCH   2  20
HETATM   20  N   UNL     1      -6.016   1.512 -33.755  1.00  0.00    -0.249 N 
HETATM   21  C   UNL     1      -5.625   0.206 -33.490  1.00  0.00     0.339 C 
HETATM   22  N   UNL     1      -6.015  -0.663 -34.482  1.00  0.00    -0.308 N 
HETATM   23  O   UNL     1      -5.031  -0.071 -32.452  1.00  0.00    -0.245 OA
HETATM   24  H   UNL     1      -6.542  -0.258 -35.243  1.00  0.00     0.170 HD
HETATM   25  H   UNL     1      -6.102   1.838 -34.714  1.00  0.00     0.192 HD
BRANCH  22  26
HETATM   26  C   UNL     1      -5.825  -2.060 -34.518  1.00  0.00     0.038 A 
HETATM   27  C   UNL     1      -4.633  -2.696 -34.162  1.00  0.00     0.053 A 
HETATM   28  C   UNL     1      -4.539  -4.089 -34.212  1.00  0.00     0.036 A 
HETATM   29 CL   UNL     1      -3.067  -4.863 -33.761  1.00  0.00    -0.084 Cl
HETATM   30  C   UNL     1      -5.623  -4.862 -34.619  1.00  0.00     0.024 A 
HETATM   31  C   UNL     1      -6.813  -4.237 -34.981  1.00  0.00     0.004 A 
HETATM   32  C   UNL     1      -6.913  -2.843 -34.929  1.00  0.00     0.029 A 
ENDBRANCH  22  26
ENDBRANCH   2  20
TORSDOF 4
ENDMDL
MODEL 7
REMARK VINA RESULT:      -8.5      3.812      4.717
REMARK  4 active torsions:
REMARK  status: ('A' for Active; 'I' for Inactive)
REMARK    1  A    between atoms: N_4  and  C_5 
REMARK    2  A    between atoms: C_14  and  C_15 
REMARK       I    between atoms: C_15  and  N_16 
REMARK    3  A    between atoms: N_16  and  N_17 
REMARK       I    between atoms: N_17  and  C_18 
REMARK       I    between atoms: C_18  and  N_19 
REMARK    4  A    between atoms: N_19  and  C_20 
ROOT
HETATM    1  C   UNL     1      -6.871   5.345 -28.335  1.00  0.00     0.277 C 
HETATM    2  N   UNL     1      -5.602   4.902 -28.020  1.00  0.00    -0.261 N 
HETATM    3  O   UNL     1      -7.398   6.263 -27.706  1.00  0.00    -0.265 OA
HETATM    4  H   UNL     1      -5.199   4.072 -28.457  1.00  0.00     0.190 HD
ENDROOT
BRANCH   1   5
HETATM    5  C   UNL     1      -7.515   4.654 -29.443  1.00  0.00     0.077 A 
HETATM    6  S   UNL     1      -6.675   3.410 -30.339  1.00  0.00    -0.064 SA
HETATM    7  C   UNL     1      -8.013   3.151 -31.293  1.00  0.00     0.113 A 
HETATM    8  N   UNL     1      -8.435   2.349 -32.324  1.00  0.00    -0.226 N 
HETATM    9  C   UNL     1      -9.032   3.956 -30.972  1.00  0.00     0.027 A 
HETATM   10  N   UNL     1      -9.734   2.694 -32.666  1.00  0.00    -0.171 NA
HETATM   11  C   UNL     1     -10.087   3.683 -31.822  1.00  0.00     0.064 A 
HETATM   12  C   UNL     1     -11.426   4.308 -31.899  1.00  0.00     0.073 C 
HETATM   13  C   UNL     1      -8.816   4.834 -29.915  1.00  0.00     0.041 A 
BRANCH   8  14
HETATM   14  C   UNL     1      -7.773   1.291 -33.013  1.00  0.00     0.059 A 
HETATM   15  C   UNL     1      -7.756   1.300 -34.419  1.00  0.00     0.031 A 
HETATM   16  C   UNL     1      -7.132   0.273 -35.131  1.00  0.00     0.002 A 
HETATM   17  C   UNL     1      -6.516  -0.773 -34.449  1.00  0.00     0.000 A 
HETATM   18  C   UNL     1      -6.522  -0.791 -33.057  1.00  0.00     0.002 A 
HETATM   19  C   UNL     1      -7.147   0.235 -32.339  1.00  0.00     0.031 A 
ENDBRANCH   8  14
ENDBRANCH   1   5
BRANCH   2  20
HETATM   20  N   UNL     1      -4.961   5.357 -26.855  1.00  0.00    -0.249 N 
HETATM   21  C   UNL     1      -3.961   6.301 -27.053  1.00  0.00     0.339 C 
HETATM   22  N   UNL     1      -3.303   6.611 -25.886  1.00  0.00    -0.308 N 
HETATM   23  O   UNL     1      -3.767   6.783 -28.166  1.00  0.00    -0.245 OA
HETATM   24  H   UNL     1      -3.636   6.146 -25.054  1.00  0.00     0.170 HD
HETATM   25  H   UNL     1      -4.873   4.662 -26.119  1.00  0.00     0.192 HD
BRANCH  22  26
HETATM   26  C   UNL     1      -2.269   7.555 -25.713  1.00  0.00     0.038 A 
HETATM   27  C   UNL     1      -0.987   7.418 -26.252  1.00  0.00     0.053 A 
HETATM   28  C   UNL     1      -0.029   8.413 -26.043  1.00  0.00     0.036 A 
HETATM   29 CL   UNL     1       1.545   8.240 -26.721  1.00  0.00    -0.084 Cl
HETATM   30  C   UNL     1      -0.332   9.548 -25.294  1.00  0.00     0.024 A 
HETATM   31  C   UNL     1      -1.604   9.690 -24.749  1.00  0.00     0.004 A 
HETATM   32  C   UNL     1      -2.568   8.699 -24.958  1.00  0.00     0.029 A 
ENDBRANCH  22  26
ENDBRANCH   2  20
TORSDOF 4
ENDMDL
MODEL 8
REMARK VINA RESULT:      -8.5      4.347     11.770
REMARK  4 active torsions:
REMARK  status: ('A' for Active; 'I' for Inactive)
REMARK    1  A    between atoms: N_4  and  C_5 
REMARK    2  A    between atoms: C_14  and  C_15 
REMARK       I    between atoms: C_15  and  N_16 
REMARK    3  A    between atoms: N_16  and  N_17 
REMARK       I    between atoms: N_17  and  C_18 
REMARK       I    between atoms: C_18  and  N_19 
REMARK    4  A    between atoms: N_19  and  C_20 
ROOT
HETATM    1  C   UNL     1      -0.702   5.385 -30.187  1.00  0.00     0.277 C 
HETATM    2  N   UNL     1      -1.932   5.105 -30.750  1.00  0.00    -0.261 N 
HETATM    3  O   UNL     1       0.273   4.664 -30.399  1.00  0.00    -0.265 OA
HETATM    4  H   UNL     1      -2.771   5.626 -30.494  1.00  0.00     0.190 HD
ENDROOT
BRANCH   1   5
HETATM    5  C   UNL     1      -0.660   6.573 -29.347  1.00  0.00     0.077 A 
HETATM    6  S   UNL     1       0.317   6.617 -27.898  1.00  0.00    -0.064 SA
HETATM    7  C   UNL     1      -0.135   8.191 -27.604  1.00  0.00     0.113 A 
HETATM    8  N   UNL     1       0.090   9.204 -26.705  1.00  0.00    -0.226 N 
HETATM    9  C   UNL     1      -0.980   8.660 -28.528  1.00  0.00     0.027 A 
HETATM   10  N   UNL     1      -0.662  10.311 -27.069  1.00  0.00    -0.171 NA
HETATM   11  C   UNL     1      -1.313   9.959 -28.195  1.00  0.00     0.064 A 
HETATM   12  C   UNL     1      -2.225  10.906 -28.874  1.00  0.00     0.073 C 
HETATM   13  C   UNL     1      -1.314   7.788 -29.560  1.00  0.00     0.041 A 
BRANCH   8  14
HETATM   14  C   UNL     1       0.936   9.262 -25.559  1.00  0.00     0.059 A 
HETATM   15  C   UNL     1       0.434   9.821 -24.370  1.00  0.00     0.031 A 
HETATM   16  C   UNL     1       1.237   9.911 -23.231  1.00  0.00     0.002 A 
HETATM   17  C   UNL     1       2.547   9.442 -23.262  1.00  0.00     0.000 A 
HETATM   18  C   UNL     1       3.054   8.883 -24.432  1.00  0.00     0.002 A 
HETATM   19  C   UNL     1       2.255   8.792 -25.577  1.00  0.00     0.031 A 
ENDBRANCH   8  14
ENDBRANCH   1   5
BRANCH   2  20
HETATM   20  N   UNL     1      -2.144   3.887 -31.419  1.00  0.00    -0.249 N 
HETATM   21  C   UNL     1      -3.451   3.418 -31.405  1.00  0.00     0.339 C 
HETATM   22  N   UNL     1      -3.560   2.171 -31.975  1.00  0.00    -0.308 N 
HETATM   23  O   UNL     1      -4.359   4.107 -30.949  1.00  0.00    -0.245 OA
HETATM   24  H   UNL     1      -2.707   1.777 -32.343  1.00  0.00     0.170 HD
HETATM   25  H   UNL     1      -1.364   3.237 -31.376  1.00  0.00     0.192 HD
BRANCH  22  26
HETATM   26  C   UNL     1      -4.738   1.419 -32.167  1.00  0.00     0.038 A 
HETATM   27  C   UNL     1      -5.574   1.547 -33.280  1.00  0.00     0.053 A 
HETATM   28  C   UNL     1      -6.714   0.748 -33.395  1.00  0.00     0.036 A 
HETATM   29 CL   UNL     1      -7.732   0.906 -34.777  1.00  0.00    -0.084 Cl
HETATM   30  C   UNL     1      -7.038  -0.179 -32.408  1.00  0.00     0.024 A 
HETATM   31  C   UNL     1      -6.214  -0.309 -31.294  1.00  0.00     0.004 A 
HETATM   32  C   UNL     1      -5.070   0.485 -31.175  1.00  0.00     0.029 A 
ENDBRANCH  22  26
ENDBRANCH   2  20
TORSDOF 4
ENDMDL
MODEL 9
REMARK VINA RESULT:      -8.4      6.643      9.716
REMARK  4 active torsions:
REMARK  status: ('A' for Active; 'I' for Inactive)
REMARK    1  A    between atoms: N_4  and  C_5 
REMARK    2  A    between atoms: C_14  and  C_15 
REMARK       I    between atoms: C_15  and  N_16 
REMARK    3  A    between atoms: N_16  and  N_17 
REMARK       I    between atoms: N_17  and  C_18 
REMARK       I    between atoms: C_18  and  N_19 
REMARK    4  A    between atoms: N_19  and  C_20 
ROOT
HETATM    1  C   UNL     1     -10.598   2.694 -33.223  1.00  0.00     0.277 C 
HETATM    2  N   UNL     1     -11.821   2.259 -32.751  1.00  0.00    -0.261 N 
HETATM    3  O   UNL     1     -10.506   3.718 -33.900  1.00  0.00    -0.265 OA
HETATM    4  H   UNL     1     -11.928   1.356 -32.287  1.00  0.00     0.190 HD
ENDROOT
BRANCH   1   5
HETATM    5  C   UNL     1      -9.460   1.861 -32.860  1.00  0.00     0.077 A 
HETATM    6  S   UNL     1      -8.977   0.510 -33.859  1.00  0.00    -0.064 SA
HETATM    7  C   UNL     1      -7.703   0.175 -32.842  1.00  0.00     0.113 A 
HETATM    8  N   UNL     1      -6.651  -0.698 -32.721  1.00  0.00    -0.226 N 
HETATM    9  C   UNL     1      -7.644   1.016 -31.804  1.00  0.00     0.027 A 
HETATM   10  N   UNL     1      -5.949  -0.407 -31.561  1.00  0.00    -0.171 NA
HETATM   11  C   UNL     1      -6.573   0.653 -31.010  1.00  0.00     0.064 A 
HETATM   12  C   UNL     1      -6.092   1.244 -29.742  1.00  0.00     0.073 C 
HETATM   13  C   UNL     1      -8.615   2.012 -31.759  1.00  0.00     0.041 A 
BRANCH   8  14
HETATM   14  C   UNL     1      -6.218  -1.760 -33.569  1.00  0.00     0.059 A 
HETATM   15  C   UNL     1      -4.840  -1.952 -33.768  1.00  0.00     0.031 A 
HETATM   16  C   UNL     1      -4.376  -2.971 -34.604  1.00  0.00     0.002 A 
HETATM   17  C   UNL     1      -5.281  -3.811 -35.248  1.00  0.00     0.000 A 
HETATM   18  C   UNL     1      -6.648  -3.633 -35.054  1.00  0.00     0.002 A 
HETATM   19  C   UNL     1      -7.118  -2.613 -34.220  1.00  0.00     0.031 A 
ENDBRANCH   8  14
ENDBRANCH   1   5
BRANCH   2  20
HETATM   20  N   UNL     1     -13.009   2.868 -33.194  1.00  0.00    -0.249 N 
HETATM   21  C   UNL     1     -13.865   3.304 -32.193  1.00  0.00     0.339 C 
HETATM   22  N   UNL     1     -15.053   3.781 -32.697  1.00  0.00    -0.308 N 
HETATM   23  O   UNL     1     -13.521   3.268 -31.014  1.00  0.00    -0.245 OA
HETATM   24  H   UNL     1     -15.139   3.777 -33.703  1.00  0.00     0.170 HD
HETATM   25  H   UNL     1     -13.381   2.492 -34.062  1.00  0.00     0.192 HD
BRANCH  22  26
HETATM   26  C   UNL     1     -16.127   4.340 -31.973  1.00  0.00     0.038 A 
HETATM   27  C   UNL     1     -16.051   5.544 -31.268  1.00  0.00     0.053 A 
HETATM   28  C   UNL     1     -17.171   6.031 -30.591  1.00  0.00     0.036 A 
HETATM   29 CL   UNL     1     -17.070   7.523 -29.733  1.00  0.00    -0.084 Cl
HETATM   30  C   UNL     1     -18.372   5.327 -30.602  1.00  0.00     0.024 A 
HETATM   31  C   UNL     1     -18.455   4.124 -31.297  1.00  0.00     0.004 A 
HETATM   32  C   UNL     1     -17.338   3.634 -31.979  1.00  0.00     0.029 A 
ENDBRANCH  22  26
ENDBRANCH   2  20
TORSDOF 4
ENDMDL
MODEL 10
REMARK VINA RESULT:      -8.4      3.732     11.253
REMARK  4 active torsions:
REMARK  status: ('A' for Active; 'I' for Inactive)
REMARK    1  A    between atoms: N_4  and  C_5 
REMARK    2  A    between atoms: C_14  and  C_15 
REMARK       I    between atoms: C_15  and  N_16 
REMARK    3  A    between atoms: N_16  and  N_17 
REMARK       I    between atoms: N_17  and  C_18 
REMARK       I    between atoms: C_18  and  N_19 
REMARK    4  A    between atoms: N_19  and  C_20 
ROOT
HETATM    1  C   UNL     1      -2.032   4.814 -31.466  1.00  0.00     0.277 C 
HETATM    2  N   UNL     1      -2.981   3.935 -30.982  1.00  0.00    -0.261 N 
HETATM    3  O   UNL     1      -1.354   4.536 -32.456  1.00  0.00    -0.265 OA
HETATM    4  H   UNL     1      -3.468   4.102 -30.101  1.00  0.00     0.190 HD
ENDROOT
BRANCH   1   5
HETATM    5  C   UNL     1      -1.906   6.062 -30.727  1.00  0.00     0.077 A 
HETATM    6  S   UNL     1      -0.826   6.194 -29.359  1.00  0.00    -0.064 SA
HETATM    7  C   UNL     1      -1.226   7.797 -29.159  1.00  0.00     0.113 A 
HETATM    8  N   UNL     1      -0.917   8.870 -28.361  1.00  0.00    -0.226 N 
HETATM    9  C   UNL     1      -2.127   8.213 -30.056  1.00  0.00     0.027 A 
HETATM   10  N   UNL     1      -1.673   9.964 -28.757  1.00  0.00    -0.171 NA
HETATM   11  C   UNL     1      -2.410   9.542 -29.803  1.00  0.00     0.064 A 
HETATM   12  C   UNL     1      -3.350  10.456 -30.489  1.00  0.00     0.073 C 
HETATM   13  C   UNL     1      -2.550   7.272 -30.989  1.00  0.00     0.041 A 
BRANCH   8  14
HETATM   14  C   UNL     1       0.010   8.996 -27.285  1.00  0.00     0.059 A 
HETATM   15  C   UNL     1       1.319   8.510 -27.455  1.00  0.00     0.031 A 
HETATM   16  C   UNL     1       2.252   8.600 -26.420  1.00  0.00     0.002 A 
HETATM   17  C   UNL     1       1.892   9.178 -25.205  1.00  0.00     0.000 A 
HETATM   18  C   UNL     1       0.601   9.667 -25.027  1.00  0.00     0.002 A 
HETATM   19  C   UNL     1      -0.338   9.578 -26.060  1.00  0.00     0.031 A 
ENDBRANCH   8  14
ENDBRANCH   1   5
BRANCH   2  20
HETATM   20  N   UNL     1      -3.060   2.627 -31.490  1.00  0.00    -0.249 N 
HETATM   21  C   UNL     1      -4.309   2.243 -31.959  1.00  0.00     0.339 C 
HETATM   22  N   UNL     1      -4.339   0.919 -32.331  1.00  0.00    -0.308 N 
HETATM   23  O   UNL     1      -5.227   3.056 -32.035  1.00  0.00    -0.245 OA
HETATM   24  H   UNL     1      -3.469   0.416 -32.243  1.00  0.00     0.170 HD
HETATM   25  H   UNL     1      -2.455   1.953 -31.027  1.00  0.00     0.192 HD
BRANCH  22  26
HETATM   26  C   UNL     1      -5.425   0.212 -32.889  1.00  0.00     0.038 A 
HETATM   27  C   UNL     1      -6.761   0.439 -32.550  1.00  0.00     0.053 A 
HETATM   28  C   UNL     1      -7.776  -0.298 -33.165  1.00  0.00     0.036 A 
HETATM   29 CL   UNL     1      -9.421  -0.002 -32.748  1.00  0.00    -0.084 Cl
HETATM   30  C   UNL     1      -7.474  -1.270 -34.116  1.00  0.00     0.024 A 
HETATM   31  C   UNL     1      -6.145  -1.507 -34.455  1.00  0.00     0.004 A 
HETATM   32  C   UNL     1      -5.127  -0.769 -33.845  1.00  0.00     0.029 A 
ENDBRANCH  22  26
ENDBRANCH   2  20
TORSDOF 4
ENDMDL
