MODEL 1
REMARK VINA RESULT:      -9.5      0.000      0.000
REMARK  3 active torsions:
REMARK  status: ('A' for Active; 'I' for Inactive)
REMARK    1  A    between atoms: C_5  and  C_6 
REMARK    2  A    between atoms: C_6  and  O_7 
REMARK       I    between atoms: N_10  and  C_11 
REMARK       I    between atoms: C_11  and  N_12 
REMARK    3  A    between atoms: N_12  and  C_13 
ROOT
HETATM    1  C   UNL     1      -2.882   6.201 -31.966  1.00  0.00     0.105 C 
HETATM    2  C   UNL     1      -2.487   5.100 -32.969  1.00  0.00     0.064 C 
HETATM    3  C   UNL     1      -2.607   3.705 -32.368  1.00  0.00     0.131 C 
HETATM    4  N   UNL     1      -3.948   3.473 -31.820  1.00  0.00    -0.334 N 
HETATM    5  C   UNL     1      -4.745   2.339 -32.003  1.00  0.00     0.322 C 
HETATM    6  N   UNL     1      -4.174   1.334 -32.749  1.00  0.00    -0.309 N 
HETATM    7  O   UNL     1      -5.873   2.274 -31.517  1.00  0.00    -0.247 OA
HETATM    8  C   UNL     1      -4.426   4.494 -30.889  1.00  0.00     0.131 C 
HETATM    9  C   UNL     1      -4.302   5.901 -31.466  1.00  0.00     0.064 C 
HETATM   10  H   UNL     1      -3.170   1.331 -32.797  1.00  0.00     0.170 HD
ENDROOT
BRANCH   6  11
HETATM   11  C   UNL     1      -4.804   0.175 -33.255  1.00  0.00     0.037 A 
HETATM   12  C   UNL     1      -4.137  -1.038 -33.474  1.00  0.00     0.039 A 
HETATM   13  C   UNL     1      -4.863  -2.112 -33.963  1.00  0.00    -0.021 A 
HETATM   14  C   UNL     1      -6.225  -1.997 -34.220  1.00  0.00     0.041 A 
HETATM   15  C   UNL     1      -4.409  -3.503 -34.293  1.00  0.00     0.144 A 
HETATM   16  N   UNL     1      -6.715  -3.203 -34.693  1.00  0.00    -0.326 N 
HETATM   17  C   UNL     1      -6.918  -0.828 -34.007  1.00  0.00     0.032 A 
HETATM   18  C   UNL     1      -5.709  -4.159 -34.772  1.00  0.00     0.226 A 
HETATM   19  H   UNL     1      -7.670  -3.394 -34.954  1.00  0.00     0.169 HD
HETATM   20  O   UNL     1      -5.851  -5.308 -35.153  1.00  0.00    -0.273 OA
HETATM   21  C   UNL     1      -6.191   0.265 -33.520  1.00  0.00     0.032 A 
ENDBRANCH   6  11
BRANCH   1  22
HETATM   22  C   UNL     1      -1.797   6.415 -30.906  1.00  0.00     0.068 A 
HETATM   23  N   UNL     1      -2.239   6.903 -29.715  1.00  0.00    -0.262 NA
HETATM   24  C   UNL     1      -1.348   7.040 -28.706  1.00  0.00     0.123 A 
HETATM   25  C   UNL     1      -0.005   6.710 -28.805  1.00  0.00    -0.044 A 
HETATM   26  C   UNL     1       0.920   6.841 -27.638  1.00  0.00     0.049 C 
HETATM   27  C   UNL     1       0.429   6.178 -30.016  1.00  0.00     0.010 A 
HETATM   28  C   UNL     1      -0.470   6.023 -31.072  1.00  0.00     0.031 A 
ENDBRANCH   1  22
BRANCH   1  29
HETATM   29  O   UNL     1      -2.949   7.433 -32.715  1.00  0.00    -0.383 OA
HETATM   30  H   UNL     1      -2.426   7.273 -33.525  1.00  0.00     0.211 HD
ENDBRANCH   1  29
TORSDOF 3
ENDMDL
MODEL 2
REMARK VINA RESULT:      -9.1      1.500      2.170
REMARK  3 active torsions:
REMARK  status: ('A' for Active; 'I' for Inactive)
REMARK    1  A    between atoms: C_5  and  C_6 
REMARK    2  A    between atoms: C_6  and  O_7 
REMARK       I    between atoms: N_10  and  C_11 
REMARK       I    between atoms: C_11  and  N_12 
REMARK    3  A    between atoms: N_12  and  C_13 
ROOT
HETATM    1  C   UNL     1      -2.053   7.196 -31.743  1.00  0.00     0.105 C 
HETATM    2  C   UNL     1      -1.434   5.930 -32.369  1.00  0.00     0.064 C 
HETATM    3  C   UNL     1      -1.770   4.674 -31.576  1.00  0.00     0.131 C 
HETATM    4  N   UNL     1      -3.218   4.527 -31.393  1.00  0.00    -0.334 N 
HETATM    5  C   UNL     1      -3.974   3.366 -31.577  1.00  0.00     0.322 C 
HETATM    6  N   UNL     1      -3.255   2.247 -31.930  1.00  0.00    -0.309 N 
HETATM    7  O   UNL     1      -5.194   3.374 -31.425  1.00  0.00    -0.247 OA
HETATM    8  C   UNL     1      -3.899   5.699 -30.843  1.00  0.00     0.131 C 
HETATM    9  C   UNL     1      -3.567   6.972 -31.615  1.00  0.00     0.064 C 
HETATM   10  H   UNL     1      -2.278   2.252 -31.692  1.00  0.00     0.170 HD
ENDROOT
BRANCH   6  11
HETATM   11  C   UNL     1      -3.761   1.002 -32.366  1.00  0.00     0.037 A 
HETATM   12  C   UNL     1      -4.875   0.868 -33.206  1.00  0.00     0.039 A 
HETATM   13  C   UNL     1      -5.273  -0.406 -33.578  1.00  0.00    -0.021 A 
HETATM   14  C   UNL     1      -4.577  -1.528 -33.141  1.00  0.00     0.041 A 
HETATM   15  C   UNL     1      -6.417  -0.836 -34.446  1.00  0.00     0.144 A 
HETATM   16  N   UNL     1      -5.166  -2.672 -33.652  1.00  0.00    -0.326 N 
HETATM   17  C   UNL     1      -3.472  -1.438 -32.326  1.00  0.00     0.032 A 
HETATM   18  C   UNL     1      -6.269  -2.362 -34.440  1.00  0.00     0.226 A 
HETATM   19  H   UNL     1      -4.860  -3.620 -33.493  1.00  0.00     0.169 HD
HETATM   20  O   UNL     1      -6.979  -3.168 -35.017  1.00  0.00    -0.273 OA
HETATM   21  C   UNL     1      -3.067  -0.155 -31.939  1.00  0.00     0.032 A 
ENDBRANCH   6  11
BRANCH   1  22
HETATM   22  C   UNL     1      -1.300   7.626 -30.481  1.00  0.00     0.068 A 
HETATM   23  N   UNL     1      -0.054   7.096 -30.340  1.00  0.00    -0.262 NA
HETATM   24  C   UNL     1       0.699   7.496 -29.289  1.00  0.00     0.123 A 
HETATM   25  C   UNL     1       0.285   8.419 -28.342  1.00  0.00    -0.044 A 
HETATM   26  C   UNL     1       1.183   8.855 -27.230  1.00  0.00     0.049 C 
HETATM   27  C   UNL     1      -0.977   8.981 -28.515  1.00  0.00     0.010 A 
HETATM   28  C   UNL     1      -1.774   8.590 -29.592  1.00  0.00     0.031 A 
ENDBRANCH   1  22
BRANCH   1  29
HETATM   29  O   UNL     1      -1.862   8.261 -32.698  1.00  0.00    -0.383 OA
HETATM   30  H   UNL     1      -2.742   8.674 -32.805  1.00  0.00     0.211 HD
ENDBRANCH   1  29
TORSDOF 3
ENDMDL
MODEL 3
REMARK VINA RESULT:      -8.7      5.548      7.215
REMARK  3 active torsions:
REMARK  status: ('A' for Active; 'I' for Inactive)
REMARK    1  A    between atoms: C_5  and  C_6 
REMARK    2  A    between atoms: C_6  and  O_7 
REMARK       I    between atoms: N_10  and  C_11 
REMARK       I    between atoms: C_11  and  N_12 
REMARK    3  A    between atoms: N_12  and  C_13 
ROOT
HETATM    1  C   UNL     1      -5.690   4.052 -30.936  1.00  0.00     0.105 C 
HETATM    2  C   UNL     1      -6.978   4.815 -31.302  1.00  0.00     0.064 C 
HETATM    3  C   UNL     1      -7.705   4.183 -32.481  1.00  0.00     0.131 C 
HETATM    4  N   UNL     1      -7.976   2.760 -32.242  1.00  0.00    -0.334 N 
HETATM    5  C   UNL     1      -9.178   2.085 -32.467  1.00  0.00     0.322 C 
HETATM    6  N   UNL     1     -10.189   2.849 -33.003  1.00  0.00    -0.309 N 
HETATM    7  O   UNL     1      -9.294   0.891 -32.195  1.00  0.00    -0.247 OA
HETATM    8  C   UNL     1      -6.815   1.963 -31.846  1.00  0.00     0.131 C 
HETATM    9  C   UNL     1      -6.063   2.586 -30.673  1.00  0.00     0.064 C 
HETATM   10  H   UNL     1      -9.906   3.677 -33.498  1.00  0.00     0.170 HD
ENDROOT
BRANCH   6  11
HETATM   11  C   UNL     1     -11.549   2.495 -33.152  1.00  0.00     0.037 A 
HETATM   12  C   UNL     1     -12.583   3.042 -32.380  1.00  0.00     0.039 A 
HETATM   13  C   UNL     1     -13.881   2.626 -32.624  1.00  0.00    -0.021 A 
HETATM   14  C   UNL     1     -14.159   1.697 -33.620  1.00  0.00     0.041 A 
HETATM   15  C   UNL     1     -15.158   3.034 -31.952  1.00  0.00     0.144 A 
HETATM   16  N   UNL     1     -15.521   1.455 -33.667  1.00  0.00    -0.326 N 
HETATM   17  C   UNL     1     -13.174   1.146 -34.407  1.00  0.00     0.032 A 
HETATM   18  C   UNL     1     -16.199   2.203 -32.712  1.00  0.00     0.226 A 
HETATM   19  H   UNL     1     -15.990   0.824 -34.300  1.00  0.00     0.169 HD
HETATM   20  O   UNL     1     -17.404   2.192 -32.526  1.00  0.00    -0.273 OA
HETATM   21  C   UNL     1     -11.858   1.554 -34.163  1.00  0.00     0.032 A 
ENDBRANCH   6  11
BRANCH   1  22
HETATM   22  C   UNL     1      -4.570   4.319 -31.946  1.00  0.00     0.068 A 
HETATM   23  N   UNL     1      -4.699   5.468 -32.665  1.00  0.00    -0.262 NA
HETATM   24  C   UNL     1      -3.705   5.807 -33.518  1.00  0.00     0.123 A 
HETATM   25  C   UNL     1      -2.554   5.059 -33.707  1.00  0.00    -0.044 A 
HETATM   26  C   UNL     1      -1.469   5.513 -34.631  1.00  0.00     0.049 C 
HETATM   27  C   UNL     1      -2.415   3.905 -32.941  1.00  0.00     0.010 A 
HETATM   28  C   UNL     1      -3.424   3.533 -32.051  1.00  0.00     0.031 A 
ENDBRANCH   1  22
BRANCH   1  29
HETATM   29  O   UNL     1      -5.229   4.602 -29.683  1.00  0.00    -0.383 OA
HETATM   30  H   UNL     1      -6.007   4.586 -29.091  1.00  0.00     0.211 HD
ENDBRANCH   1  29
TORSDOF 3
ENDMDL
MODEL 4
REMARK VINA RESULT:      -8.7      2.487      9.783
REMARK  3 active torsions:
REMARK  status: ('A' for Active; 'I' for Inactive)
REMARK    1  A    between atoms: C_5  and  C_6 
REMARK    2  A    between atoms: C_6  and  O_7 
REMARK       I    between atoms: N_10  and  C_11 
REMARK       I    between atoms: C_11  and  N_12 
REMARK    3  A    between atoms: N_12  and  C_13 
ROOT
HETATM    1  C   UNL     1      -6.929   2.894 -32.794  1.00  0.00     0.105 C 
HETATM    2  C   UNL     1      -6.268   2.989 -31.405  1.00  0.00     0.064 C 
HETATM    3  C   UNL     1      -4.748   3.030 -31.494  1.00  0.00     0.131 C 
HETATM    4  N   UNL     1      -4.293   4.110 -32.378  1.00  0.00    -0.334 N 
HETATM    5  C   UNL     1      -3.273   5.030 -32.123  1.00  0.00     0.322 C 
HETATM    6  N   UNL     1      -2.616   4.861 -30.925  1.00  0.00    -0.309 N 
HETATM    7  O   UNL     1      -3.002   5.915 -32.932  1.00  0.00    -0.247 OA
HETATM    8  C   UNL     1      -4.902   4.124 -33.708  1.00  0.00     0.131 C 
HETATM    9  C   UNL     1      -6.425   4.070 -33.643  1.00  0.00     0.064 C 
HETATM   10  H   UNL     1      -2.663   3.944 -30.517  1.00  0.00     0.170 HD
ENDROOT
BRANCH   6  11
HETATM   11  C   UNL     1      -1.692   5.743 -30.320  1.00  0.00     0.037 A 
HETATM   12  C   UNL     1      -2.053   6.731 -29.394  1.00  0.00     0.039 A 
HETATM   13  C   UNL     1      -1.056   7.529 -28.857  1.00  0.00    -0.021 A 
HETATM   14  C   UNL     1       0.275   7.348 -29.216  1.00  0.00     0.041 A 
HETATM   15  C   UNL     1      -1.159   8.653 -27.869  1.00  0.00     0.144 A 
HETATM   16  N   UNL     1       1.069   8.260 -28.541  1.00  0.00    -0.326 N 
HETATM   17  C   UNL     1       0.671   6.381 -30.111  1.00  0.00     0.032 A 
HETATM   18  C   UNL     1       0.306   9.080 -27.717  1.00  0.00     0.226 A 
HETATM   19  H   UNL     1       2.071   8.345 -28.616  1.00  0.00     0.169 HD
HETATM   20  O   UNL     1       0.738   9.972 -27.007  1.00  0.00    -0.273 OA
HETATM   21  C   UNL     1      -0.330   5.575 -30.665  1.00  0.00     0.032 A 
ENDBRANCH   6  11
BRANCH   1  22
HETATM   22  C   UNL     1      -6.789   1.490 -33.391  1.00  0.00     0.068 A 
HETATM   23  N   UNL     1      -6.547   0.499 -32.489  1.00  0.00    -0.262 NA
HETATM   24  C   UNL     1      -6.491  -0.777 -32.937  1.00  0.00     0.123 A 
HETATM   25  C   UNL     1      -6.670  -1.144 -34.261  1.00  0.00    -0.044 A 
HETATM   26  C   UNL     1      -6.644  -2.578 -34.685  1.00  0.00     0.049 C 
HETATM   27  C   UNL     1      -6.952  -0.127 -35.169  1.00  0.00     0.010 A 
HETATM   28  C   UNL     1      -7.018   1.197 -34.734  1.00  0.00     0.031 A 
ENDBRANCH   1  22
BRANCH   1  29
HETATM   29  O   UNL     1      -8.344   3.095 -32.591  1.00  0.00    -0.383 OA
HETATM   30  H   UNL     1      -8.447   4.051 -32.414  1.00  0.00     0.211 HD
ENDBRANCH   1  29
TORSDOF 3
ENDMDL
MODEL 5
REMARK VINA RESULT:      -8.6      5.357      8.962
REMARK  3 active torsions:
REMARK  status: ('A' for Active; 'I' for Inactive)
REMARK    1  A    between atoms: C_5  and  C_6 
REMARK    2  A    between atoms: C_6  and  O_7 
REMARK       I    between atoms: N_10  and  C_11 
REMARK       I    between atoms: C_11  and  N_12 
REMARK    3  A    between atoms: N_12  and  C_13 
ROOT
HETATM    1  C   UNL     1      -5.120   0.488 -32.146  1.00  0.00     0.105 C 
HETATM    2  C   UNL     1      -5.410   1.482 -33.287  1.00  0.00     0.064 C 
HETATM    3  C   UNL     1      -6.716   1.168 -34.006  1.00  0.00     0.131 C 
HETATM    4  N   UNL     1      -7.839   1.091 -33.065  1.00  0.00    -0.334 N 
HETATM    5  C   UNL     1      -9.099   1.678 -33.212  1.00  0.00     0.322 C 
HETATM    6  N   UNL     1      -9.294   2.363 -34.389  1.00  0.00    -0.309 N 
HETATM    7  O   UNL     1      -9.954   1.570 -32.335  1.00  0.00    -0.247 OA
HETATM    8  C   UNL     1      -7.636   0.201 -31.922  1.00  0.00     0.131 C 
HETATM    9  C   UNL     1      -6.326   0.491 -31.195  1.00  0.00     0.064 C 
HETATM   10  H   UNL     1      -8.698   2.106 -35.157  1.00  0.00     0.170 HD
ENDROOT
BRANCH   6  11
HETATM   11  C   UNL     1     -10.376   3.208 -34.724  1.00  0.00     0.037 A 
HETATM   12  C   UNL     1     -10.267   4.600 -34.840  1.00  0.00     0.039 A 
HETATM   13  C   UNL     1     -11.396   5.325 -35.186  1.00  0.00    -0.021 A 
HETATM   14  C   UNL     1     -12.608   4.688 -35.428  1.00  0.00     0.041 A 
HETATM   15  C   UNL     1     -11.565   6.804 -35.367  1.00  0.00     0.144 A 
HETATM   16  N   UNL     1     -13.571   5.625 -35.759  1.00  0.00    -0.326 N 
HETATM   17  C   UNL     1     -12.752   3.322 -35.337  1.00  0.00     0.032 A 
HETATM   18  C   UNL     1     -13.046   6.912 -35.749  1.00  0.00     0.226 A 
HETATM   19  H   UNL     1     -14.535   5.432 -35.984  1.00  0.00     0.169 HD
HETATM   20  O   UNL     1     -13.663   7.933 -36.001  1.00  0.00    -0.273 OA
HETATM   21  C   UNL     1     -11.619   2.582 -34.980  1.00  0.00     0.032 A 
ENDBRANCH   6  11
BRANCH   1  22
HETATM   22  C   UNL     1      -4.657  -0.870 -32.684  1.00  0.00     0.068 A 
HETATM   23  N   UNL     1      -3.794  -1.548 -31.879  1.00  0.00    -0.262 NA
HETATM   24  C   UNL     1      -3.406  -2.789 -32.254  1.00  0.00     0.123 A 
HETATM   25  C   UNL     1      -3.836  -3.421 -33.409  1.00  0.00    -0.044 A 
HETATM   26  C   UNL     1      -3.408  -4.815 -33.744  1.00  0.00     0.049 C 
HETATM   27  C   UNL     1      -4.746  -2.733 -34.207  1.00  0.00     0.010 A 
HETATM   28  C   UNL     1      -5.165  -1.453 -33.842  1.00  0.00     0.031 A 
ENDBRANCH   1  22
BRANCH   1  29
HETATM   29  O   UNL     1      -4.000   1.022 -31.410  1.00  0.00    -0.383 OA
HETATM   30  H   UNL     1      -3.308   1.194 -32.079  1.00  0.00     0.211 HD
ENDBRANCH   1  29
TORSDOF 3
ENDMDL
MODEL 6
REMARK VINA RESULT:      -8.5      5.993      8.189
REMARK  3 active torsions:
REMARK  status: ('A' for Active; 'I' for Inactive)
REMARK    1  A    between atoms: C_5  and  C_6 
REMARK    2  A    between atoms: C_6  and  O_7 
REMARK       I    between atoms: N_10  and  C_11 
REMARK       I    between atoms: C_11  and  N_12 
REMARK    3  A    between atoms: N_12  and  C_13 
ROOT
HETATM    1  C   UNL     1     -12.456   3.754 -33.721  1.00  0.00     0.105 C 
HETATM    2  C   UNL     1     -11.868   2.806 -34.785  1.00  0.00     0.064 C 
HETATM    3  C   UNL     1     -10.345   2.804 -34.773  1.00  0.00     0.131 C 
HETATM    4  N   UNL     1      -9.820   2.499 -33.437  1.00  0.00    -0.334 N 
HETATM    5  C   UNL     1      -8.796   1.603 -33.122  1.00  0.00     0.322 C 
HETATM    6  N   UNL     1      -8.208   0.981 -34.199  1.00  0.00    -0.309 N 
HETATM    7  O   UNL     1      -8.464   1.407 -31.954  1.00  0.00    -0.247 OA
HETATM    8  C   UNL     1     -10.357   3.323 -32.355  1.00  0.00     0.131 C 
HETATM    9  C   UNL     1     -11.883   3.350 -32.355  1.00  0.00     0.064 C 
HETATM   10  H   UNL     1      -8.296   1.447 -35.085  1.00  0.00     0.170 HD
ENDROOT
BRANCH   6  11
HETATM   11  C   UNL     1      -7.298  -0.101 -34.176  1.00  0.00     0.037 A 
HETATM   12  C   UNL     1      -7.634  -1.405 -34.564  1.00  0.00     0.039 A 
HETATM   13  C   UNL     1      -6.653  -2.383 -34.511  1.00  0.00    -0.021 A 
HETATM   14  C   UNL     1      -5.362  -2.078 -34.096  1.00  0.00     0.041 A 
HETATM   15  C   UNL     1      -6.736  -3.840 -34.853  1.00  0.00     0.144 A 
HETATM   16  N   UNL     1      -4.576  -3.217 -34.137  1.00  0.00    -0.326 N 
HETATM   17  C   UNL     1      -4.990  -0.808 -33.719  1.00  0.00     0.032 A 
HETATM   18  C   UNL     1      -5.306  -4.317 -34.575  1.00  0.00     0.226 A 
HETATM   19  H   UNL     1      -3.600  -3.275 -33.889  1.00  0.00     0.169 HD
HETATM   20  O   UNL     1      -4.873  -5.449 -34.708  1.00  0.00    -0.273 OA
HETATM   21  C   UNL     1      -5.976   0.185 -33.762  1.00  0.00     0.032 A 
ENDBRANCH   6  11
BRANCH   1  22
HETATM   22  C   UNL     1     -12.314   5.222 -34.133  1.00  0.00     0.068 A 
HETATM   23  N   UNL     1     -12.660   5.499 -35.421  1.00  0.00    -0.262 NA
HETATM   24  C   UNL     1     -12.636   6.789 -35.830  1.00  0.00     0.123 A 
HETATM   25  C   UNL     1     -12.284   7.855 -35.018  1.00  0.00    -0.044 A 
HETATM   26  C   UNL     1     -12.322   9.264 -35.516  1.00  0.00     0.049 C 
HETATM   27  C   UNL     1     -11.966   7.565 -33.693  1.00  0.00     0.010 A 
HETATM   28  C   UNL     1     -11.986   6.244 -33.244  1.00  0.00     0.031 A 
ENDBRANCH   1  22
BRANCH   1  29
HETATM   29  O   UNL     1     -13.875   3.493 -33.678  1.00  0.00    -0.383 OA
HETATM   30  H   UNL     1     -14.015   2.950 -32.877  1.00  0.00     0.211 HD
ENDBRANCH   1  29
TORSDOF 3
ENDMDL
MODEL 7
REMARK VINA RESULT:      -8.3      5.754      9.970
REMARK  3 active torsions:
REMARK  status: ('A' for Active; 'I' for Inactive)
REMARK    1  A    between atoms: C_5  and  C_6 
REMARK    2  A    between atoms: C_6  and  O_7 
REMARK       I    between atoms: N_10  and  C_11 
REMARK       I    between atoms: C_11  and  N_12 
REMARK    3  A    between atoms: N_12  and  C_13 
ROOT
HETATM    1  C   UNL     1      -6.179   0.143 -32.898  1.00  0.00     0.105 C 
HETATM    2  C   UNL     1      -6.205   1.301 -33.915  1.00  0.00     0.064 C 
HETATM    3  C   UNL     1      -7.532   1.384 -34.658  1.00  0.00     0.131 C 
HETATM    4  N   UNL     1      -8.663   1.465 -33.726  1.00  0.00    -0.334 N 
HETATM    5  C   UNL     1      -9.748   2.343 -33.798  1.00  0.00     0.322 C 
HETATM    6  N   UNL     1      -9.752   3.183 -34.887  1.00  0.00    -0.309 N 
HETATM    7  O   UNL     1     -10.623   2.339 -32.933  1.00  0.00    -0.247 OA
HETATM    8  C   UNL     1      -8.696   0.429 -32.695  1.00  0.00     0.131 C 
HETATM    9  C   UNL     1      -7.371   0.319 -31.946  1.00  0.00     0.064 C 
HETATM   10  H   UNL     1      -9.216   2.884 -35.682  1.00  0.00     0.170 HD
ENDROOT
BRANCH   6  11
HETATM   11  C   UNL     1     -10.601   4.290 -35.115  1.00  0.00     0.037 A 
HETATM   12  C   UNL     1     -10.160   5.620 -35.115  1.00  0.00     0.039 A 
HETATM   13  C   UNL     1     -11.083   6.623 -35.364  1.00  0.00    -0.021 A 
HETATM   14  C   UNL     1     -12.415   6.320 -35.623  1.00  0.00     0.041 A 
HETATM   15  C   UNL     1     -10.891   8.109 -35.413  1.00  0.00     0.144 A 
HETATM   16  N   UNL     1     -13.126   7.487 -35.844  1.00  0.00    -0.326 N 
HETATM   17  C   UNL     1     -12.885   5.027 -35.644  1.00  0.00     0.032 A 
HETATM   18  C   UNL     1     -12.305   8.604 -35.739  1.00  0.00     0.226 A 
HETATM   19  H   UNL     1     -14.110   7.552 -36.055  1.00  0.00     0.169 HD
HETATM   20  O   UNL     1     -12.659   9.762 -35.885  1.00  0.00    -0.273 OA
HETATM   21  C   UNL     1     -11.961   4.007 -35.386  1.00  0.00     0.032 A 
ENDBRANCH   6  11
BRANCH   1  22
HETATM   22  C   UNL     1      -6.032  -1.214 -33.592  1.00  0.00     0.068 A 
HETATM   23  N   UNL     1      -4.768  -1.721 -33.614  1.00  0.00    -0.262 NA
HETATM   24  C   UNL     1      -4.579  -2.953 -34.140  1.00  0.00     0.123 A 
HETATM   25  C   UNL     1      -5.594  -3.741 -34.657  1.00  0.00    -0.044 A 
HETATM   26  C   UNL     1      -5.327  -5.116 -35.181  1.00  0.00     0.049 C 
HETATM   27  C   UNL     1      -6.888  -3.229 -34.597  1.00  0.00     0.010 A 
HETATM   28  C   UNL     1      -7.112  -1.962 -34.057  1.00  0.00     0.031 A 
ENDBRANCH   1  22
BRANCH   1  29
HETATM   29  O   UNL     1      -4.981   0.315 -32.111  1.00  0.00    -0.383 OA
HETATM   30  H   UNL     1      -4.307   0.652 -32.735  1.00  0.00     0.211 HD
ENDBRANCH   1  29
TORSDOF 3
ENDMDL
MODEL 8
REMARK VINA RESULT:      -8.3      6.568     10.493
REMARK  3 active torsions:
REMARK  status: ('A' for Active; 'I' for Inactive)
REMARK    1  A    between atoms: C_5  and  C_6 
REMARK    2  A    between atoms: C_6  and  O_7 
REMARK       I    between atoms: N_10  and  C_11 
REMARK       I    between atoms: C_11  and  N_12 
REMARK    3  A    between atoms: N_12  and  C_13 
ROOT
HETATM    1  C   UNL     1      -9.058   0.928 -32.298  1.00  0.00     0.105 C 
HETATM    2  C   UNL     1      -8.742   2.422 -32.087  1.00  0.00     0.064 C 
HETATM    3  C   UNL     1      -8.623   3.176 -33.405  1.00  0.00     0.131 C 
HETATM    4  N   UNL     1      -9.819   2.995 -34.235  1.00  0.00    -0.334 N 
HETATM    5  C   UNL     1     -10.525   3.988 -34.919  1.00  0.00     0.322 C 
HETATM    6  N   UNL     1     -10.001   5.256 -34.817  1.00  0.00    -0.309 N 
HETATM    7  O   UNL     1     -11.538   3.717 -35.560  1.00  0.00    -0.247 OA
HETATM    8  C   UNL     1     -10.221   1.606 -34.454  1.00  0.00     0.131 C 
HETATM    9  C   UNL     1     -10.334   0.827 -33.146  1.00  0.00     0.064 C 
HETATM   10  H   UNL     1      -9.025   5.317 -34.584  1.00  0.00     0.170 HD
ENDROOT
BRANCH   6  11
HETATM   11  C   UNL     1     -10.597   6.469 -35.231  1.00  0.00     0.037 A 
HETATM   12  C   UNL     1     -10.222   7.163 -36.390  1.00  0.00     0.039 A 
HETATM   13  C   UNL     1     -10.888   8.337 -36.701  1.00  0.00    -0.021 A 
HETATM   14  C   UNL     1     -11.913   8.814 -35.891  1.00  0.00     0.041 A 
HETATM   15  C   UNL     1     -10.689   9.273 -37.856  1.00  0.00     0.144 A 
HETATM   16  N   UNL     1     -12.416   9.991 -36.418  1.00  0.00    -0.326 N 
HETATM   17  C   UNL     1     -12.318   8.156 -34.753  1.00  0.00     0.032 A 
HETATM   18  C   UNL     1     -11.750  10.345 -37.586  1.00  0.00     0.226 A 
HETATM   19  H   UNL     1     -13.165  10.543 -36.029  1.00  0.00     0.169 HD
HETATM   20  O   UNL     1     -11.981  11.333 -38.263  1.00  0.00    -0.273 OA
HETATM   21  C   UNL     1     -11.646   6.972 -34.426  1.00  0.00     0.032 A 
ENDBRANCH   6  11
BRANCH   1  22
HETATM   22  C   UNL     1      -7.830   0.155 -32.787  1.00  0.00     0.068 A 
HETATM   23  N   UNL     1      -6.785   0.115 -31.914  1.00  0.00    -0.262 NA
HETATM   24  C   UNL     1      -5.698  -0.618 -32.248  1.00  0.00     0.123 A 
HETATM   25  C   UNL     1      -5.578  -1.339 -33.425  1.00  0.00    -0.044 A 
HETATM   26  C   UNL     1      -4.368  -2.169 -33.713  1.00  0.00     0.049 C 
HETATM   27  C   UNL     1      -6.666  -1.321 -34.293  1.00  0.00     0.010 A 
HETATM   28  C   UNL     1      -7.801  -0.575 -33.973  1.00  0.00     0.031 A 
ENDBRANCH   1  22
BRANCH   1  29
HETATM   29  O   UNL     1      -9.371   0.387 -30.997  1.00  0.00    -0.383 OA
HETATM   30  H   UNL     1      -8.826   0.897 -30.365  1.00  0.00     0.211 HD
ENDBRANCH   1  29
TORSDOF 3
ENDMDL
MODEL 9
REMARK VINA RESULT:      -8.3      2.985     10.174
REMARK  3 active torsions:
REMARK  status: ('A' for Active; 'I' for Inactive)
REMARK    1  A    between atoms: C_5  and  C_6 
REMARK    2  A    between atoms: C_6  and  O_7 
REMARK       I    between atoms: N_10  and  C_11 
REMARK       I    between atoms: C_11  and  N_12 
REMARK    3  A    between atoms: N_12  and  C_13 
ROOT
HETATM    1  C   UNL     1      -4.498   4.502 -33.425  1.00  0.00     0.105 C 
HETATM    2  C   UNL     1      -4.827   5.389 -32.208  1.00  0.00     0.064 C 
HETATM    3  C   UNL     1      -3.922   5.091 -31.019  1.00  0.00     0.131 C 
HETATM    4  N   UNL     1      -2.505   5.192 -31.386  1.00  0.00    -0.334 N 
HETATM    5  C   UNL     1      -1.497   5.845 -30.672  1.00  0.00     0.322 C 
HETATM    6  N   UNL     1      -1.894   6.414 -29.484  1.00  0.00    -0.309 N 
HETATM    7  O   UNL     1      -0.345   5.889 -31.100  1.00  0.00    -0.247 OA
HETATM    8  C   UNL     1      -2.109   4.415 -32.560  1.00  0.00     0.131 C 
HETATM    9  C   UNL     1      -3.011   4.688 -33.761  1.00  0.00     0.064 C 
HETATM   10  H   UNL     1      -2.727   6.038 -29.067  1.00  0.00     0.170 HD
ENDROOT
BRANCH   6  11
HETATM   11  C   UNL     1      -1.152   7.292 -28.661  1.00  0.00     0.037 A 
HETATM   12  C   UNL     1      -0.037   6.895 -27.910  1.00  0.00     0.039 A 
HETATM   13  C   UNL     1       0.619   7.848 -27.148  1.00  0.00    -0.021 A 
HETATM   14  C   UNL     1       0.192   9.171 -27.136  1.00  0.00     0.041 A 
HETATM   15  C   UNL     1       1.815   7.702 -26.255  1.00  0.00     0.144 A 
HETATM   16  N   UNL     1       1.011   9.919 -26.307  1.00  0.00    -0.326 N 
HETATM   17  C   UNL     1      -0.890   9.602 -27.868  1.00  0.00     0.032 A 
HETATM   18  C   UNL     1       2.006   9.132 -25.738  1.00  0.00     0.226 A 
HETATM   19  H   UNL     1       0.925  10.907 -26.121  1.00  0.00     0.169 HD
HETATM   20  O   UNL     1       2.867   9.523 -24.968  1.00  0.00    -0.273 OA
HETATM   21  C   UNL     1      -1.564   8.645 -28.635  1.00  0.00     0.032 A 
ENDBRANCH   6  11
BRANCH   1  22
HETATM   22  C   UNL     1      -4.997   3.068 -33.229  1.00  0.00     0.068 A 
HETATM   23  N   UNL     1      -6.131   2.750 -33.912  1.00  0.00    -0.262 NA
HETATM   24  C   UNL     1      -6.584   1.477 -33.849  1.00  0.00     0.123 A 
HETATM   25  C   UNL     1      -5.962   0.466 -33.134  1.00  0.00    -0.044 A 
HETATM   26  C   UNL     1      -6.487  -0.935 -33.143  1.00  0.00     0.049 C 
HETATM   27  C   UNL     1      -4.784   0.792 -32.468  1.00  0.00     0.010 A 
HETATM   28  C   UNL     1      -4.293   2.097 -32.519  1.00  0.00     0.031 A 
ENDBRANCH   1  22
BRANCH   1  29
HETATM   29  O   UNL     1      -5.251   5.033 -34.535  1.00  0.00    -0.383 OA
HETATM   30  H   UNL     1      -4.622   5.068 -35.283  1.00  0.00     0.211 HD
ENDBRANCH   1  29
TORSDOF 3
ENDMDL
MODEL 10
REMARK VINA RESULT:      -8.2      7.206     13.730
REMARK  3 active torsions:
REMARK  status: ('A' for Active; 'I' for Inactive)
REMARK    1  A    between atoms: C_5  and  C_6 
REMARK    2  A    between atoms: C_6  and  O_7 
REMARK       I    between atoms: N_10  and  C_11 
REMARK       I    between atoms: C_11  and  N_12 
REMARK    3  A    between atoms: N_12  and  C_13 
ROOT
HETATM    1  C   UNL     1      -1.406   7.205 -27.333  1.00  0.00     0.105 C 
HETATM    2  C   UNL     1      -0.211   6.459 -26.709  1.00  0.00     0.064 C 
HETATM    3  C   UNL     1       1.051   7.312 -26.684  1.00  0.00     0.131 C 
HETATM    4  N   UNL     1       0.815   8.597 -26.015  1.00  0.00    -0.334 N 
HETATM    5  C   UNL     1       1.627   9.205 -25.054  1.00  0.00     0.322 C 
HETATM    6  N   UNL     1       2.782   8.525 -24.747  1.00  0.00    -0.309 N 
HETATM    7  O   UNL     1       1.305  10.274 -24.538  1.00  0.00    -0.247 OA
HETATM    8  C   UNL     1      -0.331   9.358 -26.514  1.00  0.00     0.131 C 
HETATM    9  C   UNL     1      -1.603   8.517 -26.559  1.00  0.00     0.064 C 
HETATM   10  H   UNL     1       3.117   7.880 -25.441  1.00  0.00     0.170 HD
ENDROOT
BRANCH   6  11
HETATM   11  C   UNL     1       3.682   8.791 -23.690  1.00  0.00     0.037 A 
HETATM   12  C   UNL     1       4.822   9.595 -23.825  1.00  0.00     0.039 A 
HETATM   13  C   UNL     1       5.625   9.795 -22.714  1.00  0.00    -0.021 A 
HETATM   14  C   UNL     1       5.303   9.224 -21.488  1.00  0.00     0.041 A 
HETATM   15  C   UNL     1       6.890  10.589 -22.579  1.00  0.00     0.144 A 
HETATM   16  N   UNL     1       6.253   9.577 -20.544  1.00  0.00    -0.326 N 
HETATM   17  C   UNL     1       4.187   8.440 -21.311  1.00  0.00     0.032 A 
HETATM   18  C   UNL     1       7.237  10.387 -21.099  1.00  0.00     0.226 A 
HETATM   19  H   UNL     1       6.258   9.300 -19.574  1.00  0.00     0.169 HD
HETATM   20  O   UNL     1       8.197  10.848 -20.504  1.00  0.00    -0.273 OA
HETATM   21  C   UNL     1       3.374   8.225 -22.430  1.00  0.00     0.032 A 
ENDBRANCH   6  11
BRANCH   1  22
HETATM   22  C   UNL     1      -1.278   7.303 -28.856  1.00  0.00     0.068 A 
HETATM   23  N   UNL     1      -0.654   6.251 -29.454  1.00  0.00    -0.262 NA
HETATM   24  C   UNL     1      -0.577   6.233 -30.804  1.00  0.00     0.123 A 
HETATM   25  C   UNL     1      -1.098   7.220 -31.626  1.00  0.00    -0.044 A 
HETATM   26  C   UNL     1      -1.022   7.118 -33.116  1.00  0.00     0.049 C 
HETATM   27  C   UNL     1      -1.765   8.273 -31.006  1.00  0.00     0.010 A 
HETATM   28  C   UNL     1      -1.862   8.315 -29.615  1.00  0.00     0.031 A 
ENDBRANCH   1  22
BRANCH   1  29
HETATM   29  O   UNL     1      -2.572   6.391 -27.088  1.00  0.00    -0.383 OA
HETATM   30  H   UNL     1      -2.413   5.557 -27.574  1.00  0.00     0.211 HD
ENDBRANCH   1  29
TORSDOF 3
ENDMDL
