MODEL 1
REMARK VINA RESULT:     -10.4      0.000      0.000
REMARK  5 active torsions:
REMARK  status: ('A' for Active; 'I' for Inactive)
REMARK    1  A    between atoms: C_2  and  N_3 
REMARK    2  A    between atoms: C_7  and  N_8 
REMARK       I    between atoms: N_8  and  C_9 
REMARK    3  A    between atoms: C_9  and  C_10 
REMARK    4  A    between atoms: C_10  and  C_11 
REMARK    5  A    between atoms: C_11  and  C_12 
ROOT
HETATM    1  C   UNL     1     -13.870   2.781 -32.935  1.00  0.00    -0.028 A 
HETATM    2  C   UNL     1     -14.611   1.690 -33.256  1.00  0.00     0.015 A 
HETATM    3  C   UNL     1     -14.127   0.431 -33.927  1.00  0.00     0.069 C 
HETATM    4  N   UNL     1     -15.964   1.675 -32.987  1.00  0.00    -0.326 N 
HETATM    5  C   UNL     1     -16.678   2.687 -32.411  1.00  0.00     0.266 A 
HETATM    6  O   UNL     1     -17.882   2.584 -32.208  1.00  0.00    -0.267 OA
HETATM    7  C   UNL     1     -15.904   3.895 -32.060  1.00  0.00     0.105 A 
HETATM    8  C   UNL     1     -16.667   5.037 -31.408  1.00  0.00     0.026 C 
HETATM    9  N   UNL     1     -17.301   5.984 -30.868  1.00  0.00    -0.096 N 
HETATM   10  C   UNL     1     -14.573   3.946 -32.306  1.00  0.00    -0.029 A 
HETATM   11  C   UNL     1     -13.762   5.181 -31.965  1.00  0.00     0.050 C 
HETATM   12  H   UNL     1     -16.523   0.864 -33.229  1.00  0.00     0.169 HD
ENDROOT
BRANCH   1  13
HETATM   13  C   UNL     1     -12.363   2.971 -33.155  1.00  0.00     0.050 C 
BRANCH  13  14
HETATM   14  C   UNL     1     -11.642   2.335 -34.345  1.00  0.00     0.108 C 
BRANCH  14  15
HETATM   15  C   UNL     1     -10.537   1.392 -33.892  1.00  0.00     0.222 C 
HETATM   16  N   UNL     1      -9.354   1.562 -34.589  1.00  0.00    -0.327 N 
HETATM   17  H   UNL     1      -9.358   2.228 -35.350  1.00  0.00     0.169 HD
HETATM   18  O   UNL     1     -10.748   0.582 -32.995  1.00  0.00    -0.273 OA
BRANCH  16  19
HETATM   19  C   UNL     1      -8.128   0.895 -34.373  1.00  0.00     0.035 A 
HETATM   20  C   UNL     1      -7.930  -0.467 -34.617  1.00  0.00     0.044 A 
HETATM   21  C   UNL     1      -6.678  -1.068 -34.339  1.00  0.00     0.005 A 
HETATM   22  C   UNL     1      -5.645  -0.277 -33.835  1.00  0.00     0.046 A 
HETATM   23  C   UNL     1      -6.185  -2.406 -34.450  1.00  0.00     0.003 A 
HETATM   24  N   UNL     1      -4.551  -1.105 -33.660  1.00  0.00    -0.346 N 
HETATM   25  C   UNL     1      -5.818   1.094 -33.597  1.00  0.00     0.033 A 
HETATM   26  C   UNL     1      -4.857  -2.405 -34.019  1.00  0.00     0.046 A 
HETATM   27  C   UNL     1      -4.081  -3.577 -34.004  1.00  0.00     0.030 A 
HETATM   28  C   UNL     1      -4.676  -4.770 -34.428  1.00  0.00     0.002 A 
HETATM   29  C   UNL     1      -5.998  -4.795 -34.858  1.00  0.00     0.001 A 
HETATM   30  C   UNL     1      -6.760  -3.622 -34.875  1.00  0.00     0.014 A 
HETATM   31  C   UNL     1      -7.072   1.657 -33.862  1.00  0.00     0.032 A 
BRANCH  24  32
HETATM   32  C   UNL     1      -3.257  -0.675 -33.154  1.00  0.00     0.125 C 
HETATM   33  C   UNL     1      -3.175  -0.761 -31.640  1.00  0.00     0.027 C 
ENDBRANCH  24  32
ENDBRANCH  16  19
ENDBRANCH  14  15
ENDBRANCH  13  14
ENDBRANCH   1  13
TORSDOF 5
ENDMDL
MODEL 2
REMARK VINA RESULT:     -10.0      3.141      4.587
REMARK  5 active torsions:
REMARK  status: ('A' for Active; 'I' for Inactive)
REMARK    1  A    between atoms: C_2  and  N_3 
REMARK    2  A    between atoms: C_7  and  N_8 
REMARK       I    between atoms: N_8  and  C_9 
REMARK    3  A    between atoms: C_9  and  C_10 
REMARK    4  A    between atoms: C_10  and  C_11 
REMARK    5  A    between atoms: C_11  and  C_12 
ROOT
HETATM    1  C   UNL     1     -10.469   4.430 -33.360  1.00  0.00    -0.028 A 
HETATM    2  C   UNL     1      -9.912   5.268 -34.272  1.00  0.00     0.015 A 
HETATM    3  C   UNL     1     -10.384   5.516 -35.681  1.00  0.00     0.069 C 
HETATM    4  N   UNL     1      -8.777   5.981 -33.947  1.00  0.00    -0.326 N 
HETATM    5  C   UNL     1      -8.114   5.933 -32.753  1.00  0.00     0.266 A 
HETATM    6  O   UNL     1      -7.111   6.606 -32.552  1.00  0.00    -0.267 OA
HETATM    7  C   UNL     1      -8.688   5.021 -31.741  1.00  0.00     0.105 A 
HETATM    8  C   UNL     1      -7.979   4.951 -30.398  1.00  0.00     0.026 C 
HETATM    9  N   UNL     1      -7.391   4.893 -29.285  1.00  0.00    -0.096 N 
HETATM   10  C   UNL     1      -9.803   4.307 -32.023  1.00  0.00    -0.029 A 
HETATM   11  C   UNL     1     -10.400   3.357 -31.003  1.00  0.00     0.050 C 
HETATM   12  H   UNL     1      -8.354   6.604 -34.626  1.00  0.00     0.169 HD
ENDROOT
BRANCH   1  13
HETATM   13  C   UNL     1     -11.725   3.568 -33.545  1.00  0.00     0.050 C 
BRANCH  13  14
HETATM   14  C   UNL     1     -11.708   2.304 -34.406  1.00  0.00     0.108 C 
BRANCH  14  15
HETATM   15  C   UNL     1     -10.607   1.346 -33.974  1.00  0.00     0.222 C 
HETATM   16  N   UNL     1      -9.390   1.607 -34.576  1.00  0.00    -0.327 N 
HETATM   17  H   UNL     1      -9.366   2.342 -35.271  1.00  0.00     0.169 HD
HETATM   18  O   UNL     1     -10.851   0.451 -33.171  1.00  0.00    -0.273 OA
BRANCH  16  19
HETATM   19  C   UNL     1      -8.161   0.949 -34.346  1.00  0.00     0.035 A 
HETATM   20  C   UNL     1      -7.945  -0.409 -34.603  1.00  0.00     0.044 A 
HETATM   21  C   UNL     1      -6.693  -1.001 -34.309  1.00  0.00     0.005 A 
HETATM   22  C   UNL     1      -5.677  -0.206 -33.778  1.00  0.00     0.046 A 
HETATM   23  C   UNL     1      -6.185  -2.333 -34.427  1.00  0.00     0.003 A 
HETATM   24  N   UNL     1      -4.578  -1.025 -33.594  1.00  0.00    -0.346 N 
HETATM   25  C   UNL     1      -5.867   1.161 -33.528  1.00  0.00     0.033 A 
HETATM   26  C   UNL     1      -4.865  -2.324 -33.972  1.00  0.00     0.046 A 
HETATM   27  C   UNL     1      -4.079  -3.489 -33.957  1.00  0.00     0.030 A 
HETATM   28  C   UNL     1      -4.654  -4.682 -34.404  1.00  0.00     0.002 A 
HETATM   29  C   UNL     1      -5.968  -4.715 -34.858  1.00  0.00     0.001 A 
HETATM   30  C   UNL     1      -6.742  -3.549 -34.876  1.00  0.00     0.014 A 
HETATM   31  C   UNL     1      -7.122   1.715 -33.809  1.00  0.00     0.032 A 
BRANCH  24  32
HETATM   32  C   UNL     1      -3.298  -0.589 -33.060  1.00  0.00     0.125 C 
HETATM   33  C   UNL     1      -3.200  -0.797 -31.558  1.00  0.00     0.027 C 
ENDBRANCH  24  32
ENDBRANCH  16  19
ENDBRANCH  14  15
ENDBRANCH  13  14
ENDBRANCH   1  13
TORSDOF 5
ENDMDL
MODEL 3
REMARK VINA RESULT:      -9.7      3.125      4.104
REMARK  5 active torsions:
REMARK  status: ('A' for Active; 'I' for Inactive)
REMARK    1  A    between atoms: C_2  and  N_3 
REMARK    2  A    between atoms: C_7  and  N_8 
REMARK       I    between atoms: N_8  and  C_9 
REMARK    3  A    between atoms: C_9  and  C_10 
REMARK    4  A    between atoms: C_10  and  C_11 
REMARK    5  A    between atoms: C_11  and  C_12 
ROOT
HETATM    1  C   UNL     1     -10.731   5.273 -34.907  1.00  0.00    -0.028 A 
HETATM    2  C   UNL     1      -9.652   5.827 -34.294  1.00  0.00     0.015 A 
HETATM    3  C   UNL     1      -8.395   5.120 -33.859  1.00  0.00     0.069 C 
HETATM    4  N   UNL     1      -9.652   7.172 -33.988  1.00  0.00    -0.326 N 
HETATM    5  C   UNL     1     -10.667   8.052 -34.239  1.00  0.00     0.266 A 
HETATM    6  O   UNL     1     -10.577   9.234 -33.933  1.00  0.00    -0.267 OA
HETATM    7  C   UNL     1     -11.861   7.479 -34.894  1.00  0.00     0.105 A 
HETATM    8  C   UNL     1     -13.005   8.433 -35.196  1.00  0.00     0.026 C 
HETATM    9  N   UNL     1     -13.953   9.225 -35.446  1.00  0.00    -0.096 N 
HETATM   10  C   UNL     1     -11.897   6.163 -35.213  1.00  0.00    -0.029 A 
HETATM   11  C   UNL     1     -13.117   5.553 -35.874  1.00  0.00     0.050 C 
HETATM   12  H   UNL     1      -8.852   7.589 -33.526  1.00  0.00     0.169 HD
ENDROOT
BRANCH   1  13
HETATM   13  C   UNL     1     -10.903   3.806 -35.323  1.00  0.00     0.050 C 
BRANCH  13  14
HETATM   14  C   UNL     1     -11.456   2.759 -34.354  1.00  0.00     0.108 C 
BRANCH  14  15
HETATM   15  C   UNL     1     -10.352   1.868 -33.802  1.00  0.00     0.222 C 
HETATM   16  N   UNL     1      -9.269   1.750 -34.653  1.00  0.00    -0.327 N 
HETATM   17  H   UNL     1      -9.341   2.198 -35.558  1.00  0.00     0.169 HD
HETATM   18  O   UNL     1     -10.483   1.335 -32.704  1.00  0.00    -0.273 OA
BRANCH  16  19
HETATM   19  C   UNL     1      -8.063   1.054 -34.415  1.00  0.00     0.035 A 
HETATM   20  C   UNL     1      -7.892  -0.312 -34.659  1.00  0.00     0.044 A 
HETATM   21  C   UNL     1      -6.660  -0.942 -34.358  1.00  0.00     0.005 A 
HETATM   22  C   UNL     1      -5.619  -0.177 -33.833  1.00  0.00     0.046 A 
HETATM   23  C   UNL     1      -6.196  -2.292 -34.463  1.00  0.00     0.003 A 
HETATM   24  N   UNL     1      -4.548  -1.030 -33.639  1.00  0.00    -0.346 N 
HETATM   25  C   UNL     1      -5.764   1.197 -33.595  1.00  0.00     0.033 A 
HETATM   26  C   UNL     1      -4.877  -2.323 -34.006  1.00  0.00     0.046 A 
HETATM   27  C   UNL     1      -4.129  -3.512 -33.979  1.00  0.00     0.030 A 
HETATM   28  C   UNL     1      -4.743  -4.690 -34.417  1.00  0.00     0.002 A 
HETATM   29  C   UNL     1      -6.057  -4.683 -34.873  1.00  0.00     0.001 A 
HETATM   30  C   UNL     1      -6.792  -3.493 -34.902  1.00  0.00     0.014 A 
HETATM   31  C   UNL     1      -6.999   1.790 -33.883  1.00  0.00     0.032 A 
BRANCH  24  32
HETATM   32  C   UNL     1      -3.255  -0.632 -33.107  1.00  0.00     0.125 C 
HETATM   33  C   UNL     1      -3.158  -0.850 -31.607  1.00  0.00     0.027 C 
ENDBRANCH  24  32
ENDBRANCH  16  19
ENDBRANCH  14  15
ENDBRANCH  13  14
ENDBRANCH   1  13
TORSDOF 5
ENDMDL
MODEL 4
REMARK VINA RESULT:      -9.6      6.951     10.521
REMARK  5 active torsions:
REMARK  status: ('A' for Active; 'I' for Inactive)
REMARK    1  A    between atoms: C_2  and  N_3 
REMARK    2  A    between atoms: C_7  and  N_8 
REMARK       I    between atoms: N_8  and  C_9 
REMARK    3  A    between atoms: C_9  and  C_10 
REMARK    4  A    between atoms: C_10  and  C_11 
REMARK    5  A    between atoms: C_11  and  C_12 
ROOT
HETATM    1  C   UNL     1      -1.729   7.122 -29.366  1.00  0.00    -0.028 A 
HETATM    2  C   UNL     1      -3.033   7.120 -28.986  1.00  0.00     0.015 A 
HETATM    3  C   UNL     1      -4.216   6.675 -29.806  1.00  0.00     0.069 C 
HETATM    4  N   UNL     1      -3.385   7.584 -27.735  1.00  0.00    -0.326 N 
HETATM    5  C   UNL     1      -2.527   8.074 -26.792  1.00  0.00     0.266 A 
HETATM    6  O   UNL     1      -2.930   8.463 -25.702  1.00  0.00    -0.267 OA
HETATM    7  C   UNL     1      -1.101   8.101 -27.178  1.00  0.00     0.105 A 
HETATM    8  C   UNL     1      -0.118   8.634 -26.147  1.00  0.00     0.026 C 
HETATM    9  N   UNL     1       0.696   9.075 -25.292  1.00  0.00    -0.096 N 
HETATM   10  C   UNL     1      -0.717   7.652 -28.396  1.00  0.00    -0.029 A 
HETATM   11  C   UNL     1       0.739   7.683 -28.817  1.00  0.00     0.050 C 
HETATM   12  H   UNL     1      -4.357   7.589 -27.448  1.00  0.00     0.169 HD
ENDROOT
BRANCH   1  13
HETATM   13  C   UNL     1      -1.159   6.643 -30.708  1.00  0.00     0.050 C 
BRANCH  13  14
HETATM   14  C   UNL     1      -0.839   5.168 -30.961  1.00  0.00     0.108 C 
BRANCH  14  15
HETATM   15  C   UNL     1      -1.896   4.507 -31.833  1.00  0.00     0.222 C 
HETATM   16  N   UNL     1      -2.686   3.604 -31.144  1.00  0.00    -0.327 N 
HETATM   17  H   UNL     1      -2.449   3.428 -30.176  1.00  0.00     0.169 HD
HETATM   18  O   UNL     1      -1.978   4.792 -33.024  1.00  0.00    -0.273 OA
BRANCH  16  19
HETATM   19  C   UNL     1      -3.788   2.874 -31.641  1.00  0.00     0.035 A 
HETATM   20  C   UNL     1      -3.691   1.587 -32.177  1.00  0.00     0.044 A 
HETATM   21  C   UNL     1      -4.841   0.938 -32.689  1.00  0.00     0.005 A 
HETATM   22  C   UNL     1      -6.070   1.596 -32.634  1.00  0.00     0.046 A 
HETATM   23  C   UNL     1      -5.056  -0.332 -33.311  1.00  0.00     0.003 A 
HETATM   24  N   UNL     1      -7.008   0.746 -33.191  1.00  0.00    -0.346 N 
HETATM   25  C   UNL     1      -6.192   2.881 -32.088  1.00  0.00     0.033 A 
HETATM   26  C   UNL     1      -6.415  -0.428 -33.618  1.00  0.00     0.046 A 
HETATM   27  C   UNL     1      -6.956  -1.566 -34.242  1.00  0.00     0.030 A 
HETATM   28  C   UNL     1      -6.092  -2.616 -34.567  1.00  0.00     0.002 A 
HETATM   29  C   UNL     1      -4.734  -2.540 -34.275  1.00  0.00     0.001 A 
HETATM   30  C   UNL     1      -4.206  -1.407 -33.647  1.00  0.00     0.014 A 
HETATM   31  C   UNL     1      -5.035   3.507 -31.607  1.00  0.00     0.032 A 
BRANCH  24  32
HETATM   32  C   UNL     1      -8.425   1.047 -33.326  1.00  0.00     0.125 C 
HETATM   33  C   UNL     1      -9.243   0.489 -32.175  1.00  0.00     0.027 C 
ENDBRANCH  24  32
ENDBRANCH  16  19
ENDBRANCH  14  15
ENDBRANCH  13  14
ENDBRANCH   1  13
TORSDOF 5
ENDMDL
MODEL 5
REMARK VINA RESULT:      -9.4      6.542     10.008
REMARK  5 active torsions:
REMARK  status: ('A' for Active; 'I' for Inactive)
REMARK    1  A    between atoms: C_2  and  N_3 
REMARK    2  A    between atoms: C_7  and  N_8 
REMARK       I    between atoms: N_8  and  C_9 
REMARK    3  A    between atoms: C_9  and  C_10 
REMARK    4  A    between atoms: C_10  and  C_11 
REMARK    5  A    between atoms: C_11  and  C_12 
ROOT
HETATM    1  C   UNL     1      -1.377   7.008 -29.282  1.00  0.00    -0.028 A 
HETATM    2  C   UNL     1      -0.712   6.907 -28.102  1.00  0.00     0.015 A 
HETATM    3  C   UNL     1       0.751   6.603 -27.910  1.00  0.00     0.069 C 
HETATM    4  N   UNL     1      -1.393   7.066 -26.913  1.00  0.00    -0.326 N 
HETATM    5  C   UNL     1      -2.729   7.322 -26.782  1.00  0.00     0.266 A 
HETATM    6  O   UNL     1      -3.249   7.451 -25.681  1.00  0.00    -0.267 OA
HETATM    7  C   UNL     1      -3.485   7.426 -28.047  1.00  0.00     0.105 A 
HETATM    8  C   UNL     1      -4.974   7.718 -27.937  1.00  0.00     0.026 C 
HETATM    9  N   UNL     1      -6.207   7.960 -27.845  1.00  0.00    -0.096 N 
HETATM   10  C   UNL     1      -2.851   7.278 -29.234  1.00  0.00    -0.029 A 
HETATM   11  C   UNL     1      -3.611   7.369 -30.543  1.00  0.00     0.050 C 
HETATM   12  H   UNL     1      -0.902   6.987 -26.030  1.00  0.00     0.169 HD
ENDROOT
BRANCH   1  13
HETATM   13  C   UNL     1      -0.785   6.865 -30.691  1.00  0.00     0.050 C 
BRANCH  13  14
HETATM   14  C   UNL     1      -0.355   5.505 -31.244  1.00  0.00     0.108 C 
BRANCH  14  15
HETATM   15  C   UNL     1      -1.484   4.830 -32.009  1.00  0.00     0.222 C 
HETATM   16  N   UNL     1      -2.256   3.997 -31.221  1.00  0.00    -0.327 N 
HETATM   17  H   UNL     1      -1.966   3.870 -30.260  1.00  0.00     0.169 HD
HETATM   18  O   UNL     1      -1.629   5.047 -33.208  1.00  0.00    -0.273 OA
BRANCH  16  19
HETATM   19  C   UNL     1      -3.409   3.277 -31.606  1.00  0.00     0.035 A 
HETATM   20  C   UNL     1      -3.378   1.977 -32.121  1.00  0.00     0.044 A 
HETATM   21  C   UNL     1      -4.578   1.338 -32.518  1.00  0.00     0.005 A 
HETATM   22  C   UNL     1      -5.787   2.018 -32.373  1.00  0.00     0.046 A 
HETATM   23  C   UNL     1      -4.866   0.060 -33.092  1.00  0.00     0.003 A 
HETATM   24  N   UNL     1      -6.783   1.174 -32.829  1.00  0.00    -0.346 N 
HETATM   25  C   UNL     1      -5.842   3.317 -31.846  1.00  0.00     0.033 A 
HETATM   26  C   UNL     1      -6.247  -0.019 -33.280  1.00  0.00     0.046 A 
HETATM   27  C   UNL     1      -6.857  -1.159 -33.831  1.00  0.00     0.030 A 
HETATM   28  C   UNL     1      -6.041  -2.230 -34.206  1.00  0.00     0.002 A 
HETATM   29  C   UNL     1      -4.662  -2.172 -34.032  1.00  0.00     0.001 A 
HETATM   30  C   UNL     1      -4.064  -1.037 -33.476  1.00  0.00     0.014 A 
HETATM   31  C   UNL     1      -4.638   3.932 -31.480  1.00  0.00     0.032 A 
BRANCH  24  32
HETATM   32  C   UNL     1      -8.201   1.497 -32.850  1.00  0.00     0.125 C 
HETATM   33  C   UNL     1      -8.917   1.021 -31.598  1.00  0.00     0.027 C 
ENDBRANCH  24  32
ENDBRANCH  16  19
ENDBRANCH  14  15
ENDBRANCH  13  14
ENDBRANCH   1  13
TORSDOF 5
ENDMDL
MODEL 6
REMARK VINA RESULT:      -9.3      2.067      2.312
REMARK  5 active torsions:
REMARK  status: ('A' for Active; 'I' for Inactive)
REMARK    1  A    between atoms: C_2  and  N_3 
REMARK    2  A    between atoms: C_7  and  N_8 
REMARK       I    between atoms: N_8  and  C_9 
REMARK    3  A    between atoms: C_9  and  C_10 
REMARK    4  A    between atoms: C_10  and  C_11 
REMARK    5  A    between atoms: C_11  and  C_12 
ROOT
HETATM    1  C   UNL     1     -12.550   4.832 -33.644  1.00  0.00    -0.028 A 
HETATM    2  C   UNL     1     -13.318   5.542 -34.511  1.00  0.00     0.015 A 
HETATM    3  C   UNL     1     -13.174   5.602 -36.009  1.00  0.00     0.069 C 
HETATM    4  N   UNL     1     -14.343   6.332 -34.032  1.00  0.00    -0.326 N 
HETATM    5  C   UNL     1     -14.686   6.493 -32.720  1.00  0.00     0.266 A 
HETATM    6  O   UNL     1     -15.616   7.217 -32.387  1.00  0.00    -0.267 OA
HETATM    7  C   UNL     1     -13.862   5.743 -31.749  1.00  0.00     0.105 A 
HETATM    8  C   UNL     1     -14.223   5.894 -30.279  1.00  0.00     0.026 C 
HETATM    9  N   UNL     1     -14.523   6.018 -29.061  1.00  0.00    -0.096 N 
HETATM   10  C   UNL     1     -12.849   4.956 -32.180  1.00  0.00    -0.029 A 
HETATM   11  C   UNL     1     -11.985   4.188 -31.199  1.00  0.00     0.050 C 
HETATM   12  H   UNL     1     -14.916   6.868 -34.675  1.00  0.00     0.169 HD
ENDROOT
BRANCH   1  13
HETATM   13  C   UNL     1     -11.379   3.905 -33.995  1.00  0.00     0.050 C 
BRANCH  13  14
HETATM   14  C   UNL     1     -11.610   2.505 -34.566  1.00  0.00     0.108 C 
BRANCH  14  15
HETATM   15  C   UNL     1     -10.549   1.523 -34.091  1.00  0.00     0.222 C 
HETATM   16  N   UNL     1      -9.316   1.724 -34.683  1.00  0.00    -0.327 N 
HETATM   17  H   UNL     1      -9.257   2.436 -35.399  1.00  0.00     0.169 HD
HETATM   18  O   UNL     1     -10.834   0.661 -33.265  1.00  0.00    -0.273 OA
BRANCH  16  19
HETATM   19  C   UNL     1      -8.114   1.031 -34.417  1.00  0.00     0.035 A 
HETATM   20  C   UNL     1      -7.927  -0.330 -34.675  1.00  0.00     0.044 A 
HETATM   21  C   UNL     1      -6.701  -0.958 -34.344  1.00  0.00     0.005 A 
HETATM   22  C   UNL     1      -5.682  -0.194 -33.776  1.00  0.00     0.046 A 
HETATM   23  C   UNL     1      -6.226  -2.303 -34.454  1.00  0.00     0.003 A 
HETATM   24  N   UNL     1      -4.613  -1.044 -33.560  1.00  0.00    -0.346 N 
HETATM   25  C   UNL     1      -5.843   1.176 -33.523  1.00  0.00     0.033 A 
HETATM   26  C   UNL     1      -4.922  -2.333 -33.956  1.00  0.00     0.046 A 
HETATM   27  C   UNL     1      -4.168  -3.519 -33.922  1.00  0.00     0.030 A 
HETATM   28  C   UNL     1      -4.761  -4.693 -34.396  1.00  0.00     0.002 A 
HETATM   29  C   UNL     1      -6.060  -4.687 -34.892  1.00  0.00     0.001 A 
HETATM   30  C   UNL     1      -6.800  -3.501 -34.928  1.00  0.00     0.014 A 
HETATM   31  C   UNL     1      -7.072   1.766 -33.841  1.00  0.00     0.032 A 
BRANCH  24  32
HETATM   32  C   UNL     1      -3.339  -0.646 -32.982  1.00  0.00     0.125 C 
HETATM   33  C   UNL     1      -3.397  -0.561 -31.467  1.00  0.00     0.027 C 
ENDBRANCH  24  32
ENDBRANCH  16  19
ENDBRANCH  14  15
ENDBRANCH  13  14
ENDBRANCH   1  13
TORSDOF 5
ENDMDL
MODEL 7
REMARK VINA RESULT:      -9.3      6.979     10.782
REMARK  5 active torsions:
REMARK  status: ('A' for Active; 'I' for Inactive)
REMARK    1  A    between atoms: C_2  and  N_3 
REMARK    2  A    between atoms: C_7  and  N_8 
REMARK       I    between atoms: N_8  and  C_9 
REMARK    3  A    between atoms: C_9  and  C_10 
REMARK    4  A    between atoms: C_10  and  C_11 
REMARK    5  A    between atoms: C_11  and  C_12 
ROOT
HETATM    1  C   UNL     1      -0.967   6.581 -29.740  1.00  0.00    -0.028 A 
HETATM    2  C   UNL     1       0.198   6.227 -29.136  1.00  0.00     0.015 A 
HETATM    3  C   UNL     1       0.933   4.921 -29.282  1.00  0.00     0.069 C 
HETATM    4  N   UNL     1       0.813   7.102 -28.266  1.00  0.00    -0.326 N 
HETATM    5  C   UNL     1       0.359   8.344 -27.922  1.00  0.00     0.266 A 
HETATM    6  O   UNL     1       0.976   9.055 -27.138  1.00  0.00    -0.267 OA
HETATM    7  C   UNL     1      -0.912   8.755 -28.552  1.00  0.00     0.105 A 
HETATM    8  C   UNL     1      -1.442  10.136 -28.196  1.00  0.00     0.026 C 
HETATM    9  N   UNL     1      -1.880  11.280 -27.902  1.00  0.00    -0.096 N 
HETATM   10  C   UNL     1      -1.546   7.925 -29.414  1.00  0.00    -0.029 A 
HETATM   11  C   UNL     1      -2.857   8.323 -30.062  1.00  0.00     0.050 C 
HETATM   12  H   UNL     1       1.680   6.841 -27.809  1.00  0.00     0.169 HD
ENDROOT
BRANCH   1  13
HETATM   13  C   UNL     1      -1.783   5.742 -30.733  1.00  0.00     0.050 C 
BRANCH  13  14
HETATM   14  C   UNL     1      -1.157   5.181 -32.011  1.00  0.00     0.108 C 
BRANCH  14  15
HETATM   15  C   UNL     1      -2.150   4.338 -32.798  1.00  0.00     0.222 C 
HETATM   16  N   UNL     1      -2.983   3.583 -31.993  1.00  0.00    -0.327 N 
HETATM   17  H   UNL     1      -2.813   3.612 -30.996  1.00  0.00     0.169 HD
HETATM   18  O   UNL     1      -2.150   4.372 -34.025  1.00  0.00    -0.273 OA
BRANCH  16  19
HETATM   19  C   UNL     1      -4.047   2.748 -32.403  1.00  0.00     0.035 A 
HETATM   20  C   UNL     1      -3.890   1.404 -32.755  1.00  0.00     0.044 A 
HETATM   21  C   UNL     1      -5.004   0.646 -33.191  1.00  0.00     0.005 A 
HETATM   22  C   UNL     1      -6.257   1.256 -33.247  1.00  0.00     0.046 A 
HETATM   23  C   UNL     1      -5.158  -0.705 -33.636  1.00  0.00     0.003 A 
HETATM   24  N   UNL     1      -7.151   0.301 -33.697  1.00  0.00    -0.346 N 
HETATM   25  C   UNL     1      -6.439   2.598 -32.885  1.00  0.00     0.033 A 
HETATM   26  C   UNL     1      -6.505  -0.896 -33.948  1.00  0.00     0.046 A 
HETATM   27  C   UNL     1      -6.990  -2.129 -34.419  1.00  0.00     0.030 A 
HETATM   28  C   UNL     1      -6.080  -3.178 -34.582  1.00  0.00     0.002 A 
HETATM   29  C   UNL     1      -4.733  -3.009 -34.281  1.00  0.00     0.001 A 
HETATM   30  C   UNL     1      -4.261  -1.781 -33.807  1.00  0.00     0.014 A 
HETATM   31  C   UNL     1      -5.317   3.329 -32.476  1.00  0.00     0.032 A 
BRANCH  24  32
HETATM   32  C   UNL     1      -8.574   0.524 -33.895  1.00  0.00     0.125 C 
HETATM   33  C   UNL     1      -9.402   0.031 -32.721  1.00  0.00     0.027 C 
ENDBRANCH  24  32
ENDBRANCH  16  19
ENDBRANCH  14  15
ENDBRANCH  13  14
ENDBRANCH   1  13
TORSDOF 5
ENDMDL
MODEL 8
REMARK VINA RESULT:      -9.2      2.764     10.375
REMARK  5 active torsions:
REMARK  status: ('A' for Active; 'I' for Inactive)
REMARK    1  A    between atoms: C_2  and  N_3 
REMARK    2  A    between atoms: C_7  and  N_8 
REMARK       I    between atoms: N_8  and  C_9 
REMARK    3  A    between atoms: C_9  and  C_10 
REMARK    4  A    between atoms: C_10  and  C_11 
REMARK    5  A    between atoms: C_11  and  C_12 
ROOT
HETATM    1  C   UNL     1      -4.546  -0.772 -33.101  1.00  0.00    -0.028 A 
HETATM    2  C   UNL     1      -3.519  -1.316 -32.398  1.00  0.00     0.015 A 
HETATM    3  C   UNL     1      -2.580  -0.598 -31.465  1.00  0.00     0.069 C 
HETATM    4  N   UNL     1      -3.237  -2.661 -32.523  1.00  0.00    -0.326 N 
HETATM    5  C   UNL     1      -3.903  -3.549 -33.319  1.00  0.00     0.266 A 
HETATM    6  O   UNL     1      -3.582  -4.730 -33.365  1.00  0.00    -0.267 OA
HETATM    7  C   UNL     1      -5.019  -2.987 -34.107  1.00  0.00     0.105 A 
HETATM    8  C   UNL     1      -5.788  -3.952 -34.997  1.00  0.00     0.026 C 
HETATM    9  N   UNL     1      -6.425  -4.752 -35.733  1.00  0.00    -0.096 N 
HETATM   10  C   UNL     1      -5.329  -1.673 -34.009  1.00  0.00    -0.029 A 
HETATM   11  C   UNL     1      -6.462  -1.074 -34.818  1.00  0.00     0.050 C 
HETATM   12  H   UNL     1      -2.468  -3.070 -32.004  1.00  0.00     0.169 HD
ENDROOT
BRANCH   1  13
HETATM   13  C   UNL     1      -5.004   0.693 -33.083  1.00  0.00     0.050 C 
BRANCH  13  14
HETATM   14  C   UNL     1      -5.295   1.424 -31.771  1.00  0.00     0.108 C 
BRANCH  14  15
HETATM   15  C   UNL     1      -6.778   1.725 -31.614  1.00  0.00     0.222 C 
HETATM   16  N   UNL     1      -7.467   1.714 -32.814  1.00  0.00    -0.327 N 
HETATM   17  H   UNL     1      -6.924   1.578 -33.657  1.00  0.00     0.169 HD
HETATM   18  O   UNL     1      -7.247   1.950 -30.503  1.00  0.00    -0.273 OA
BRANCH  16  19
HETATM   19  C   UNL     1      -8.855   1.892 -33.008  1.00  0.00     0.035 A 
HETATM   20  C   UNL     1      -9.636   2.784 -32.267  1.00  0.00     0.044 A 
HETATM   21  C   UNL     1     -11.030   2.874 -32.499  1.00  0.00     0.005 A 
HETATM   22  C   UNL     1     -11.605   2.074 -33.487  1.00  0.00     0.046 A 
HETATM   23  C   UNL     1     -12.076   3.647 -31.904  1.00  0.00     0.003 A 
HETATM   24  N   UNL     1     -12.957   2.363 -33.504  1.00  0.00    -0.346 N 
HETATM   25  C   UNL     1     -10.837   1.184 -34.251  1.00  0.00     0.033 A 
HETATM   26  C   UNL     1     -13.270   3.309 -32.544  1.00  0.00     0.046 A 
HETATM   27  C   UNL     1     -14.495   3.898 -32.189  1.00  0.00     0.030 A 
HETATM   28  C   UNL     1     -14.501   4.840 -31.155  1.00  0.00     0.002 A 
HETATM   29  C   UNL     1     -13.325   5.188 -30.500  1.00  0.00     0.001 A 
HETATM   30  C   UNL     1     -12.109   4.602 -30.865  1.00  0.00     0.014 A 
HETATM   31  C   UNL     1      -9.465   1.100 -33.987  1.00  0.00     0.032 A 
BRANCH  24  32
HETATM   32  C   UNL     1     -13.927   1.747 -34.396  1.00  0.00     0.125 C 
HETATM   33  C   UNL     1     -14.508   0.468 -33.818  1.00  0.00     0.027 C 
ENDBRANCH  24  32
ENDBRANCH  16  19
ENDBRANCH  14  15
ENDBRANCH  13  14
ENDBRANCH   1  13
TORSDOF 5
ENDMDL
MODEL 9
REMARK VINA RESULT:      -9.1      5.093      8.423
REMARK  5 active torsions:
REMARK  status: ('A' for Active; 'I' for Inactive)
REMARK    1  A    between atoms: C_2  and  N_3 
REMARK    2  A    between atoms: C_7  and  N_8 
REMARK       I    between atoms: N_8  and  C_9 
REMARK    3  A    between atoms: C_9  and  C_10 
REMARK    4  A    between atoms: C_10  and  C_11 
REMARK    5  A    between atoms: C_11  and  C_12 
ROOT
HETATM    1  C   UNL     1      -7.098  -0.004 -32.504  1.00  0.00    -0.028 A 
HETATM    2  C   UNL     1      -7.221   0.346 -31.197  1.00  0.00     0.015 A 
HETATM    3  C   UNL     1      -6.447  -0.216 -30.033  1.00  0.00     0.069 C 
HETATM    4  N   UNL     1      -8.151   1.294 -30.824  1.00  0.00    -0.326 N 
HETATM    5  C   UNL     1      -9.009   1.949 -31.662  1.00  0.00     0.266 A 
HETATM    6  O   UNL     1      -9.803   2.780 -31.239  1.00  0.00    -0.267 OA
HETATM    7  C   UNL     1      -8.910   1.583 -33.090  1.00  0.00     0.105 A 
HETATM    8  C   UNL     1      -9.845   2.301 -34.050  1.00  0.00     0.026 C 
HETATM    9  N   UNL     1     -10.620   2.896 -34.846  1.00  0.00    -0.096 N 
HETATM   10  C   UNL     1      -8.007   0.658 -33.495  1.00  0.00    -0.029 A 
HETATM   11  C   UNL     1      -7.898   0.260 -34.953  1.00  0.00     0.050 C 
HETATM   12  H   UNL     1      -8.250   1.554 -29.849  1.00  0.00     0.169 HD
ENDROOT
BRANCH   1  13
HETATM   13  C   UNL     1      -6.122  -1.029 -33.097  1.00  0.00     0.050 C 
BRANCH  13  14
HETATM   14  C   UNL     1      -4.709  -0.632 -33.529  1.00  0.00     0.108 C 
BRANCH  14  15
HETATM   15  C   UNL     1      -4.129   0.445 -32.624  1.00  0.00     0.222 C 
HETATM   16  N   UNL     1      -4.543   1.721 -32.959  1.00  0.00    -0.327 N 
HETATM   17  H   UNL     1      -5.118   1.818 -33.786  1.00  0.00     0.169 HD
HETATM   18  O   UNL     1      -3.370   0.137 -31.709  1.00  0.00    -0.273 OA
BRANCH  16  19
HETATM   19  C   UNL     1      -4.240   2.926 -32.286  1.00  0.00     0.035 A 
HETATM   20  C   UNL     1      -2.951   3.459 -32.187  1.00  0.00     0.044 A 
HETATM   21  C   UNL     1      -2.726   4.654 -31.462  1.00  0.00     0.005 A 
HETATM   22  C   UNL     1      -3.811   5.298 -30.866  1.00  0.00     0.046 A 
HETATM   23  C   UNL     1      -1.552   5.414 -31.162  1.00  0.00     0.003 A 
HETATM   24  N   UNL     1      -3.315   6.424 -30.236  1.00  0.00    -0.346 N 
HETATM   25  C   UNL     1      -5.113   4.789 -30.966  1.00  0.00     0.033 A 
HETATM   26  C   UNL     1      -1.943   6.512 -30.393  1.00  0.00     0.046 A 
HETATM   27  C   UNL     1      -1.016   7.462 -29.931  1.00  0.00     0.030 A 
HETATM   28  C   UNL     1       0.333   7.280 -30.251  1.00  0.00     0.002 A 
HETATM   29  C   UNL     1       0.746   6.192 -31.012  1.00  0.00     0.001 A 
HETATM   30  C   UNL     1      -0.185   5.255 -31.473  1.00  0.00     0.014 A 
HETATM   31  C   UNL     1      -5.303   3.595 -31.672  1.00  0.00     0.032 A 
BRANCH  24  32
HETATM   32  C   UNL     1      -4.119   7.382 -29.493  1.00  0.00     0.125 C 
HETATM   33  C   UNL     1      -4.211   7.032 -28.018  1.00  0.00     0.027 C 
ENDBRANCH  24  32
ENDBRANCH  16  19
ENDBRANCH  14  15
ENDBRANCH  13  14
ENDBRANCH   1  13
TORSDOF 5
ENDMDL
MODEL 10
REMARK VINA RESULT:      -9.0      6.218     10.550
REMARK  5 active torsions:
REMARK  status: ('A' for Active; 'I' for Inactive)
REMARK    1  A    between atoms: C_2  and  N_3 
REMARK    2  A    between atoms: C_7  and  N_8 
REMARK       I    between atoms: N_8  and  C_9 
REMARK    3  A    between atoms: C_9  and  C_10 
REMARK    4  A    between atoms: C_10  and  C_11 
REMARK    5  A    between atoms: C_11  and  C_12 
ROOT
HETATM    1  C   UNL     1      -5.582   0.032 -33.260  1.00  0.00    -0.028 A 
HETATM    2  C   UNL     1      -4.369  -0.196 -32.692  1.00  0.00     0.015 A 
HETATM    3  C   UNL     1      -3.534   0.787 -31.914  1.00  0.00     0.069 C 
HETATM    4  N   UNL     1      -3.770  -1.431 -32.824  1.00  0.00    -0.326 N 
HETATM    5  C   UNL     1      -4.283  -2.503 -33.499  1.00  0.00     0.266 A 
HETATM    6  O   UNL     1      -3.678  -3.567 -33.562  1.00  0.00    -0.267 OA
HETATM    7  C   UNL     1      -5.596  -2.285 -34.140  1.00  0.00     0.105 A 
HETATM    8  C   UNL     1      -6.199  -3.461 -34.892  1.00  0.00     0.026 C 
HETATM    9  N   UNL     1      -6.698  -4.436 -35.516  1.00  0.00    -0.096 N 
HETATM   10  C   UNL     1      -6.216  -1.086 -34.031  1.00  0.00    -0.029 A 
HETATM   11  C   UNL     1      -7.558  -0.838 -34.690  1.00  0.00     0.050 C 
HETATM   12  H   UNL     1      -2.863  -1.605 -32.406  1.00  0.00     0.169 HD
ENDROOT
BRANCH   1  13
HETATM   13  C   UNL     1      -6.393   1.335 -33.213  1.00  0.00     0.050 C 
BRANCH  13  14
HETATM   14  C   UNL     1      -6.239   2.412 -34.287  1.00  0.00     0.108 C 
BRANCH  14  15
HETATM   15  C   UNL     1      -5.860   3.756 -33.683  1.00  0.00     0.222 C 
HETATM   16  N   UNL     1      -5.389   3.659 -32.386  1.00  0.00    -0.327 N 
HETATM   17  H   UNL     1      -5.404   2.742 -31.957  1.00  0.00     0.169 HD
HETATM   18  O   UNL     1      -5.993   4.785 -34.338  1.00  0.00    -0.273 OA
BRANCH  16  19
HETATM   19  C   UNL     1      -4.899   4.702 -31.570  1.00  0.00     0.035 A 
HETATM   20  C   UNL     1      -3.540   4.982 -31.397  1.00  0.00     0.044 A 
HETATM   21  C   UNL     1      -3.130   6.024 -30.531  1.00  0.00     0.005 A 
HETATM   22  C   UNL     1      -4.102   6.776 -29.869  1.00  0.00     0.046 A 
HETATM   23  C   UNL     1      -1.850   6.523 -30.131  1.00  0.00     0.003 A 
HETATM   24  N   UNL     1      -3.435   7.713 -29.103  1.00  0.00    -0.346 N 
HETATM   25  C   UNL     1      -5.470   6.522 -30.040  1.00  0.00     0.033 A 
HETATM   26  C   UNL     1      -2.065   7.574 -29.238  1.00  0.00     0.046 A 
HETATM   27  C   UNL     1      -1.000   8.283 -28.657  1.00  0.00     0.030 A 
HETATM   28  C   UNL     1       0.305   7.904 -28.987  1.00  0.00     0.002 A 
HETATM   29  C   UNL     1       0.543   6.857 -29.870  1.00  0.00     0.001 A 
HETATM   30  C   UNL     1      -0.524   6.161 -30.449  1.00  0.00     0.014 A 
HETATM   31  C   UNL     1      -5.846   5.472 -30.887  1.00  0.00     0.032 A 
BRANCH  24  32
HETATM   32  C   UNL     1      -4.079   8.704 -28.256  1.00  0.00     0.125 C 
HETATM   33  C   UNL     1      -4.362   9.999 -28.998  1.00  0.00     0.027 C 
ENDBRANCH  24  32
ENDBRANCH  16  19
ENDBRANCH  14  15
ENDBRANCH  13  14
ENDBRANCH   1  13
TORSDOF 5
ENDMDL
