MODEL 1
REMARK VINA RESULT:      -7.8      0.000      0.000
REMARK  9 active torsions:
REMARK  status: ('A' for Active; 'I' for Inactive)
REMARK    1  A    between atoms: C_2  and  O_3 
REMARK    2  A    between atoms: O_3  and  C_4 
REMARK    3  A    between atoms: C_4  and  C_5 
REMARK    4  A    between atoms: C_10  and  N_11 
REMARK       I    between atoms: N_11  and  C_12 
REMARK    5  A    between atoms: C_12  and  C_13 
REMARK    6  A    between atoms: C_13  and  N_14 
REMARK    7  A    between atoms: C_16  and  C_17 
REMARK    8  A    between atoms: C_17  and  C_18 
REMARK    9  A    between atoms: C_18  and  O_19 
ROOT
HETATM    1  C   UNL     1      -6.074   1.153 -33.033  1.00  0.00     0.137 A 
HETATM    2  N   UNL     1      -4.967   0.355 -32.906  1.00  0.00    -0.349 N 
HETATM    3  H   UNL     1      -4.111   0.634 -32.442  1.00  0.00     0.166 HD
HETATM    4  C   UNL     1      -5.178  -0.866 -33.493  1.00  0.00     0.045 A 
HETATM    5  C   UNL     1      -6.474  -0.859 -34.027  1.00  0.00     0.021 A 
HETATM    6  C   UNL     1      -7.035   0.432 -33.737  1.00  0.00     0.080 A 
HETATM    7  C   UNL     1      -4.305  -1.959 -33.583  1.00  0.00     0.032 A 
HETATM    8  C   UNL     1      -4.759  -3.104 -34.237  1.00  0.00     0.026 A 
HETATM    9  C   UNL     1      -6.038  -3.143 -34.774  1.00  0.00     0.035 A 
HETATM   10 CL   UNL     1      -6.581  -4.569 -35.571  1.00  0.00    -0.084 Cl
HETATM   11  C   UNL     1      -6.898  -2.041 -34.677  1.00  0.00     0.040 A 
ENDROOT
BRANCH   6  12
HETATM   12  N   UNL     1      -8.263   1.035 -34.016  1.00  0.00    -0.323 N 
HETATM   13  C   UNL     1      -9.478   0.836 -33.404  1.00  0.00     0.248 C 
HETATM   14  O   UNL     1      -9.719   0.104 -32.452  1.00  0.00    -0.271 OA
HETATM   15  H   UNL     1      -8.223   1.638 -34.841  1.00  0.00     0.169 HD
BRANCH  13  16
HETATM   16  C   UNL     1     -10.611   1.687 -33.997  1.00  0.00     0.338 C 
BRANCH  16  17
HETATM   17  N   UNL     1     -11.774   2.025 -33.024  1.00  0.00    -0.059 N 
HETATM   18  H   UNL     1     -11.646   1.457 -32.177  1.00  0.00     0.280 HD
HETATM   19  C   UNL     1     -11.793   3.511 -32.648  1.00  0.00     0.190 C 
HETATM   20  C   UNL     1     -12.976   3.793 -31.712  1.00  0.00     0.033 C 
HETATM   21  C   UNL     1     -14.300   3.378 -32.333  1.00  0.00     0.004 C 
HETATM   22  C   UNL     1     -14.264   1.904 -32.688  1.00  0.00     0.028 C 
HETATM   23  C   UNL     1     -13.110   1.574 -33.623  1.00  0.00     0.236 C 
BRANCH  19  24
HETATM   24  C   UNL     1     -10.470   3.993 -32.026  1.00  0.00     0.059 C 
BRANCH  24  25
HETATM   25  C   UNL     1     -10.270   3.679 -30.548  1.00  0.00     0.166 C 
BRANCH  25  26
HETATM   26  O   UNL     1      -9.798   2.351 -30.410  1.00  0.00    -0.401 OA
HETATM   27  H   UNL     1      -9.257   2.108 -31.181  1.00  0.00     0.209 HD
ENDBRANCH  25  26
ENDBRANCH  24  25
ENDBRANCH  19  24
ENDBRANCH  16  17
ENDBRANCH  13  16
ENDBRANCH   6  12
BRANCH   1  28
HETATM   28  C   UNL     1      -6.167   2.500 -32.520  1.00  0.00     0.312 C 
HETATM   29  O   UNL     1      -7.057   2.876 -31.763  1.00  0.00    -0.258 OA
BRANCH  28  30
HETATM   30  O   UNL     1      -5.147   3.256 -33.003  1.00  0.00    -0.317 OA
BRANCH  30  31
HETATM   31  C   UNL     1      -4.392   3.997 -32.032  1.00  0.00     0.175 C 
HETATM   32  C   UNL     1      -3.025   3.366 -31.846  1.00  0.00     0.034 C 
ENDBRANCH  30  31
ENDBRANCH  28  30
ENDBRANCH   1  28
TORSDOF 9
ENDMDL
MODEL 2
REMARK VINA RESULT:      -7.4      1.984      2.931
REMARK  9 active torsions:
REMARK  status: ('A' for Active; 'I' for Inactive)
REMARK    1  A    between atoms: C_2  and  O_3 
REMARK    2  A    between atoms: O_3  and  C_4 
REMARK    3  A    between atoms: C_4  and  C_5 
REMARK    4  A    between atoms: C_10  and  N_11 
REMARK       I    between atoms: N_11  and  C_12 
REMARK    5  A    between atoms: C_12  and  C_13 
REMARK    6  A    between atoms: C_13  and  N_14 
REMARK    7  A    between atoms: C_16  and  C_17 
REMARK    8  A    between atoms: C_17  and  C_18 
REMARK    9  A    between atoms: C_18  and  O_19 
ROOT
HETATM    1  C   UNL     1      -5.903   0.430 -32.073  1.00  0.00     0.137 A 
HETATM    2  N   UNL     1      -4.744  -0.293 -32.182  1.00  0.00    -0.349 N 
HETATM    3  H   UNL     1      -3.876  -0.057 -31.717  1.00  0.00     0.166 HD
HETATM    4  C   UNL     1      -4.921  -1.375 -33.006  1.00  0.00     0.045 A 
HETATM    5  C   UNL     1      -6.249  -1.351 -33.454  1.00  0.00     0.021 A 
HETATM    6  C   UNL     1      -6.865  -0.195 -32.863  1.00  0.00     0.080 A 
HETATM    7  C   UNL     1      -3.993  -2.357 -33.377  1.00  0.00     0.032 A 
HETATM    8  C   UNL     1      -4.420  -3.368 -34.236  1.00  0.00     0.026 A 
HETATM    9  C   UNL     1      -5.729  -3.387 -34.698  1.00  0.00     0.035 A 
HETATM   10 CL   UNL     1      -6.239  -4.649 -35.752  1.00  0.00    -0.084 Cl
HETATM   11  C   UNL     1      -6.645  -2.397 -34.319  1.00  0.00     0.040 A 
ENDROOT
BRANCH   6  12
HETATM   12  N   UNL     1      -8.144   0.362 -32.938  1.00  0.00    -0.323 N 
HETATM   13  C   UNL     1      -8.892   0.650 -34.056  1.00  0.00     0.248 C 
HETATM   14  O   UNL     1      -8.593   0.439 -35.225  1.00  0.00    -0.271 OA
HETATM   15  H   UNL     1      -8.500   0.647 -32.023  1.00  0.00     0.169 HD
BRANCH  13  16
HETATM   16  C   UNL     1     -10.263   1.264 -33.734  1.00  0.00     0.338 C 
BRANCH  16  17
HETATM   17  N   UNL     1     -10.733   2.393 -34.693  1.00  0.00    -0.059 N 
HETATM   18  H   UNL     1     -10.474   2.115 -35.649  1.00  0.00     0.280 HD
HETATM   19  C   UNL     1     -12.247   2.617 -34.615  1.00  0.00     0.190 C 
HETATM   20  C   UNL     1     -12.651   3.758 -35.558  1.00  0.00     0.033 C 
HETATM   21  C   UNL     1     -11.899   5.042 -35.246  1.00  0.00     0.004 C 
HETATM   22  C   UNL     1     -10.405   4.801 -35.338  1.00  0.00     0.028 C 
HETATM   23  C   UNL     1      -9.953   3.681 -34.414  1.00  0.00     0.236 C 
BRANCH  19  24
HETATM   24  C   UNL     1     -13.061   1.343 -34.910  1.00  0.00     0.059 C 
BRANCH  24  25
HETATM   25  C   UNL     1     -14.281   1.108 -34.028  1.00  0.00     0.166 C 
BRANCH  25  26
HETATM   26  O   UNL     1     -15.264   0.402 -34.764  1.00  0.00    -0.401 OA
HETATM   27  H   UNL     1     -15.206   0.637 -35.706  1.00  0.00     0.209 HD
ENDBRANCH  25  26
ENDBRANCH  24  25
ENDBRANCH  19  24
ENDBRANCH  16  17
ENDBRANCH  13  16
ENDBRANCH   6  12
BRANCH   1  28
HETATM   28  C   UNL     1      -6.041   1.628 -31.278  1.00  0.00     0.312 C 
HETATM   29  O   UNL     1      -6.627   1.660 -30.201  1.00  0.00    -0.258 OA
BRANCH  28  30
HETATM   30  O   UNL     1      -5.443   2.675 -31.903  1.00  0.00    -0.317 OA
BRANCH  30  31
HETATM   31  C   UNL     1      -6.317   3.601 -32.566  1.00  0.00     0.175 C 
HETATM   32  C   UNL     1      -6.163   3.474 -34.070  1.00  0.00     0.034 C 
ENDBRANCH  30  31
ENDBRANCH  28  30
ENDBRANCH   1  28
TORSDOF 9
ENDMDL
MODEL 3
REMARK VINA RESULT:      -7.3      2.644      5.683
REMARK  9 active torsions:
REMARK  status: ('A' for Active; 'I' for Inactive)
REMARK    1  A    between atoms: C_2  and  O_3 
REMARK    2  A    between atoms: O_3  and  C_4 
REMARK    3  A    between atoms: C_4  and  C_5 
REMARK    4  A    between atoms: C_10  and  N_11 
REMARK       I    between atoms: N_11  and  C_12 
REMARK    5  A    between atoms: C_12  and  C_13 
REMARK    6  A    between atoms: C_13  and  N_14 
REMARK    7  A    between atoms: C_16  and  C_17 
REMARK    8  A    between atoms: C_17  and  C_18 
REMARK    9  A    between atoms: C_18  and  O_19 
ROOT
HETATM    1  C   UNL     1      -6.732   0.156 -34.250  1.00  0.00     0.137 A 
HETATM    2  N   UNL     1      -7.251  -0.984 -34.807  1.00  0.00    -0.349 N 
HETATM    3  H   UNL     1      -8.141  -1.033 -35.286  1.00  0.00     0.166 HD
HETATM    4  C   UNL     1      -6.401  -2.045 -34.624  1.00  0.00     0.045 A 
HETATM    5  C   UNL     1      -5.286  -1.575 -33.916  1.00  0.00     0.021 A 
HETATM    6  C   UNL     1      -5.508  -0.175 -33.675  1.00  0.00     0.080 A 
HETATM    7  C   UNL     1      -6.556  -3.375 -35.037  1.00  0.00     0.032 A 
HETATM    8  C   UNL     1      -5.538  -4.277 -34.728  1.00  0.00     0.026 A 
HETATM    9  C   UNL     1      -4.414  -3.853 -34.035  1.00  0.00     0.035 A 
HETATM   10 CL   UNL     1      -3.165  -4.981 -33.671  1.00  0.00    -0.084 Cl
HETATM   11  C   UNL     1      -4.274  -2.519 -33.628  1.00  0.00     0.040 A 
ENDROOT
BRANCH   6  12
HETATM   12  N   UNL     1      -4.777   0.819 -33.021  1.00  0.00    -0.323 N 
HETATM   13  C   UNL     1      -4.126   0.752 -31.810  1.00  0.00     0.248 C 
HETATM   14  O   UNL     1      -4.027  -0.220 -31.072  1.00  0.00    -0.271 OA
HETATM   15  H   UNL     1      -4.823   1.719 -33.503  1.00  0.00     0.169 HD
BRANCH  13  16
HETATM   16  C   UNL     1      -3.428   2.063 -31.417  1.00  0.00     0.338 C 
BRANCH  16  17
HETATM   17  N   UNL     1      -4.042   3.355 -32.023  1.00  0.00    -0.059 N 
HETATM   18  H   UNL     1      -4.823   3.074 -32.629  1.00  0.00     0.280 HD
HETATM   19  C   UNL     1      -4.552   4.310 -30.937  1.00  0.00     0.190 C 
HETATM   20  C   UNL     1      -5.119   5.578 -31.589  1.00  0.00     0.033 C 
HETATM   21  C   UNL     1      -4.093   6.268 -32.473  1.00  0.00     0.004 C 
HETATM   22  C   UNL     1      -3.608   5.310 -33.545  1.00  0.00     0.028 C 
HETATM   23  C   UNL     1      -3.028   4.037 -32.947  1.00  0.00     0.236 C 
BRANCH  19  24
HETATM   24  C   UNL     1      -5.588   3.660 -30.001  1.00  0.00     0.059 C 
BRANCH  24  25
HETATM   25  C   UNL     1      -6.966   3.406 -30.599  1.00  0.00     0.166 C 
BRANCH  25  26
HETATM   26  O   UNL     1      -7.059   2.051 -31.002  1.00  0.00    -0.401 OA
HETATM   27  H   UNL     1      -6.634   1.931 -31.869  1.00  0.00     0.209 HD
ENDBRANCH  25  26
ENDBRANCH  24  25
ENDBRANCH  19  24
ENDBRANCH  16  17
ENDBRANCH  13  16
ENDBRANCH   6  12
BRANCH   1  28
HETATM   28  C   UNL     1      -7.388   1.442 -34.274  1.00  0.00     0.312 C 
HETATM   29  O   UNL     1      -6.817   2.498 -34.020  1.00  0.00    -0.258 OA
BRANCH  28  30
HETATM   30  O   UNL     1      -8.697   1.293 -34.604  1.00  0.00    -0.317 OA
BRANCH  30  31
HETATM   31  C   UNL     1      -9.648   1.553 -33.560  1.00  0.00     0.175 C 
HETATM   32  C   UNL     1     -10.229   0.248 -33.050  1.00  0.00     0.034 C 
ENDBRANCH  30  31
ENDBRANCH  28  30
ENDBRANCH   1  28
TORSDOF 9
ENDMDL
MODEL 4
REMARK VINA RESULT:      -7.2      2.511      5.927
REMARK  9 active torsions:
REMARK  status: ('A' for Active; 'I' for Inactive)
REMARK    1  A    between atoms: C_2  and  O_3 
REMARK    2  A    between atoms: O_3  and  C_4 
REMARK    3  A    between atoms: C_4  and  C_5 
REMARK    4  A    between atoms: C_10  and  N_11 
REMARK       I    between atoms: N_11  and  C_12 
REMARK    5  A    between atoms: C_12  and  C_13 
REMARK    6  A    between atoms: C_13  and  N_14 
REMARK    7  A    between atoms: C_16  and  C_17 
REMARK    8  A    between atoms: C_17  and  C_18 
REMARK    9  A    between atoms: C_18  and  O_19 
ROOT
HETATM    1  C   UNL     1      -6.515   0.205 -34.101  1.00  0.00     0.137 A 
HETATM    2  N   UNL     1      -7.148  -0.863 -34.681  1.00  0.00    -0.349 N 
HETATM    3  H   UNL     1      -8.056  -0.817 -35.127  1.00  0.00     0.166 HD
HETATM    4  C   UNL     1      -6.385  -1.998 -34.574  1.00  0.00     0.045 A 
HETATM    5  C   UNL     1      -5.210  -1.653 -33.893  1.00  0.00     0.021 A 
HETATM    6  C   UNL     1      -5.303  -0.251 -33.588  1.00  0.00     0.080 A 
HETATM    7  C   UNL     1      -6.667  -3.292 -35.032  1.00  0.00     0.032 A 
HETATM    8  C   UNL     1      -5.720  -4.288 -34.800  1.00  0.00     0.026 A 
HETATM    9  C   UNL     1      -4.539  -3.988 -34.136  1.00  0.00     0.035 A 
HETATM   10 CL   UNL     1      -3.378  -5.231 -33.865  1.00  0.00    -0.084 Cl
HETATM   11  C   UNL     1      -4.272  -2.690 -33.682  1.00  0.00     0.040 A 
ENDROOT
BRANCH   6  12
HETATM   12  N   UNL     1      -4.468   0.650 -32.924  1.00  0.00    -0.323 N 
HETATM   13  C   UNL     1      -4.193   0.737 -31.579  1.00  0.00     0.248 C 
HETATM   14  O   UNL     1      -4.606   0.007 -30.687  1.00  0.00    -0.271 OA
HETATM   15  H   UNL     1      -4.094   1.367 -33.548  1.00  0.00     0.169 HD
BRANCH  13  16
HETATM   16  C   UNL     1      -3.219   1.871 -31.225  1.00  0.00     0.338 C 
BRANCH  16  17
HETATM   17  N   UNL     1      -3.872   3.256 -30.961  1.00  0.00    -0.059 N 
HETATM   18  H   UNL     1      -3.371   3.690 -30.175  1.00  0.00     0.280 HD
HETATM   19  C   UNL     1      -3.793   4.170 -32.189  1.00  0.00     0.190 C 
HETATM   20  C   UNL     1      -4.476   5.509 -31.882  1.00  0.00     0.033 C 
HETATM   21  C   UNL     1      -5.919   5.320 -31.443  1.00  0.00     0.004 C 
HETATM   22  C   UNL     1      -5.974   4.422 -30.222  1.00  0.00     0.028 C 
HETATM   23  C   UNL     1      -5.315   3.075 -30.479  1.00  0.00     0.236 C 
BRANCH  19  24
HETATM   24  C   UNL     1      -2.352   4.387 -32.687  1.00  0.00     0.059 C 
BRANCH  24  25
HETATM   25  C   UNL     1      -1.452   5.228 -31.791  1.00  0.00     0.166 C 
BRANCH  25  26
HETATM   26  O   UNL     1      -1.025   4.446 -30.689  1.00  0.00    -0.401 OA
HETATM   27  H   UNL     1      -1.584   4.629 -29.915  1.00  0.00     0.209 HD
ENDBRANCH  25  26
ENDBRANCH  24  25
ENDBRANCH  19  24
ENDBRANCH  16  17
ENDBRANCH  13  16
ENDBRANCH   6  12
BRANCH   1  28
HETATM   28  C   UNL     1      -7.060   1.541 -34.048  1.00  0.00     0.312 C 
HETATM   29  O   UNL     1      -6.382   2.540 -33.833  1.00  0.00    -0.258 OA
BRANCH  28  30
HETATM   30  O   UNL     1      -8.401   1.507 -34.261  1.00  0.00    -0.317 OA
BRANCH  30  31
HETATM   31  C   UNL     1      -9.230   1.611 -33.093  1.00  0.00     0.175 C 
HETATM   32  C   UNL     1     -10.677   1.331 -33.457  1.00  0.00     0.034 C 
ENDBRANCH  30  31
ENDBRANCH  28  30
ENDBRANCH   1  28
TORSDOF 9
ENDMDL
MODEL 5
REMARK VINA RESULT:      -7.0      1.575      2.019
REMARK  9 active torsions:
REMARK  status: ('A' for Active; 'I' for Inactive)
REMARK    1  A    between atoms: C_2  and  O_3 
REMARK    2  A    between atoms: O_3  and  C_4 
REMARK    3  A    between atoms: C_4  and  C_5 
REMARK    4  A    between atoms: C_10  and  N_11 
REMARK       I    between atoms: N_11  and  C_12 
REMARK    5  A    between atoms: C_12  and  C_13 
REMARK    6  A    between atoms: C_13  and  N_14 
REMARK    7  A    between atoms: C_16  and  C_17 
REMARK    8  A    between atoms: C_17  and  C_18 
REMARK    9  A    between atoms: C_18  and  O_19 
ROOT
HETATM    1  C   UNL     1      -5.699   1.160 -32.718  1.00  0.00     0.137 A 
HETATM    2  N   UNL     1      -4.651   0.276 -32.746  1.00  0.00    -0.349 N 
HETATM    3  H   UNL     1      -3.734   0.463 -32.359  1.00  0.00     0.166 HD
HETATM    4  C   UNL     1      -5.014  -0.889 -33.371  1.00  0.00     0.045 A 
HETATM    5  C   UNL     1      -6.351  -0.756 -33.768  1.00  0.00     0.021 A 
HETATM    6  C   UNL     1      -6.778   0.554 -33.357  1.00  0.00     0.080 A 
HETATM    7  C   UNL     1      -4.243  -2.036 -33.606  1.00  0.00     0.032 A 
HETATM    8  C   UNL     1      -4.847  -3.104 -34.268  1.00  0.00     0.026 A 
HETATM    9  C   UNL     1      -6.172  -3.017 -34.672  1.00  0.00     0.035 A 
HETATM   10 CL   UNL     1      -6.901  -4.351 -35.482  1.00  0.00    -0.084 Cl
HETATM   11  C   UNL     1      -6.929  -1.863 -34.431  1.00  0.00     0.040 A 
ENDROOT
BRANCH   6  12
HETATM   12  N   UNL     1      -7.976   1.260 -33.477  1.00  0.00    -0.323 N 
HETATM   13  C   UNL     1      -9.074   1.238 -32.650  1.00  0.00     0.248 C 
HETATM   14  O   UNL     1      -9.206   0.611 -31.606  1.00  0.00    -0.271 OA
HETATM   15  H   UNL     1      -8.030   1.790 -34.349  1.00  0.00     0.169 HD
BRANCH  13  16
HETATM   16  C   UNL     1     -10.213   2.158 -33.118  1.00  0.00     0.338 C 
BRANCH  16  17
HETATM   17  N   UNL     1     -11.646   1.577 -32.969  1.00  0.00    -0.059 N 
HETATM   18  H   UNL     1     -11.789   1.356 -31.975  1.00  0.00     0.280 HD
HETATM   19  C   UNL     1     -12.717   2.570 -33.434  1.00  0.00     0.190 C 
HETATM   20  C   UNL     1     -14.108   1.936 -33.292  1.00  0.00     0.033 C 
HETATM   21  C   UNL     1     -14.214   0.628 -34.061  1.00  0.00     0.004 C 
HETATM   22  C   UNL     1     -13.153  -0.342 -33.579  1.00  0.00     0.028 C 
HETATM   23  C   UNL     1     -11.753   0.239 -33.707  1.00  0.00     0.236 C 
BRANCH  19  24
HETATM   24  C   UNL     1     -12.649   3.920 -32.697  1.00  0.00     0.059 C 
BRANCH  24  25
HETATM   25  C   UNL     1     -13.028   5.150 -33.513  1.00  0.00     0.166 C 
BRANCH  25  26
HETATM   26  O   UNL     1     -13.394   4.750 -34.822  1.00  0.00    -0.401 OA
HETATM   27  H   UNL     1     -12.852   5.221 -35.478  1.00  0.00     0.209 HD
ENDBRANCH  25  26
ENDBRANCH  24  25
ENDBRANCH  19  24
ENDBRANCH  16  17
ENDBRANCH  13  16
ENDBRANCH   6  12
BRANCH   1  28
HETATM   28  C   UNL     1      -5.634   2.477 -32.130  1.00  0.00     0.312 C 
HETATM   29  O   UNL     1      -6.458   2.899 -31.325  1.00  0.00    -0.258 OA
BRANCH  28  30
HETATM   30  O   UNL     1      -4.553   3.148 -32.605  1.00  0.00    -0.317 OA
BRANCH  30  31
HETATM   31  C   UNL     1      -4.767   4.524 -32.957  1.00  0.00     0.175 C 
HETATM   32  C   UNL     1      -5.527   4.612 -34.267  1.00  0.00     0.034 C 
ENDBRANCH  30  31
ENDBRANCH  28  30
ENDBRANCH   1  28
TORSDOF 9
ENDMDL
MODEL 6
REMARK VINA RESULT:      -6.8      2.753      7.516
REMARK  9 active torsions:
REMARK  status: ('A' for Active; 'I' for Inactive)
REMARK    1  A    between atoms: C_2  and  O_3 
REMARK    2  A    between atoms: O_3  and  C_4 
REMARK    3  A    between atoms: C_4  and  C_5 
REMARK    4  A    between atoms: C_10  and  N_11 
REMARK       I    between atoms: N_11  and  C_12 
REMARK    5  A    between atoms: C_12  and  C_13 
REMARK    6  A    between atoms: C_13  and  N_14 
REMARK    7  A    between atoms: C_16  and  C_17 
REMARK    8  A    between atoms: C_17  and  C_18 
REMARK    9  A    between atoms: C_18  and  O_19 
ROOT
HETATM    1  C   UNL     1      -6.906   2.690 -33.720  1.00  0.00     0.137 A 
HETATM    2  N   UNL     1      -7.484   1.628 -34.366  1.00  0.00    -0.349 N 
HETATM    3  H   UNL     1      -8.340   1.682 -34.904  1.00  0.00     0.166 HD
HETATM    4  C   UNL     1      -6.745   0.487 -34.182  1.00  0.00     0.045 A 
HETATM    5  C   UNL     1      -5.645   0.821 -33.380  1.00  0.00     0.021 A 
HETATM    6  C   UNL     1      -5.759   2.223 -33.084  1.00  0.00     0.080 A 
HETATM    7  C   UNL     1      -6.988  -0.804 -34.670  1.00  0.00     0.032 A 
HETATM    8  C   UNL     1      -6.079  -1.808 -34.341  1.00  0.00     0.026 A 
HETATM    9  C   UNL     1      -4.972  -1.520 -33.556  1.00  0.00     0.035 A 
HETATM   10 CL   UNL     1      -3.856  -2.773 -33.168  1.00  0.00    -0.084 Cl
HETATM   11  C   UNL     1      -4.743  -0.224 -33.074  1.00  0.00     0.040 A 
ENDROOT
BRANCH   6  12
HETATM   12  N   UNL     1      -4.990   3.116 -32.334  1.00  0.00    -0.323 N 
HETATM   13  C   UNL     1      -3.622   3.252 -32.297  1.00  0.00     0.248 C 
HETATM   14  O   UNL     1      -2.795   2.631 -32.953  1.00  0.00    -0.271 OA
HETATM   15  H   UNL     1      -5.555   3.668 -31.685  1.00  0.00     0.169 HD
BRANCH  13  16
HETATM   16  C   UNL     1      -3.141   4.353 -31.339  1.00  0.00     0.338 C 
BRANCH  16  17
HETATM   17  N   UNL     1      -1.796   5.031 -31.720  1.00  0.00    -0.059 N 
HETATM   18  H   UNL     1      -1.419   4.535 -32.538  1.00  0.00     0.280 HD
HETATM   19  C   UNL     1      -1.979   6.515 -32.057  1.00  0.00     0.190 C 
HETATM   20  C   UNL     1      -0.619   7.140 -32.396  1.00  0.00     0.033 C 
HETATM   21  C   UNL     1       0.383   6.963 -31.266  1.00  0.00     0.004 C 
HETATM   22  C   UNL     1       0.555   5.489 -30.955  1.00  0.00     0.028 C 
HETATM   23  C   UNL     1      -0.767   4.824 -30.604  1.00  0.00     0.236 C 
BRANCH  19  24
HETATM   24  C   UNL     1      -2.994   6.756 -33.189  1.00  0.00     0.059 C 
BRANCH  24  25
HETATM   25  C   UNL     1      -2.713   6.043 -34.506  1.00  0.00     0.166 C 
BRANCH  25  26
HETATM   26  O   UNL     1      -3.906   5.446 -34.981  1.00  0.00    -0.401 OA
HETATM   27  H   UNL     1      -3.695   4.724 -35.596  1.00  0.00     0.209 HD
ENDBRANCH  25  26
ENDBRANCH  24  25
ENDBRANCH  19  24
ENDBRANCH  16  17
ENDBRANCH  13  16
ENDBRANCH   6  12
BRANCH   1  28
HETATM   28  C   UNL     1      -7.443   4.030 -33.722  1.00  0.00     0.312 C 
HETATM   29  O   UNL     1      -6.828   5.005 -34.143  1.00  0.00    -0.258 OA
BRANCH  28  30
HETATM   30  O   UNL     1      -8.694   4.033 -33.193  1.00  0.00    -0.317 OA
BRANCH  30  31
HETATM   31  C   UNL     1      -8.776   4.085 -31.760  1.00  0.00     0.175 C 
HETATM   32  C   UNL     1     -10.144   3.615 -31.302  1.00  0.00     0.034 C 
ENDBRANCH  30  31
ENDBRANCH  28  30
ENDBRANCH   1  28
TORSDOF 9
ENDMDL
MODEL 7
REMARK VINA RESULT:      -6.8      2.732      4.579
REMARK  9 active torsions:
REMARK  status: ('A' for Active; 'I' for Inactive)
REMARK    1  A    between atoms: C_2  and  O_3 
REMARK    2  A    between atoms: O_3  and  C_4 
REMARK    3  A    between atoms: C_4  and  C_5 
REMARK    4  A    between atoms: C_10  and  N_11 
REMARK       I    between atoms: N_11  and  C_12 
REMARK    5  A    between atoms: C_12  and  C_13 
REMARK    6  A    between atoms: C_13  and  N_14 
REMARK    7  A    between atoms: C_16  and  C_17 
REMARK    8  A    between atoms: C_17  and  C_18 
REMARK    9  A    between atoms: C_18  and  O_19 
ROOT
HETATM    1  C   UNL     1      -6.516   0.671 -32.925  1.00  0.00     0.137 A 
HETATM    2  N   UNL     1      -5.220   0.559 -32.492  1.00  0.00    -0.349 N 
HETATM    3  H   UNL     1      -4.721  -0.317 -32.400  1.00  0.00     0.166 HD
HETATM    4  C   UNL     1      -4.696   1.793 -32.202  1.00  0.00     0.045 A 
HETATM    5  C   UNL     1      -5.694   2.744 -32.453  1.00  0.00     0.021 A 
HETATM    6  C   UNL     1      -6.852   2.022 -32.905  1.00  0.00     0.080 A 
HETATM    7  C   UNL     1      -3.414   2.114 -31.736  1.00  0.00     0.032 A 
HETATM    8  C   UNL     1      -3.118   3.459 -31.515  1.00  0.00     0.026 A 
HETATM    9  C   UNL     1      -4.074   4.434 -31.757  1.00  0.00     0.035 A 
HETATM   10 CL   UNL     1      -3.686   6.090 -31.485  1.00  0.00    -0.084 Cl
HETATM   11  C   UNL     1      -5.352   4.097 -32.222  1.00  0.00     0.040 A 
ENDROOT
BRANCH   6  12
HETATM   12  N   UNL     1      -8.139   2.405 -33.289  1.00  0.00    -0.323 N 
HETATM   13  C   UNL     1      -9.215   2.722 -32.493  1.00  0.00     0.248 C 
HETATM   14  O   UNL     1      -9.247   2.768 -31.269  1.00  0.00    -0.271 OA
HETATM   15  H   UNL     1      -8.276   2.353 -34.300  1.00  0.00     0.169 HD
BRANCH  13  16
HETATM   16  C   UNL     1     -10.476   3.095 -33.288  1.00  0.00     0.338 C 
BRANCH  16  17
HETATM   17  N   UNL     1     -11.747   2.265 -32.954  1.00  0.00    -0.059 N 
HETATM   18  H   UNL     1     -11.608   1.845 -32.026  1.00  0.00     0.280 HD
HETATM   19  C   UNL     1     -13.010   3.133 -32.942  1.00  0.00     0.190 C 
HETATM   20  C   UNL     1     -14.235   2.261 -32.637  1.00  0.00     0.033 C 
HETATM   21  C   UNL     1     -14.376   1.117 -33.629  1.00  0.00     0.004 C 
HETATM   22  C   UNL     1     -13.121   0.266 -33.618  1.00  0.00     0.028 C 
HETATM   23  C   UNL     1     -11.877   1.087 -33.924  1.00  0.00     0.236 C 
BRANCH  19  24
HETATM   24  C   UNL     1     -12.918   4.318 -31.962  1.00  0.00     0.059 C 
BRANCH  24  25
HETATM   25  C   UNL     1     -13.059   3.978 -30.484  1.00  0.00     0.166 C 
BRANCH  25  26
HETATM   26  O   UNL     1     -11.809   3.542 -29.981  1.00  0.00    -0.401 OA
HETATM   27  H   UNL     1     -11.865   3.408 -29.019  1.00  0.00     0.209 HD
ENDBRANCH  25  26
ENDBRANCH  24  25
ENDBRANCH  19  24
ENDBRANCH  16  17
ENDBRANCH  13  16
ENDBRANCH   6  12
BRANCH   1  28
HETATM   28  C   UNL     1      -7.343  -0.449 -33.307  1.00  0.00     0.312 C 
HETATM   29  O   UNL     1      -8.550  -0.361 -33.508  1.00  0.00    -0.258 OA
BRANCH  28  30
HETATM   30  O   UNL     1      -6.592  -1.577 -33.396  1.00  0.00    -0.317 OA
BRANCH  30  31
HETATM   31  C   UNL     1      -6.387  -2.099 -34.718  1.00  0.00     0.175 C 
HETATM   32  C   UNL     1      -6.824  -3.551 -34.776  1.00  0.00     0.034 C 
ENDBRANCH  30  31
ENDBRANCH  28  30
ENDBRANCH   1  28
TORSDOF 9
ENDMDL
MODEL 8
REMARK VINA RESULT:      -6.6      3.758      7.801
REMARK  9 active torsions:
REMARK  status: ('A' for Active; 'I' for Inactive)
REMARK    1  A    between atoms: C_2  and  O_3 
REMARK    2  A    between atoms: O_3  and  C_4 
REMARK    3  A    between atoms: C_4  and  C_5 
REMARK    4  A    between atoms: C_10  and  N_11 
REMARK       I    between atoms: N_11  and  C_12 
REMARK    5  A    between atoms: C_12  and  C_13 
REMARK    6  A    between atoms: C_13  and  N_14 
REMARK    7  A    between atoms: C_16  and  C_17 
REMARK    8  A    between atoms: C_17  and  C_18 
REMARK    9  A    between atoms: C_18  and  O_19 
ROOT
HETATM    1  C   UNL     1      -5.015   1.827 -32.130  1.00  0.00     0.137 A 
HETATM    2  N   UNL     1      -5.870   0.769 -32.302  1.00  0.00    -0.349 N 
HETATM    3  H   UNL     1      -5.665  -0.183 -32.023  1.00  0.00     0.166 HD
HETATM    4  C   UNL     1      -7.033   1.176 -32.902  1.00  0.00     0.045 A 
HETATM    5  C   UNL     1      -6.929   2.555 -33.133  1.00  0.00     0.021 A 
HETATM    6  C   UNL     1      -5.638   2.960 -32.647  1.00  0.00     0.080 A 
HETATM    7  C   UNL     1      -8.155   0.412 -33.251  1.00  0.00     0.032 A 
HETATM    8  C   UNL     1      -9.228   1.065 -33.857  1.00  0.00     0.026 A 
HETATM    9  C   UNL     1      -9.169   2.430 -34.097  1.00  0.00     0.035 A 
HETATM   10 CL   UNL     1     -10.507   3.220 -34.840  1.00  0.00    -0.084 Cl
HETATM   11  C   UNL     1      -8.040   3.181 -33.744  1.00  0.00     0.040 A 
ENDROOT
BRANCH   6  12
HETATM   12  N   UNL     1      -4.962   4.181 -32.608  1.00  0.00    -0.323 N 
HETATM   13  C   UNL     1      -5.174   5.256 -31.777  1.00  0.00     0.248 C 
HETATM   14  O   UNL     1      -5.988   5.342 -30.866  1.00  0.00    -0.271 OA
HETATM   15  H   UNL     1      -4.281   4.274 -33.365  1.00  0.00     0.169 HD
BRANCH  13  16
HETATM   16  C   UNL     1      -4.222   6.432 -32.042  1.00  0.00     0.338 C 
BRANCH  16  17
HETATM   17  N   UNL     1      -2.726   6.170 -31.713  1.00  0.00    -0.059 N 
HETATM   18  H   UNL     1      -2.558   5.161 -31.814  1.00  0.00     0.280 HD
HETATM   19  C   UNL     1      -1.790   6.943 -32.649  1.00  0.00     0.190 C 
HETATM   20  C   UNL     1      -0.330   6.671 -32.262  1.00  0.00     0.033 C 
HETATM   21  C   UNL     1      -0.055   7.026 -30.810  1.00  0.00     0.004 C 
HETATM   22  C   UNL     1      -0.984   6.244 -29.901  1.00  0.00     0.028 C 
HETATM   23  C   UNL     1      -2.446   6.487 -30.241  1.00  0.00     0.236 C 
BRANCH  19  24
HETATM   24  C   UNL     1      -2.033   6.632 -34.137  1.00  0.00     0.059 C 
BRANCH  24  25
HETATM   25  C   UNL     1      -1.571   5.263 -34.621  1.00  0.00     0.166 C 
BRANCH  25  26
HETATM   26  O   UNL     1      -2.205   4.256 -33.853  1.00  0.00    -0.401 OA
HETATM   27  H   UNL     1      -2.652   4.654 -33.086  1.00  0.00     0.209 HD
ENDBRANCH  25  26
ENDBRANCH  24  25
ENDBRANCH  19  24
ENDBRANCH  16  17
ENDBRANCH  13  16
ENDBRANCH   6  12
BRANCH   1  28
HETATM   28  C   UNL     1      -3.707   1.724 -31.528  1.00  0.00     0.312 C 
HETATM   29  O   UNL     1      -2.872   2.622 -31.568  1.00  0.00    -0.258 OA
BRANCH  28  30
HETATM   30  O   UNL     1      -3.558   0.510 -30.938  1.00  0.00    -0.317 OA
BRANCH  30  31
HETATM   31  C   UNL     1      -2.630  -0.390 -31.565  1.00  0.00     0.175 C 
HETATM   32  C   UNL     1      -3.328  -1.688 -31.925  1.00  0.00     0.034 C 
ENDBRANCH  30  31
ENDBRANCH  28  30
ENDBRANCH   1  28
TORSDOF 9
ENDMDL
MODEL 9
REMARK VINA RESULT:      -6.5     15.672     17.842
REMARK  9 active torsions:
REMARK  status: ('A' for Active; 'I' for Inactive)
REMARK    1  A    between atoms: C_2  and  O_3 
REMARK    2  A    between atoms: O_3  and  C_4 
REMARK    3  A    between atoms: C_4  and  C_5 
REMARK    4  A    between atoms: C_10  and  N_11 
REMARK       I    between atoms: N_11  and  C_12 
REMARK    5  A    between atoms: C_12  and  C_13 
REMARK    6  A    between atoms: C_13  and  N_14 
REMARK    7  A    between atoms: C_16  and  C_17 
REMARK    8  A    between atoms: C_17  and  C_18 
REMARK    9  A    between atoms: C_18  and  O_19 
ROOT
HETATM    1  C   UNL     1      -3.650 -14.077 -41.226  1.00  0.00     0.137 A 
HETATM    2  N   UNL     1      -2.296 -14.030 -41.442  1.00  0.00    -0.349 N 
HETATM    3  H   UNL     1      -1.866 -13.819 -42.334  1.00  0.00     0.166 HD
HETATM    4  C   UNL     1      -1.611 -14.308 -40.287  1.00  0.00     0.045 A 
HETATM    5  C   UNL     1      -2.557 -14.549 -39.282  1.00  0.00     0.021 A 
HETATM    6  C   UNL     1      -3.852 -14.409 -39.889  1.00  0.00     0.080 A 
HETATM    7  C   UNL     1      -0.225 -14.361 -40.081  1.00  0.00     0.032 A 
HETATM    8  C   UNL     1       0.233 -14.667 -38.800  1.00  0.00     0.026 A 
HETATM    9  C   UNL     1      -0.670 -14.906 -37.773  1.00  0.00     0.035 A 
HETATM   10 CL   UNL     1      -0.083 -15.275 -36.197  1.00  0.00    -0.084 Cl
HETATM   11  C   UNL     1      -2.052 -14.851 -37.996  1.00  0.00     0.040 A 
ENDROOT
BRANCH   6  12
HETATM   12  N   UNL     1      -5.159 -14.539 -39.415  1.00  0.00    -0.323 N 
HETATM   13  C   UNL     1      -5.812 -13.776 -38.475  1.00  0.00     0.248 C 
HETATM   14  O   UNL     1      -5.382 -12.793 -37.886  1.00  0.00    -0.271 OA
HETATM   15  H   UNL     1      -5.627 -15.369 -39.784  1.00  0.00     0.169 HD
BRANCH  13  16
HETATM   16  C   UNL     1      -7.256 -14.232 -38.212  1.00  0.00     0.338 C 
BRANCH  16  17
HETATM   17  N   UNL     1      -8.283 -13.876 -39.322  1.00  0.00    -0.059 N 
HETATM   18  H   UNL     1      -7.784 -13.879 -40.220  1.00  0.00     0.280 HD
HETATM   19  C   UNL     1      -9.441 -14.879 -39.373  1.00  0.00     0.190 C 
HETATM   20  C   UNL     1     -10.438 -14.464 -40.464  1.00  0.00     0.033 C 
HETATM   21  C   UNL     1     -10.957 -13.052 -40.247  1.00  0.00     0.004 C 
HETATM   22  C   UNL     1      -9.798 -12.075 -40.208  1.00  0.00     0.028 C 
HETATM   23  C   UNL     1      -8.784 -12.440 -39.135  1.00  0.00     0.236 C 
BRANCH  19  24
HETATM   24  C   UNL     1      -8.972 -16.331 -39.578  1.00  0.00     0.059 C 
BRANCH  24  25
HETATM   25  C   UNL     1      -8.424 -16.670 -40.959  1.00  0.00     0.166 C 
BRANCH  25  26
HETATM   26  O   UNL     1      -7.173 -16.031 -41.138  1.00  0.00    -0.401 OA
HETATM   27  H   UNL     1      -6.823 -16.225 -42.024  1.00  0.00     0.209 HD
ENDBRANCH  25  26
ENDBRANCH  24  25
ENDBRANCH  19  24
ENDBRANCH  16  17
ENDBRANCH  13  16
ENDBRANCH   6  12
BRANCH   1  28
HETATM   28  C   UNL     1      -4.643 -13.832 -42.245  1.00  0.00     0.312 C 
HETATM   29  O   UNL     1      -5.801 -13.513 -41.998  1.00  0.00    -0.258 OA
BRANCH  28  30
HETATM   30  O   UNL     1      -4.102 -14.013 -43.478  1.00  0.00    -0.317 OA
BRANCH  30  31
HETATM   31  C   UNL     1      -4.443 -15.239 -44.145  1.00  0.00     0.175 C 
HETATM   32  C   UNL     1      -3.192 -16.062 -44.389  1.00  0.00     0.034 C 
ENDBRANCH  30  31
ENDBRANCH  28  30
ENDBRANCH   1  28
TORSDOF 9
ENDMDL
MODEL 10
REMARK VINA RESULT:      -6.5      2.120      3.518
REMARK  9 active torsions:
REMARK  status: ('A' for Active; 'I' for Inactive)
REMARK    1  A    between atoms: C_2  and  O_3 
REMARK    2  A    between atoms: O_3  and  C_4 
REMARK    3  A    between atoms: C_4  and  C_5 
REMARK    4  A    between atoms: C_10  and  N_11 
REMARK       I    between atoms: N_11  and  C_12 
REMARK    5  A    between atoms: C_12  and  C_13 
REMARK    6  A    between atoms: C_13  and  N_14 
REMARK    7  A    between atoms: C_16  and  C_17 
REMARK    8  A    between atoms: C_17  and  C_18 
REMARK    9  A    between atoms: C_18  and  O_19 
ROOT
HETATM    1  C   UNL     1      -6.006   2.086 -31.279  1.00  0.00     0.137 A 
HETATM    2  N   UNL     1      -4.688   1.787 -31.047  1.00  0.00    -0.349 N 
HETATM    3  H   UNL     1      -4.048   2.383 -30.537  1.00  0.00     0.166 HD
HETATM    4  C   UNL     1      -4.359   0.577 -31.600  1.00  0.00     0.045 A 
HETATM    5  C   UNL     1      -5.509   0.069 -32.220  1.00  0.00     0.021 A 
HETATM    6  C   UNL     1      -6.551   1.039 -32.019  1.00  0.00     0.080 A 
HETATM    7  C   UNL     1      -3.125  -0.087 -31.590  1.00  0.00     0.032 A 
HETATM    8  C   UNL     1      -3.042  -1.324 -32.228  1.00  0.00     0.026 A 
HETATM    9  C   UNL     1      -4.159  -1.866 -32.848  1.00  0.00     0.035 A 
HETATM   10 CL   UNL     1      -4.038  -3.398 -33.625  1.00  0.00    -0.084 Cl
HETATM   11  C   UNL     1      -5.386  -1.189 -32.852  1.00  0.00     0.040 A 
ENDROOT
BRANCH   6  12
HETATM   12  N   UNL     1      -7.892   1.110 -32.403  1.00  0.00    -0.323 N 
HETATM   13  C   UNL     1      -8.426   1.061 -33.669  1.00  0.00     0.248 C 
HETATM   14  O   UNL     1      -7.825   0.909 -34.725  1.00  0.00    -0.271 OA
HETATM   15  H   UNL     1      -8.514   1.299 -31.615  1.00  0.00     0.169 HD
BRANCH  13  16
HETATM   16  C   UNL     1      -9.959   1.174 -33.691  1.00  0.00     0.338 C 
BRANCH  16  17
HETATM   17  N   UNL     1     -10.537   2.247 -34.654  1.00  0.00    -0.059 N 
HETATM   18  H   UNL     1     -10.258   1.990 -35.610  1.00  0.00     0.280 HD
HETATM   19  C   UNL     1     -12.065   2.329 -34.569  1.00  0.00     0.190 C 
HETATM   20  C   UNL     1     -12.579   3.422 -35.516  1.00  0.00     0.033 C 
HETATM   21  C   UNL     1     -11.950   4.772 -35.215  1.00  0.00     0.004 C 
HETATM   22  C   UNL     1     -10.440   4.672 -35.314  1.00  0.00     0.028 C 
HETATM   23  C   UNL     1      -9.880   3.605 -34.386  1.00  0.00     0.236 C 
BRANCH  19  24
HETATM   24  C   UNL     1     -12.758   0.983 -34.853  1.00  0.00     0.059 C 
BRANCH  24  25
HETATM   25  C   UNL     1     -13.638   0.433 -33.737  1.00  0.00     0.166 C 
BRANCH  25  26
HETATM   26  O   UNL     1     -12.964  -0.632 -33.090  1.00  0.00    -0.401 OA
HETATM   27  H   UNL     1     -12.322  -1.038 -33.698  1.00  0.00     0.209 HD
ENDBRANCH  25  26
ENDBRANCH  24  25
ENDBRANCH  19  24
ENDBRANCH  16  17
ENDBRANCH  13  16
ENDBRANCH   6  12
BRANCH   1  28
HETATM   28  C   UNL     1      -6.657   3.292 -30.825  1.00  0.00     0.312 C 
HETATM   29  O   UNL     1      -6.218   4.418 -31.039  1.00  0.00    -0.258 OA
BRANCH  28  30
HETATM   30  O   UNL     1      -7.789   2.984 -30.142  1.00  0.00    -0.317 OA
BRANCH  30  31
HETATM   31  C   UNL     1      -8.808   3.996 -30.115  1.00  0.00     0.175 C 
HETATM   32  C   UNL     1     -10.107   3.439 -30.669  1.00  0.00     0.034 C 
ENDBRANCH  30  31
ENDBRANCH  28  30
ENDBRANCH   1  28
TORSDOF 9
ENDMDL
