MODEL 1
REMARK VINA RESULT:      -8.6      0.000      0.000
REMARK  8 active torsions:
REMARK  status: ('A' for Active; 'I' for Inactive)
REMARK    1  A    between atoms: C_2  and  N_3 
REMARK    2  A    between atoms: N_3  and  C_5 
REMARK    3  A    between atoms: N_3  and  C_30 
REMARK    4  A    between atoms: C_5  and  C_6 
REMARK    5  A    between atoms: C_6  and  N_7 
REMARK       I    between atoms: N_7  and  C_8 
REMARK    6  A    between atoms: C_8  and  C_9 
REMARK    7  A    between atoms: C_9  and  O_10 
REMARK    8  A    between atoms: N_11  and  C_12 
ROOT
HETATM    1  C   UNL     1      -6.562   1.283 -32.542  1.00  0.00     0.256 C 
HETATM    2  N   UNL     1      -6.633   0.398 -33.711  1.00  0.00    -0.254 N 
HETATM    3  C   UNL     1      -7.310   0.870 -34.834  1.00  0.00     0.330 C 
HETATM    4  O   UNL     1      -7.149   0.502 -35.995  1.00  0.00    -0.246 OA
HETATM    5  N   UNL     1      -8.306   1.791 -34.597  1.00  0.00    -0.308 N 
HETATM    6  C   UNL     1      -8.728   2.193 -33.331  1.00  0.00     0.048 A 
HETATM    7  C   UNL     1      -7.894   1.930 -32.245  1.00  0.00     0.034 A 
HETATM    8  C   UNL     1      -9.931   2.876 -33.171  1.00  0.00     0.030 A 
HETATM    9  C   UNL     1     -10.320   3.285 -31.896  1.00  0.00     0.002 A 
HETATM   10  C   UNL     1      -9.503   3.023 -30.797  1.00  0.00     0.001 A 
HETATM   11  C   UNL     1      -8.289   2.354 -30.969  1.00  0.00     0.015 A 
HETATM   12  H   UNL     1      -8.896   1.967 -35.404  1.00  0.00     0.170 HD
ENDROOT
BRANCH   1  13
HETATM   13  C   UNL     1      -5.440   2.376 -32.850  1.00  0.00     0.279 C 
HETATM   14  N   UNL     1      -4.241   2.307 -32.157  1.00  0.00    -0.355 N 
HETATM   15  H   UNL     1      -4.061   1.479 -31.597  1.00  0.00     0.162 HD
HETATM   16  O   UNL     1      -5.636   3.310 -33.635  1.00  0.00    -0.268 OA
BRANCH  14  17
HETATM   17  C   UNL     1      -3.120   3.154 -32.512  1.00  0.00     0.150 C 
BRANCH  17  18
HETATM   18  C   UNL     1      -2.901   4.327 -31.539  1.00  0.00     0.254 C 
BRANCH  18  19
HETATM   19  N   UNL     1      -1.802   5.294 -31.981  1.00  0.00    -0.070 N 
HETATM   20  H   UNL     1      -2.197   6.231 -31.822  1.00  0.00     0.279 HD
BRANCH  19  21
HETATM   21  C   UNL     1      -1.482   5.240 -33.469  1.00  0.00     0.230 C 
HETATM   22  C   UNL     1      -2.059   6.430 -34.210  1.00  0.00     0.034 C 
ENDBRANCH  19  21
BRANCH  19  23
HETATM   23  C   UNL     1      -0.525   5.242 -31.160  1.00  0.00     0.230 C 
HETATM   24  C   UNL     1       0.242   6.549 -31.232  1.00  0.00     0.034 C 
ENDBRANCH  19  23
ENDBRANCH  18  19
ENDBRANCH  17  18
ENDBRANCH  14  17
ENDBRANCH   1  13
BRANCH   1  25
HETATM   25  O   UNL     1      -6.121   0.605 -31.365  1.00  0.00    -0.359 OA
HETATM   26  H   UNL     1      -5.151   0.534 -31.459  1.00  0.00     0.213 HD
ENDBRANCH   1  25
BRANCH   2  27
HETATM   27  C   UNL     1      -5.933  -0.849 -33.760  1.00  0.00     0.043 A 
HETATM   28  C   UNL     1      -6.565  -1.991 -34.275  1.00  0.00     0.037 A 
HETATM   29  C   UNL     1      -5.894  -3.220 -34.413  1.00  0.00    -0.054 A 
HETATM   30  C   UNL     1      -6.628  -4.396 -34.999  1.00  0.00     0.049 C 
HETATM   31  C   UNL     1      -4.548  -3.313 -34.023  1.00  0.00    -0.056 A 
HETATM   32  C   UNL     1      -3.762  -4.585 -34.193  1.00  0.00     0.049 C 
HETATM   33  C   UNL     1      -3.904  -2.169 -33.534  1.00  0.00     0.009 A 
HETATM   34  C   UNL     1      -4.586  -0.953 -33.410  1.00  0.00     0.030 A 
ENDBRANCH   2  27
TORSDOF 8
ENDMDL
MODEL 2
REMARK VINA RESULT:      -8.6      1.951      6.824
REMARK  8 active torsions:
REMARK  status: ('A' for Active; 'I' for Inactive)
REMARK    1  A    between atoms: C_2  and  N_3 
REMARK    2  A    between atoms: N_3  and  C_5 
REMARK    3  A    between atoms: N_3  and  C_30 
REMARK    4  A    between atoms: C_5  and  C_6 
REMARK    5  A    between atoms: C_6  and  N_7 
REMARK       I    between atoms: N_7  and  C_8 
REMARK    6  A    between atoms: C_8  and  C_9 
REMARK    7  A    between atoms: C_9  and  O_10 
REMARK    8  A    between atoms: N_11  and  C_12 
ROOT
HETATM    1  C   UNL     1      -5.123   1.833 -32.326  1.00  0.00     0.256 C 
HETATM    2  N   UNL     1      -5.009   3.127 -33.010  1.00  0.00    -0.254 N 
HETATM    3  C   UNL     1      -6.055   3.504 -33.851  1.00  0.00     0.330 C 
HETATM    4  O   UNL     1      -6.356   4.649 -34.178  1.00  0.00    -0.246 OA
HETATM    5  N   UNL     1      -6.773   2.476 -34.421  1.00  0.00    -0.308 N 
HETATM    6  C   UNL     1      -6.462   1.123 -34.287  1.00  0.00     0.048 A 
HETATM    7  C   UNL     1      -5.601   0.745 -33.258  1.00  0.00     0.034 A 
HETATM    8  C   UNL     1      -7.035   0.180 -35.136  1.00  0.00     0.030 A 
HETATM    9  C   UNL     1      -6.724  -1.169 -34.968  1.00  0.00     0.002 A 
HETATM   10  C   UNL     1      -5.857  -1.565 -33.949  1.00  0.00     0.001 A 
HETATM   11  C   UNL     1      -5.302  -0.614 -33.091  1.00  0.00     0.015 A 
HETATM   12  H   UNL     1      -7.394   2.778 -35.164  1.00  0.00     0.170 HD
ENDROOT
BRANCH   1  13
HETATM   13  C   UNL     1      -6.129   2.036 -31.104  1.00  0.00     0.279 C 
HETATM   14  N   UNL     1      -6.958   3.147 -31.106  1.00  0.00    -0.355 N 
HETATM   15  H   UNL     1      -7.007   3.704 -31.954  1.00  0.00     0.162 HD
HETATM   16  O   UNL     1      -6.142   1.270 -30.134  1.00  0.00    -0.268 OA
BRANCH  14  17
HETATM   17  C   UNL     1      -8.014   3.297 -30.123  1.00  0.00     0.150 C 
BRANCH  17  18
HETATM   18  C   UNL     1      -9.424   3.062 -30.694  1.00  0.00     0.254 C 
BRANCH  18  19
HETATM   19  N   UNL     1      -9.447   2.868 -32.211  1.00  0.00    -0.070 N 
HETATM   20  H   UNL     1      -8.456   2.821 -32.485  1.00  0.00     0.279 HD
BRANCH  19  21
HETATM   21  C   UNL     1     -10.022   4.047 -32.984  1.00  0.00     0.230 C 
HETATM   22  C   UNL     1     -10.179   3.729 -34.458  1.00  0.00     0.034 C 
ENDBRANCH  19  21
BRANCH  19  23
HETATM   23  C   UNL     1     -10.066   1.566 -32.688  1.00  0.00     0.230 C 
HETATM   24  C   UNL     1      -9.319   0.359 -32.151  1.00  0.00     0.034 C 
ENDBRANCH  19  23
ENDBRANCH  18  19
ENDBRANCH  17  18
ENDBRANCH  14  17
ENDBRANCH   1  13
BRANCH   1  25
HETATM   25  O   UNL     1      -3.891   1.411 -31.740  1.00  0.00    -0.359 OA
HETATM   26  H   UNL     1      -4.146   0.938 -30.924  1.00  0.00     0.213 HD
ENDBRANCH   1  25
BRANCH   2  27
HETATM   27  C   UNL     1      -3.937   4.035 -32.738  1.00  0.00     0.043 A 
HETATM   28  C   UNL     1      -2.997   4.333 -33.736  1.00  0.00     0.037 A 
HETATM   29  C   UNL     1      -1.971   5.275 -33.541  1.00  0.00    -0.054 A 
HETATM   30  C   UNL     1      -1.014   5.563 -34.666  1.00  0.00     0.049 C 
HETATM   31  C   UNL     1      -1.879   5.942 -32.307  1.00  0.00    -0.056 A 
HETATM   32  C   UNL     1      -0.835   6.996 -32.055  1.00  0.00     0.049 C 
HETATM   33  C   UNL     1      -2.832   5.669 -31.317  1.00  0.00     0.009 A 
HETATM   34  C   UNL     1      -3.850   4.733 -31.532  1.00  0.00     0.030 A 
ENDBRANCH   2  27
TORSDOF 8
ENDMDL
MODEL 3
REMARK VINA RESULT:      -8.6      1.776      6.324
REMARK  8 active torsions:
REMARK  status: ('A' for Active; 'I' for Inactive)
REMARK    1  A    between atoms: C_2  and  N_3 
REMARK    2  A    between atoms: N_3  and  C_5 
REMARK    3  A    between atoms: N_3  and  C_30 
REMARK    4  A    between atoms: C_5  and  C_6 
REMARK    5  A    between atoms: C_6  and  N_7 
REMARK       I    between atoms: N_7  and  C_8 
REMARK    6  A    between atoms: C_8  and  C_9 
REMARK    7  A    between atoms: C_9  and  O_10 
REMARK    8  A    between atoms: N_11  and  C_12 
ROOT
HETATM    1  C   UNL     1      -5.755   2.113 -33.067  1.00  0.00     0.256 C 
HETATM    2  N   UNL     1      -5.191   0.816 -32.676  1.00  0.00    -0.254 N 
HETATM    3  C   UNL     1      -4.368   0.785 -31.552  1.00  0.00     0.330 C 
HETATM    4  O   UNL     1      -4.138  -0.188 -30.839  1.00  0.00    -0.246 OA
HETATM    5  N   UNL     1      -3.696   1.951 -31.263  1.00  0.00    -0.308 N 
HETATM    6  C   UNL     1      -3.715   3.095 -32.060  1.00  0.00     0.048 A 
HETATM    7  C   UNL     1      -4.722   3.213 -33.017  1.00  0.00     0.034 A 
HETATM    8  C   UNL     1      -2.775   4.105 -31.869  1.00  0.00     0.030 A 
HETATM    9  C   UNL     1      -2.829   5.247 -32.666  1.00  0.00     0.002 A 
HETATM   10  C   UNL     1      -3.824   5.379 -33.634  1.00  0.00     0.001 A 
HETATM   11  C   UNL     1      -4.774   4.370 -33.806  1.00  0.00     0.015 A 
HETATM   12  H   UNL     1      -2.971   1.839 -30.562  1.00  0.00     0.170 HD
ENDROOT
BRANCH   1  13
HETATM   13  C   UNL     1      -6.972   2.412 -32.077  1.00  0.00     0.279 C 
HETATM   14  N   UNL     1      -8.114   3.005 -32.592  1.00  0.00    -0.355 N 
HETATM   15  H   UNL     1      -8.196   3.084 -33.601  1.00  0.00     0.162 HD
HETATM   16  O   UNL     1      -6.897   2.189 -30.864  1.00  0.00    -0.268 OA
BRANCH  14  17
HETATM   17  C   UNL     1      -9.315   3.140 -31.792  1.00  0.00     0.150 C 
BRANCH  17  18
HETATM   18  C   UNL     1     -10.594   3.329 -32.628  1.00  0.00     0.254 C 
BRANCH  18  19
HETATM   19  N   UNL     1     -11.384   2.038 -32.841  1.00  0.00    -0.070 N 
HETATM   20  H   UNL     1     -11.499   1.641 -31.898  1.00  0.00     0.279 HD
BRANCH  19  21
HETATM   21  C   UNL     1     -10.641   0.973 -33.635  1.00  0.00     0.230 C 
HETATM   22  C   UNL     1     -10.325  -0.243 -32.786  1.00  0.00     0.034 C 
ENDBRANCH  19  21
BRANCH  19  23
HETATM   23  C   UNL     1     -12.791   2.221 -33.383  1.00  0.00     0.230 C 
HETATM   24  C   UNL     1     -12.951   1.593 -34.755  1.00  0.00     0.034 C 
ENDBRANCH  19  23
ENDBRANCH  18  19
ENDBRANCH  17  18
ENDBRANCH  14  17
ENDBRANCH   1  13
BRANCH   1  25
HETATM   25  O   UNL     1      -6.325   2.093 -34.376  1.00  0.00    -0.359 OA
HETATM   26  H   UNL     1      -6.133   2.974 -34.751  1.00  0.00     0.213 HD
ENDBRANCH   1  25
BRANCH   2  27
HETATM   27  C   UNL     1      -5.562  -0.400 -33.333  1.00  0.00     0.043 A 
HETATM   28  C   UNL     1      -4.599  -1.392 -33.575  1.00  0.00     0.037 A 
HETATM   29  C   UNL     1      -4.930  -2.633 -34.150  1.00  0.00    -0.054 A 
HETATM   30  C   UNL     1      -3.850  -3.659 -34.354  1.00  0.00     0.049 C 
HETATM   31  C   UNL     1      -6.267  -2.892 -34.496  1.00  0.00    -0.056 A 
HETATM   32  C   UNL     1      -6.692  -4.218 -35.067  1.00  0.00     0.049 C 
HETATM   33  C   UNL     1      -7.237  -1.916 -34.232  1.00  0.00     0.009 A 
HETATM   34  C   UNL     1      -6.889  -0.690 -33.653  1.00  0.00     0.030 A 
ENDBRANCH   2  27
TORSDOF 8
ENDMDL
MODEL 4
REMARK VINA RESULT:      -8.1      2.807      6.707
REMARK  8 active torsions:
REMARK  status: ('A' for Active; 'I' for Inactive)
REMARK    1  A    between atoms: C_2  and  N_3 
REMARK    2  A    between atoms: N_3  and  C_5 
REMARK    3  A    between atoms: N_3  and  C_30 
REMARK    4  A    between atoms: C_5  and  C_6 
REMARK    5  A    between atoms: C_6  and  N_7 
REMARK       I    between atoms: N_7  and  C_8 
REMARK    6  A    between atoms: C_8  and  C_9 
REMARK    7  A    between atoms: C_9  and  O_10 
REMARK    8  A    between atoms: N_11  and  C_12 
ROOT
HETATM    1  C   UNL     1      -6.764   2.505 -32.172  1.00  0.00     0.256 C 
HETATM    2  N   UNL     1      -6.071   1.393 -31.511  1.00  0.00    -0.254 N 
HETATM    3  C   UNL     1      -6.011   1.410 -30.118  1.00  0.00     0.330 C 
HETATM    4  O   UNL     1      -5.860   0.440 -29.380  1.00  0.00    -0.246 OA
HETATM    5  N   UNL     1      -6.056   2.652 -29.526  1.00  0.00    -0.308 N 
HETATM    6  C   UNL     1      -6.059   3.861 -30.220  1.00  0.00     0.048 A 
HETATM    7  C   UNL     1      -6.381   3.840 -31.577  1.00  0.00     0.034 A 
HETATM    8  C   UNL     1      -5.790   5.056 -29.559  1.00  0.00     0.030 A 
HETATM    9  C   UNL     1      -5.821   6.254 -30.271  1.00  0.00     0.002 A 
HETATM   10  C   UNL     1      -6.131   6.251 -31.631  1.00  0.00     0.001 A 
HETATM   11  C   UNL     1      -6.418   5.050 -32.283  1.00  0.00     0.015 A 
HETATM   12  H   UNL     1      -5.822   2.639 -28.539  1.00  0.00     0.170 HD
ENDROOT
BRANCH   1  13
HETATM   13  C   UNL     1      -8.330   2.232 -32.028  1.00  0.00     0.279 C 
HETATM   14  N   UNL     1      -9.029   1.783 -33.138  1.00  0.00    -0.355 N 
HETATM   15  H   UNL     1      -8.495   1.496 -33.953  1.00  0.00     0.162 HD
HETATM   16  O   UNL     1      -8.941   2.471 -30.981  1.00  0.00    -0.268 OA
BRANCH  14  17
HETATM   17  C   UNL     1     -10.407   1.348 -33.031  1.00  0.00     0.150 C 
BRANCH  17  18
HETATM   18  C   UNL     1     -11.426   2.422 -33.453  1.00  0.00     0.254 C 
BRANCH  18  19
HETATM   19  N   UNL     1     -12.833   2.182 -32.906  1.00  0.00    -0.070 N 
HETATM   20  H   UNL     1     -12.703   1.516 -32.130  1.00  0.00     0.279 HD
BRANCH  19  21
HETATM   21  C   UNL     1     -13.773   1.484 -33.879  1.00  0.00     0.230 C 
HETATM   22  C   UNL     1     -13.770  -0.019 -33.684  1.00  0.00     0.034 C 
ENDBRANCH  19  21
BRANCH  19  23
HETATM   23  C   UNL     1     -13.506   3.397 -32.293  1.00  0.00     0.230 C 
HETATM   24  C   UNL     1     -14.952   3.116 -31.931  1.00  0.00     0.034 C 
ENDBRANCH  19  23
ENDBRANCH  18  19
ENDBRANCH  17  18
ENDBRANCH  14  17
ENDBRANCH   1  13
BRANCH   1  25
HETATM   25  O   UNL     1      -6.512   2.553 -33.576  1.00  0.00    -0.359 OA
HETATM   26  H   UNL     1      -6.353   1.625 -33.839  1.00  0.00     0.213 HD
ENDBRANCH   1  25
BRANCH   2  27
HETATM   27  C   UNL     1      -5.582   0.264 -32.242  1.00  0.00     0.043 A 
HETATM   28  C   UNL     1      -6.482  -0.619 -32.856  1.00  0.00     0.037 A 
HETATM   29  C   UNL     1      -6.049  -1.700 -33.647  1.00  0.00    -0.054 A 
HETATM   30  C   UNL     1      -7.072  -2.590 -34.297  1.00  0.00     0.049 C 
HETATM   31  C   UNL     1      -4.671  -1.906 -33.829  1.00  0.00    -0.056 A 
HETATM   32  C   UNL     1      -4.147  -3.012 -34.704  1.00  0.00     0.049 C 
HETATM   33  C   UNL     1      -3.769  -1.010 -33.241  1.00  0.00     0.009 A 
HETATM   34  C   UNL     1      -4.219   0.063 -32.463  1.00  0.00     0.030 A 
ENDBRANCH   2  27
TORSDOF 8
ENDMDL
MODEL 5
REMARK VINA RESULT:      -8.1      2.289      6.003
REMARK  8 active torsions:
REMARK  status: ('A' for Active; 'I' for Inactive)
REMARK    1  A    between atoms: C_2  and  N_3 
REMARK    2  A    between atoms: N_3  and  C_5 
REMARK    3  A    between atoms: N_3  and  C_30 
REMARK    4  A    between atoms: C_5  and  C_6 
REMARK    5  A    between atoms: C_6  and  N_7 
REMARK       I    between atoms: N_7  and  C_8 
REMARK    6  A    between atoms: C_8  and  C_9 
REMARK    7  A    between atoms: C_9  and  O_10 
REMARK    8  A    between atoms: N_11  and  C_12 
ROOT
HETATM    1  C   UNL     1      -5.984   2.286 -32.523  1.00  0.00     0.256 C 
HETATM    2  N   UNL     1      -6.329   2.129 -31.106  1.00  0.00    -0.254 N 
HETATM    3  C   UNL     1      -6.076   0.892 -30.516  1.00  0.00     0.330 C 
HETATM    4  O   UNL     1      -5.903   0.672 -29.320  1.00  0.00    -0.246 OA
HETATM    5  N   UNL     1      -6.093  -0.196 -31.361  1.00  0.00    -0.308 N 
HETATM    6  C   UNL     1      -6.435  -0.144 -32.712  1.00  0.00     0.048 A 
HETATM    7  C   UNL     1      -6.427   1.099 -33.345  1.00  0.00     0.034 A 
HETATM    8  C   UNL     1      -6.731  -1.311 -33.410  1.00  0.00     0.030 A 
HETATM    9  C   UNL     1      -7.050  -1.234 -34.765  1.00  0.00     0.002 A 
HETATM   10  C   UNL     1      -7.056   0.001 -35.413  1.00  0.00     0.001 A 
HETATM   11  C   UNL     1      -6.739   1.165 -34.710  1.00  0.00     0.015 A 
HETATM   12  H   UNL     1      -6.095  -1.086 -30.875  1.00  0.00     0.170 HD
ENDROOT
BRANCH   1  13
HETATM   13  C   UNL     1      -4.403   2.490 -32.602  1.00  0.00     0.279 C 
HETATM   14  N   UNL     1      -3.912   3.744 -32.931  1.00  0.00    -0.355 N 
HETATM   15  H   UNL     1      -4.567   4.520 -32.956  1.00  0.00     0.162 HD
HETATM   16  O   UNL     1      -3.615   1.552 -32.442  1.00  0.00    -0.268 OA
BRANCH  14  17
HETATM   17  C   UNL     1      -2.496   4.042 -32.845  1.00  0.00     0.150 C 
BRANCH  17  18
HETATM   18  C   UNL     1      -2.072   4.630 -31.487  1.00  0.00     0.254 C 
BRANCH  18  19
HETATM   19  N   UNL     1      -1.049   5.760 -31.601  1.00  0.00    -0.070 N 
HETATM   20  H   UNL     1      -0.133   5.294 -31.535  1.00  0.00     0.279 HD
BRANCH  19  21
HETATM   21  C   UNL     1      -1.078   6.750 -30.444  1.00  0.00     0.230 C 
HETATM   22  C   UNL     1       0.308   7.004 -29.887  1.00  0.00     0.034 C 
ENDBRANCH  19  21
BRANCH  19  23
HETATM   23  C   UNL     1      -1.041   6.494 -32.930  1.00  0.00     0.230 C 
HETATM   24  C   UNL     1      -1.829   7.789 -32.862  1.00  0.00     0.034 C 
ENDBRANCH  19  23
ENDBRANCH  18  19
ENDBRANCH  17  18
ENDBRANCH  14  17
ENDBRANCH   1  13
BRANCH   1  25
HETATM   25  O   UNL     1      -6.549   3.464 -33.099  1.00  0.00    -0.359 OA
HETATM   26  H   UNL     1      -5.876   4.160 -32.969  1.00  0.00     0.213 HD
ENDBRANCH   1  25
BRANCH   2  27
HETATM   27  C   UNL     1      -6.787   3.228 -30.311  1.00  0.00     0.043 A 
HETATM   28  C   UNL     1      -5.862   4.065 -29.669  1.00  0.00     0.037 A 
HETATM   29  C   UNL     1      -6.261   5.200 -28.939  1.00  0.00    -0.054 A 
HETATM   30  C   UNL     1      -5.211   6.068 -28.300  1.00  0.00     0.049 C 
HETATM   31  C   UNL     1      -7.628   5.510 -28.848  1.00  0.00    -0.056 A 
HETATM   32  C   UNL     1      -8.113   6.738 -28.125  1.00  0.00     0.049 C 
HETATM   33  C   UNL     1      -8.554   4.693 -29.510  1.00  0.00     0.009 A 
HETATM   34  C   UNL     1      -8.137   3.571 -30.236  1.00  0.00     0.030 A 
ENDBRANCH   2  27
TORSDOF 8
ENDMDL
MODEL 6
REMARK VINA RESULT:      -8.0      2.334      5.560
REMARK  8 active torsions:
REMARK  status: ('A' for Active; 'I' for Inactive)
REMARK    1  A    between atoms: C_2  and  N_3 
REMARK    2  A    between atoms: N_3  and  C_5 
REMARK    3  A    between atoms: N_3  and  C_30 
REMARK    4  A    between atoms: C_5  and  C_6 
REMARK    5  A    between atoms: C_6  and  N_7 
REMARK       I    between atoms: N_7  and  C_8 
REMARK    6  A    between atoms: C_8  and  C_9 
REMARK    7  A    between atoms: C_9  and  O_10 
REMARK    8  A    between atoms: N_11  and  C_12 
ROOT
HETATM    1  C   UNL     1      -7.815   1.588 -33.650  1.00  0.00     0.256 C 
HETATM    2  N   UNL     1      -8.923   1.681 -32.693  1.00  0.00    -0.254 N 
HETATM    3  C   UNL     1      -8.598   1.852 -31.348  1.00  0.00     0.330 C 
HETATM    4  O   UNL     1      -9.313   2.343 -30.478  1.00  0.00    -0.246 OA
HETATM    5  N   UNL     1      -7.378   1.352 -30.953  1.00  0.00    -0.308 N 
HETATM    6  C   UNL     1      -6.518   0.621 -31.773  1.00  0.00     0.048 A 
HETATM    7  C   UNL     1      -6.716   0.680 -33.152  1.00  0.00     0.034 A 
HETATM    8  C   UNL     1      -5.467  -0.108 -31.222  1.00  0.00     0.030 A 
HETATM    9  C   UNL     1      -4.609  -0.812 -32.065  1.00  0.00     0.002 A 
HETATM   10  C   UNL     1      -4.798  -0.773 -33.446  1.00  0.00     0.001 A 
HETATM   11  C   UNL     1      -5.842  -0.024 -33.991  1.00  0.00     0.015 A 
HETATM   12  H   UNL     1      -7.258   1.323 -29.946  1.00  0.00     0.170 HD
ENDROOT
BRANCH   1  13
HETATM   13  C   UNL     1      -7.279   3.072 -33.893  1.00  0.00     0.279 C 
HETATM   14  N   UNL     1      -5.918   3.263 -34.077  1.00  0.00    -0.355 N 
HETATM   15  H   UNL     1      -5.335   2.441 -34.207  1.00  0.00     0.162 HD
HETATM   16  O   UNL     1      -8.031   4.052 -33.856  1.00  0.00    -0.268 OA
BRANCH  14  17
HETATM   17  C   UNL     1      -5.389   4.551 -34.477  1.00  0.00     0.150 C 
BRANCH  17  18
HETATM   18  C   UNL     1      -4.455   5.185 -33.430  1.00  0.00     0.254 C 
BRANCH  18  19
HETATM   19  N   UNL     1      -3.241   4.321 -33.088  1.00  0.00    -0.070 N 
HETATM   20  H   UNL     1      -3.425   3.417 -33.545  1.00  0.00     0.279 HD
BRANCH  19  21
HETATM   21  C   UNL     1      -3.099   4.000 -31.607  1.00  0.00     0.230 C 
HETATM   22  C   UNL     1      -3.191   2.509 -31.343  1.00  0.00     0.034 C 
ENDBRANCH  19  21
BRANCH  19  23
HETATM   23  C   UNL     1      -1.920   4.807 -33.657  1.00  0.00     0.230 C 
HETATM   24  C   UNL     1      -2.032   6.212 -34.217  1.00  0.00     0.034 C 
ENDBRANCH  19  23
ENDBRANCH  18  19
ENDBRANCH  17  18
ENDBRANCH  14  17
ENDBRANCH   1  13
BRANCH   1  25
HETATM   25  O   UNL     1      -8.234   1.120 -34.933  1.00  0.00    -0.359 OA
HETATM   26  H   UNL     1      -8.868   1.790 -35.254  1.00  0.00     0.213 HD
ENDBRANCH   1  25
BRANCH   2  27
HETATM   27  C   UNL     1     -10.289   1.726 -33.117  1.00  0.00     0.043 A 
HETATM   28  C   UNL     1     -11.037   0.542 -33.210  1.00  0.00     0.037 A 
HETATM   29  C   UNL     1     -12.402   0.544 -33.550  1.00  0.00    -0.054 A 
HETATM   30  C   UNL     1     -13.147  -0.762 -33.603  1.00  0.00     0.049 C 
HETATM   31  C   UNL     1     -13.042   1.768 -33.808  1.00  0.00    -0.056 A 
HETATM   32  C   UNL     1     -14.511   1.839 -34.127  1.00  0.00     0.049 C 
HETATM   33  C   UNL     1     -12.307   2.955 -33.690  1.00  0.00     0.009 A 
HETATM   34  C   UNL     1     -10.951   2.934 -33.344  1.00  0.00     0.030 A 
ENDBRANCH   2  27
TORSDOF 8
ENDMDL
MODEL 7
REMARK VINA RESULT:      -7.9      1.619      2.268
REMARK  8 active torsions:
REMARK  status: ('A' for Active; 'I' for Inactive)
REMARK    1  A    between atoms: C_2  and  N_3 
REMARK    2  A    between atoms: N_3  and  C_5 
REMARK    3  A    between atoms: N_3  and  C_30 
REMARK    4  A    between atoms: C_5  and  C_6 
REMARK    5  A    between atoms: C_6  and  N_7 
REMARK       I    between atoms: N_7  and  C_8 
REMARK    6  A    between atoms: C_8  and  C_9 
REMARK    7  A    between atoms: C_9  and  O_10 
REMARK    8  A    between atoms: N_11  and  C_12 
ROOT
HETATM    1  C   UNL     1      -7.046   2.284 -31.415  1.00  0.00     0.256 C 
HETATM    2  N   UNL     1      -6.612   1.879 -32.757  1.00  0.00    -0.254 N 
HETATM    3  C   UNL     1      -6.700   2.828 -33.775  1.00  0.00     0.330 C 
HETATM    4  O   UNL     1      -6.047   2.849 -34.815  1.00  0.00    -0.246 OA
HETATM    5  N   UNL     1      -7.669   3.793 -33.619  1.00  0.00    -0.308 N 
HETATM    6  C   UNL     1      -8.602   3.819 -32.583  1.00  0.00     0.048 A 
HETATM    7  C   UNL     1      -8.351   3.044 -31.452  1.00  0.00     0.034 A 
HETATM    8  C   UNL     1      -9.729   4.633 -32.667  1.00  0.00     0.030 A 
HETATM    9  C   UNL     1     -10.636   4.657 -31.609  1.00  0.00     0.002 A 
HETATM   10  C   UNL     1     -10.405   3.881 -30.473  1.00  0.00     0.001 A 
HETATM   11  C   UNL     1      -9.264   3.081 -30.389  1.00  0.00     0.015 A 
HETATM   12  H   UNL     1      -7.830   4.345 -34.455  1.00  0.00     0.170 HD
ENDROOT
BRANCH   1  13
HETATM   13  C   UNL     1      -5.874   3.169 -30.791  1.00  0.00     0.279 C 
HETATM   14  N   UNL     1      -5.986   4.550 -30.845  1.00  0.00    -0.355 N 
HETATM   15  H   UNL     1      -6.875   4.945 -31.137  1.00  0.00     0.162 HD
HETATM   16  O   UNL     1      -4.850   2.660 -30.323  1.00  0.00    -0.268 OA
BRANCH  14  17
HETATM   17  C   UNL     1      -5.050   5.406 -30.144  1.00  0.00     0.150 C 
BRANCH  17  18
HETATM   18  C   UNL     1      -3.934   5.967 -31.044  1.00  0.00     0.254 C 
BRANCH  18  19
HETATM   19  N   UNL     1      -2.525   5.643 -30.547  1.00  0.00    -0.070 N 
HETATM   20  H   UNL     1      -2.669   5.107 -29.679  1.00  0.00     0.279 HD
BRANCH  19  21
HETATM   21  C   UNL     1      -1.711   6.862 -30.135  1.00  0.00     0.230 C 
HETATM   22  C   UNL     1      -0.356   6.888 -30.813  1.00  0.00     0.034 C 
ENDBRANCH  19  21
BRANCH  19  23
HETATM   23  C   UNL     1      -1.709   4.740 -31.455  1.00  0.00     0.230 C 
HETATM   24  C   UNL     1      -2.546   4.183 -32.591  1.00  0.00     0.034 C 
ENDBRANCH  19  23
ENDBRANCH  18  19
ENDBRANCH  17  18
ENDBRANCH  14  17
ENDBRANCH   1  13
BRANCH   1  25
HETATM   25  O   UNL     1      -7.199   1.174 -30.529  1.00  0.00    -0.359 OA
HETATM   26  H   UNL     1      -7.163   0.384 -31.102  1.00  0.00     0.213 HD
ENDBRANCH   1  25
BRANCH   2  27
HETATM   27  C   UNL     1      -6.001   0.609 -33.005  1.00  0.00     0.043 A 
HETATM   28  C   UNL     1      -6.745  -0.429 -33.586  1.00  0.00     0.037 A 
HETATM   29  C   UNL     1      -6.168  -1.669 -33.916  1.00  0.00    -0.054 A 
HETATM   30  C   UNL     1      -7.021  -2.727 -34.563  1.00  0.00     0.049 C 
HETATM   31  C   UNL     1      -4.804  -1.881 -33.657  1.00  0.00    -0.056 A 
HETATM   32  C   UNL     1      -4.118  -3.167 -34.033  1.00  0.00     0.049 C 
HETATM   33  C   UNL     1      -4.050  -0.838 -33.102  1.00  0.00     0.009 A 
HETATM   34  C   UNL     1      -4.640   0.391 -32.786  1.00  0.00     0.030 A 
ENDBRANCH   2  27
TORSDOF 8
ENDMDL
MODEL 8
REMARK VINA RESULT:      -7.7      3.130      6.369
REMARK  8 active torsions:
REMARK  status: ('A' for Active; 'I' for Inactive)
REMARK    1  A    between atoms: C_2  and  N_3 
REMARK    2  A    between atoms: N_3  and  C_5 
REMARK    3  A    between atoms: N_3  and  C_30 
REMARK    4  A    between atoms: C_5  and  C_6 
REMARK    5  A    between atoms: C_6  and  N_7 
REMARK       I    between atoms: N_7  and  C_8 
REMARK    6  A    between atoms: C_8  and  C_9 
REMARK    7  A    between atoms: C_9  and  O_10 
REMARK    8  A    between atoms: N_11  and  C_12 
ROOT
HETATM    1  C   UNL     1      -5.424   4.662 -33.123  1.00  0.00     0.256 C 
HETATM    2  N   UNL     1      -5.682   3.536 -32.219  1.00  0.00    -0.254 N 
HETATM    3  C   UNL     1      -4.879   3.424 -31.085  1.00  0.00     0.330 C 
HETATM    4  O   UNL     1      -5.164   2.845 -30.040  1.00  0.00    -0.246 OA
HETATM    5  N   UNL     1      -3.615   3.961 -31.184  1.00  0.00    -0.308 N 
HETATM    6  C   UNL     1      -3.075   4.506 -32.348  1.00  0.00     0.048 A 
HETATM    7  C   UNL     1      -3.948   4.851 -33.380  1.00  0.00     0.034 A 
HETATM    8  C   UNL     1      -1.706   4.736 -32.451  1.00  0.00     0.030 A 
HETATM    9  C   UNL     1      -1.193   5.301 -33.618  1.00  0.00     0.002 A 
HETATM   10  C   UNL     1      -2.050   5.643 -34.664  1.00  0.00     0.001 A 
HETATM   11  C   UNL     1      -3.424   5.427 -34.545  1.00  0.00     0.015 A 
HETATM   12  H   UNL     1      -3.002   3.699 -30.420  1.00  0.00     0.170 HD
ENDROOT
BRANCH   1  13
HETATM   13  C   UNL     1      -6.068   5.959 -32.451  1.00  0.00     0.279 C 
HETATM   14  N   UNL     1      -7.306   6.393 -32.899  1.00  0.00    -0.355 N 
HETATM   15  H   UNL     1      -7.825   5.785 -33.525  1.00  0.00     0.162 HD
HETATM   16  O   UNL     1      -5.467   6.617 -31.594  1.00  0.00    -0.268 OA
BRANCH  14  17
HETATM   17  C   UNL     1      -8.023   7.450 -32.216  1.00  0.00     0.150 C 
BRANCH  17  18
HETATM   18  C   UNL     1      -8.906   6.947 -31.059  1.00  0.00     0.254 C 
BRANCH  18  19
HETATM   19  N   UNL     1      -8.185   6.901 -29.712  1.00  0.00    -0.070 N 
HETATM   20  H   UNL     1      -7.267   7.331 -29.890  1.00  0.00     0.279 HD
BRANCH  19  21
HETATM   21  C   UNL     1      -7.879   5.495 -29.214  1.00  0.00     0.230 C 
HETATM   22  C   UNL     1      -6.731   5.487 -28.225  1.00  0.00     0.034 C 
ENDBRANCH  19  21
BRANCH  19  23
HETATM   23  C   UNL     1      -8.819   7.730 -28.609  1.00  0.00     0.230 C 
HETATM   24  C   UNL     1      -8.061   9.023 -28.373  1.00  0.00     0.034 C 
ENDBRANCH  19  23
ENDBRANCH  18  19
ENDBRANCH  17  18
ENDBRANCH  14  17
ENDBRANCH   1  13
BRANCH   1  25
HETATM   25  O   UNL     1      -6.083   4.519 -34.382  1.00  0.00    -0.359 OA
HETATM   26  H   UNL     1      -6.127   3.556 -34.539  1.00  0.00     0.213 HD
ENDBRANCH   1  25
BRANCH   2  27
HETATM   27  C   UNL     1      -6.791   2.650 -32.409  1.00  0.00     0.043 A 
HETATM   28  C   UNL     1      -6.594   1.393 -32.999  1.00  0.00     0.037 A 
HETATM   29  C   UNL     1      -7.638   0.460 -33.139  1.00  0.00    -0.054 A 
HETATM   30  C   UNL     1      -7.347  -0.881 -33.757  1.00  0.00     0.049 C 
HETATM   31  C   UNL     1      -8.921   0.794 -32.675  1.00  0.00    -0.056 A 
HETATM   32  C   UNL     1     -10.066  -0.180 -32.751  1.00  0.00     0.049 C 
HETATM   33  C   UNL     1      -9.117   2.038 -32.061  1.00  0.00     0.009 A 
HETATM   34  C   UNL     1      -8.065   2.950 -31.925  1.00  0.00     0.030 A 
ENDBRANCH   2  27
TORSDOF 8
ENDMDL
MODEL 9
REMARK VINA RESULT:      -7.7      1.928      6.557
REMARK  8 active torsions:
REMARK  status: ('A' for Active; 'I' for Inactive)
REMARK    1  A    between atoms: C_2  and  N_3 
REMARK    2  A    between atoms: N_3  and  C_5 
REMARK    3  A    between atoms: N_3  and  C_30 
REMARK    4  A    between atoms: C_5  and  C_6 
REMARK    5  A    between atoms: C_6  and  N_7 
REMARK       I    between atoms: N_7  and  C_8 
REMARK    6  A    between atoms: C_8  and  C_9 
REMARK    7  A    between atoms: C_9  and  O_10 
REMARK    8  A    between atoms: N_11  and  C_12 
ROOT
HETATM    1  C   UNL     1      -5.339   4.004 -33.247  1.00  0.00     0.256 C 
HETATM    2  N   UNL     1      -5.326   2.785 -32.429  1.00  0.00    -0.254 N 
HETATM    3  C   UNL     1      -4.982   2.915 -31.085  1.00  0.00     0.330 C 
HETATM    4  O   UNL     1      -5.290   2.153 -30.173  1.00  0.00    -0.246 OA
HETATM    5  N   UNL     1      -4.156   3.971 -30.772  1.00  0.00    -0.308 N 
HETATM    6  C   UNL     1      -3.582   4.832 -31.707  1.00  0.00     0.048 A 
HETATM    7  C   UNL     1      -4.125   4.865 -32.991  1.00  0.00     0.034 A 
HETATM    8  C   UNL     1      -2.526   5.664 -31.347  1.00  0.00     0.030 A 
HETATM    9  C   UNL     1      -1.984   6.531 -32.294  1.00  0.00     0.002 A 
HETATM   10  C   UNL     1      -2.508   6.570 -33.586  1.00  0.00     0.001 A 
HETATM   11  C   UNL     1      -3.579   5.746 -33.935  1.00  0.00     0.015 A 
HETATM   12  H   UNL     1      -3.778   3.926 -29.832  1.00  0.00     0.170 HD
ENDROOT
BRANCH   1  13
HETATM   13  C   UNL     1      -6.689   4.784 -32.902  1.00  0.00     0.279 C 
HETATM   14  N   UNL     1      -7.777   4.631 -33.747  1.00  0.00    -0.355 N 
HETATM   15  H   UNL     1      -7.727   3.911 -34.462  1.00  0.00     0.162 HD
HETATM   16  O   UNL     1      -6.766   5.565 -31.947  1.00  0.00    -0.268 OA
BRANCH  14  17
HETATM   17  C   UNL     1      -9.078   5.165 -33.399  1.00  0.00     0.150 C 
BRANCH  17  18
HETATM   18  C   UNL     1      -9.950   4.185 -32.593  1.00  0.00     0.254 C 
BRANCH  18  19
HETATM   19  N   UNL     1     -11.070   3.544 -33.414  1.00  0.00    -0.070 N 
HETATM   20  H   UNL     1     -11.723   3.163 -32.715  1.00  0.00     0.279 HD
BRANCH  19  21
HETATM   21  C   UNL     1     -10.631   2.348 -34.246  1.00  0.00     0.230 C 
HETATM   22  C   UNL     1     -11.098   1.039 -33.640  1.00  0.00     0.034 C 
ENDBRANCH  19  21
BRANCH  19  23
HETATM   23  C   UNL     1     -11.888   4.507 -34.255  1.00  0.00     0.230 C 
HETATM   24  C   UNL     1     -12.103   3.981 -35.662  1.00  0.00     0.034 C 
ENDBRANCH  19  23
ENDBRANCH  18  19
ENDBRANCH  17  18
ENDBRANCH  14  17
ENDBRANCH   1  13
BRANCH   1  25
HETATM   25  O   UNL     1      -5.406   3.727 -34.646  1.00  0.00    -0.359 OA
HETATM   26  H   UNL     1      -6.333   3.904 -34.897  1.00  0.00     0.213 HD
ENDBRANCH   1  25
BRANCH   2  27
HETATM   27  C   UNL     1      -5.769   1.524 -32.943  1.00  0.00     0.043 A 
HETATM   28  C   UNL     1      -4.849   0.486 -33.149  1.00  0.00     0.037 A 
HETATM   29  C   UNL     1      -5.247  -0.793 -33.581  1.00  0.00    -0.054 A 
HETATM   30  C   UNL     1      -4.208  -1.866 -33.755  1.00  0.00     0.049 C 
HETATM   31  C   UNL     1      -6.610  -1.043 -33.815  1.00  0.00    -0.056 A 
HETATM   32  C   UNL     1      -7.104  -2.403 -34.228  1.00  0.00     0.049 C 
HETATM   33  C   UNL     1      -7.536  -0.017 -33.583  1.00  0.00     0.009 A 
HETATM   34  C   UNL     1      -7.121   1.246 -33.148  1.00  0.00     0.030 A 
ENDBRANCH   2  27
TORSDOF 8
ENDMDL
MODEL 10
REMARK VINA RESULT:      -7.7      2.959      4.121
REMARK  8 active torsions:
REMARK  status: ('A' for Active; 'I' for Inactive)
REMARK    1  A    between atoms: C_2  and  N_3 
REMARK    2  A    between atoms: N_3  and  C_5 
REMARK    3  A    between atoms: N_3  and  C_30 
REMARK    4  A    between atoms: C_5  and  C_6 
REMARK    5  A    between atoms: C_6  and  N_7 
REMARK       I    between atoms: N_7  and  C_8 
REMARK    6  A    between atoms: C_8  and  C_9 
REMARK    7  A    between atoms: C_9  and  O_10 
REMARK    8  A    between atoms: N_11  and  C_12 
ROOT
HETATM    1  C   UNL     1      -9.368   0.272 -32.915  1.00  0.00     0.256 C 
HETATM    2  N   UNL     1      -8.200   0.323 -33.801  1.00  0.00    -0.254 N 
HETATM    3  C   UNL     1      -8.044   1.457 -34.597  1.00  0.00     0.330 C 
HETATM    4  O   UNL     1      -6.994   1.879 -35.074  1.00  0.00    -0.246 OA
HETATM    5  N   UNL     1      -9.202   2.122 -34.934  1.00  0.00    -0.308 N 
HETATM    6  C   UNL     1     -10.488   1.685 -34.616  1.00  0.00     0.048 A 
HETATM    7  C   UNL     1     -10.627   0.721 -33.618  1.00  0.00     0.034 A 
HETATM    8  C   UNL     1     -11.597   2.234 -35.252  1.00  0.00     0.030 A 
HETATM    9  C   UNL     1     -12.873   1.795 -34.902  1.00  0.00     0.002 A 
HETATM   10  C   UNL     1     -13.031   0.825 -33.912  1.00  0.00     0.001 A 
HETATM   11  C   UNL     1     -11.914   0.293 -33.266  1.00  0.00     0.015 A 
HETATM   12  H   UNL     1      -9.073   2.820 -35.659  1.00  0.00     0.170 HD
ENDROOT
BRANCH   1  13
HETATM   13  C   UNL     1      -9.042   1.200 -31.657  1.00  0.00     0.279 C 
HETATM   14  N   UNL     1      -9.780   2.361 -31.482  1.00  0.00    -0.355 N 
HETATM   15  H   UNL     1     -10.599   2.498 -32.067  1.00  0.00     0.162 HD
HETATM   16  O   UNL     1      -8.115   0.945 -30.880  1.00  0.00    -0.268 OA
BRANCH  14  17
HETATM   17  C   UNL     1      -9.658   3.151 -30.273  1.00  0.00     0.150 C 
BRANCH  17  18
HETATM   18  C   UNL     1      -9.102   4.566 -30.515  1.00  0.00     0.254 C 
BRANCH  18  19
HETATM   19  N   UNL     1      -7.832   4.588 -31.366  1.00  0.00    -0.070 N 
HETATM   20  H   UNL     1      -7.730   3.623 -31.712  1.00  0.00     0.279 HD
BRANCH  19  21
HETATM   21  C   UNL     1      -6.557   4.869 -30.582  1.00  0.00     0.230 C 
HETATM   22  C   UNL     1      -5.868   3.589 -30.152  1.00  0.00     0.034 C 
ENDBRANCH  19  21
BRANCH  19  23
HETATM   23  C   UNL     1      -7.898   5.462 -32.606  1.00  0.00     0.230 C 
HETATM   24  C   UNL     1      -6.812   5.105 -33.604  1.00  0.00     0.034 C 
ENDBRANCH  19  23
ENDBRANCH  18  19
ENDBRANCH  17  18
ENDBRANCH  14  17
ENDBRANCH   1  13
BRANCH   1  25
HETATM   25  O   UNL     1      -9.595  -1.031 -32.378  1.00  0.00    -0.359 OA
HETATM   26  H   UNL     1     -10.550  -1.060 -32.173  1.00  0.00     0.213 HD
ENDBRANCH   1  25
BRANCH   2  27
HETATM   27  C   UNL     1      -7.182  -0.683 -33.770  1.00  0.00     0.043 A 
HETATM   28  C   UNL     1      -7.355  -1.882 -34.479  1.00  0.00     0.037 A 
HETATM   29  C   UNL     1      -6.353  -2.867 -34.539  1.00  0.00    -0.054 A 
HETATM   30  C   UNL     1      -6.598  -4.116 -35.341  1.00  0.00     0.049 C 
HETATM   31  C   UNL     1      -5.137  -2.649 -33.869  1.00  0.00    -0.056 A 
HETATM   32  C   UNL     1      -4.008  -3.642 -33.938  1.00  0.00     0.049 C 
HETATM   33  C   UNL     1      -4.948  -1.442 -33.183  1.00  0.00     0.009 A 
HETATM   34  C   UNL     1      -5.955  -0.471 -33.140  1.00  0.00     0.030 A 
ENDBRANCH   2  27
TORSDOF 8
ENDMDL
