MODEL 1
REMARK VINA RESULT:      -9.4      0.000      0.000
REMARK  8 active torsions:
REMARK  status: ('A' for Active; 'I' for Inactive)
REMARK    1  A    between atoms: O_2  and  C_3 
REMARK    2  A    between atoms: C_4  and  O_5 
REMARK    3  A    between atoms: C_13  and  C_14 
REMARK    4  A    between atoms: C_14  and  N_15 
REMARK    5  A    between atoms: N_15  and  C_16 
REMARK    6  A    between atoms: C_17  and  C_18 
REMARK       I    between atoms: C_18  and  N_19 
REMARK    7  A    between atoms: N_19  and  C_20 
REMARK    8  A    between atoms: C_20  and  C_21 
ROOT
HETATM    1  N   UNL     1      -2.455   3.636 -31.247  1.00  0.00    -0.285 NA
HETATM    2  H   UNL     1      -1.984   2.825 -31.662  1.00  0.00     0.128 HD
ENDROOT
BRANCH   1   3
HETATM    3  C   UNL     1      -3.916   3.442 -31.212  1.00  0.00     0.171 C 
BRANCH   3   4
HETATM    4  C   UNL     1      -4.408   2.236 -32.005  1.00  0.00     0.120 A 
HETATM    5  N   UNL     1      -5.436   2.412 -32.890  1.00  0.00    -0.310 N 
HETATM    6  C   UNL     1      -5.940   1.394 -33.662  1.00  0.00     0.259 A 
HETATM    7  H   UNL     1      -5.843   3.328 -33.031  1.00  0.00     0.170 HD
HETATM    8  C   UNL     1      -5.303   0.080 -33.488  1.00  0.00     0.064 A 
HETATM    9  O   UNL     1      -6.856   1.551 -34.459  1.00  0.00    -0.267 OA
HETATM   10  C   UNL     1      -4.263  -0.010 -32.568  1.00  0.00     0.077 A 
HETATM   11  C   UNL     1      -5.708  -1.026 -34.236  1.00  0.00     0.059 A 
HETATM   12  C   UNL     1      -3.627  -1.242 -32.393  1.00  0.00     0.072 A 
HETATM   13  N   UNL     1      -3.828   1.092 -31.816  1.00  0.00    -0.233 NA
HETATM   14  C   UNL     1      -4.027  -2.370 -33.123  1.00  0.00     0.103 A 
HETATM   15  C   UNL     1      -5.050  -2.248 -34.078  1.00  0.00     0.102 A 
BRANCH  14  16
HETATM   16  O   UNL     1      -3.424  -3.590 -32.960  1.00  0.00    -0.353 OA
HETATM   17  C   UNL     1      -2.851  -3.812 -31.674  1.00  0.00     0.210 C 
ENDBRANCH  14  16
BRANCH  15  18
HETATM   18  O   UNL     1      -5.550  -3.254 -34.863  1.00  0.00    -0.353 OA
HETATM   19  C   UNL     1      -6.916  -3.586 -34.638  1.00  0.00     0.210 C 
ENDBRANCH  15  18
ENDBRANCH   3   4
ENDBRANCH   1   3
BRANCH   1  20
HETATM   20  C   UNL     1      -1.979   4.790 -31.940  1.00  0.00     0.024 A 
HETATM   21  C   UNL     1      -0.875   5.534 -31.451  1.00  0.00     0.053 A 
HETATM   22  C   UNL     1      -0.390   6.653 -32.157  1.00  0.00     0.019 A 
HETATM   23  C   UNL     1      -0.997   7.069 -33.337  1.00  0.00     0.001 A 
HETATM   24  C   UNL     1      -2.092   6.370 -33.821  1.00  0.00     0.002 A 
HETATM   25  C   UNL     1      -2.576   5.250 -33.132  1.00  0.00     0.024 A 
BRANCH  21  26
HETATM   26  C   UNL     1      -0.169   5.240 -30.170  1.00  0.00     0.253 C 
HETATM   27  N   UNL     1      -0.434   6.092 -29.127  1.00  0.00    -0.351 N 
HETATM   28  H   UNL     1      -1.141   6.808 -29.260  1.00  0.00     0.163 HD
HETATM   29  O   UNL     1       0.632   4.316 -30.099  1.00  0.00    -0.268 OA
BRANCH  27  30
HETATM   30  C   UNL     1       0.226   5.975 -27.851  1.00  0.00     0.187 C 
BRANCH  30  31
HETATM   31  C   UNL     1       0.596   7.327 -27.377  1.00  0.00     0.070 A 
HETATM   32  O   UNL     1       0.095   7.705 -26.168  1.00  0.00    -0.325 OA
HETATM   33  C   UNL     1       0.516   8.977 -25.944  1.00  0.00     0.142 A 
HETATM   34  C   UNL     1       1.300   9.415 -26.984  1.00  0.00     0.027 A 
HETATM   35  C   UNL     1       1.356   8.348 -27.912  1.00  0.00     0.036 A 
ENDBRANCH  30  31
ENDBRANCH  27  30
ENDBRANCH  21  26
ENDBRANCH   1  20
TORSDOF 8
ENDMDL
MODEL 2
REMARK VINA RESULT:      -8.9      3.037      9.081
REMARK  8 active torsions:
REMARK  status: ('A' for Active; 'I' for Inactive)
REMARK    1  A    between atoms: O_2  and  C_3 
REMARK    2  A    between atoms: C_4  and  O_5 
REMARK    3  A    between atoms: C_13  and  C_14 
REMARK    4  A    between atoms: C_14  and  N_15 
REMARK    5  A    between atoms: N_15  and  C_16 
REMARK    6  A    between atoms: C_17  and  C_18 
REMARK       I    between atoms: C_18  and  N_19 
REMARK    7  A    between atoms: N_19  and  C_20 
REMARK    8  A    between atoms: C_20  and  C_21 
ROOT
HETATM    1  N   UNL     1      -4.260  -0.759 -33.727  1.00  0.00    -0.285 NA
HETATM    2  H   UNL     1      -3.424  -0.695 -34.319  1.00  0.00     0.128 HD
ENDROOT
BRANCH   1   3
HETATM    3  C   UNL     1      -3.931  -0.515 -32.311  1.00  0.00     0.171 C 
BRANCH   3   4
HETATM    4  C   UNL     1      -4.041   0.944 -31.884  1.00  0.00     0.120 A 
HETATM    5  N   UNL     1      -5.011   1.290 -30.983  1.00  0.00    -0.310 N 
HETATM    6  C   UNL     1      -5.183   2.573 -30.524  1.00  0.00     0.259 A 
HETATM    7  H   UNL     1      -5.624   0.585 -30.592  1.00  0.00     0.170 HD
HETATM    8  C   UNL     1      -4.249   3.575 -31.057  1.00  0.00     0.064 A 
HETATM    9  O   UNL     1      -6.046   2.881 -29.713  1.00  0.00    -0.267 OA
HETATM   10  C   UNL     1      -3.292   3.139 -31.968  1.00  0.00     0.077 A 
HETATM   11  C   UNL     1      -4.304   4.907 -30.646  1.00  0.00     0.059 A 
HETATM   12  C   UNL     1      -2.380   4.065 -32.480  1.00  0.00     0.072 A 
HETATM   13  N   UNL     1      -3.207   1.801 -32.385  1.00  0.00    -0.233 NA
HETATM   14  C   UNL     1      -2.426   5.412 -32.092  1.00  0.00     0.103 A 
HETATM   15  C   UNL     1      -3.373   5.824 -31.139  1.00  0.00     0.102 A 
BRANCH  14  16
HETATM   16  O   UNL     1      -1.549   6.340 -32.589  1.00  0.00    -0.353 OA
HETATM   17  C   UNL     1      -1.984   7.011 -33.768  1.00  0.00     0.210 C 
ENDBRANCH  14  16
BRANCH  15  18
HETATM   18  O   UNL     1      -3.541   7.099 -30.664  1.00  0.00    -0.353 OA
HETATM   19  C   UNL     1      -2.899   7.381 -29.424  1.00  0.00     0.210 C 
ENDBRANCH  15  18
ENDBRANCH   3   4
ENDBRANCH   1   3
BRANCH   1  20
HETATM   20  C   UNL     1      -4.887  -2.006 -34.033  1.00  0.00     0.024 A 
HETATM   21  C   UNL     1      -6.261  -2.068 -34.380  1.00  0.00     0.053 A 
HETATM   22  C   UNL     1      -6.865  -3.298 -34.712  1.00  0.00     0.019 A 
HETATM   23  C   UNL     1      -6.135  -4.481 -34.683  1.00  0.00     0.001 A 
HETATM   24  C   UNL     1      -4.796  -4.445 -34.325  1.00  0.00     0.002 A 
HETATM   25  C   UNL     1      -4.184  -3.227 -34.003  1.00  0.00     0.024 A 
BRANCH  21  26
HETATM   26  C   UNL     1      -7.177  -0.891 -34.390  1.00  0.00     0.253 C 
HETATM   27  N   UNL     1      -7.312  -0.224 -33.199  1.00  0.00    -0.351 N 
HETATM   28  H   UNL     1      -6.732  -0.512 -32.418  1.00  0.00     0.163 HD
HETATM   29  O   UNL     1      -7.796  -0.594 -35.405  1.00  0.00    -0.268 OA
BRANCH  27  30
HETATM   30  C   UNL     1      -8.214   0.890 -33.039  1.00  0.00     0.187 C 
BRANCH  30  31
HETATM   31  C   UNL     1      -7.491   2.141 -33.355  1.00  0.00     0.070 A 
HETATM   32  O   UNL     1      -7.939   3.273 -32.743  1.00  0.00    -0.325 OA
HETATM   33  C   UNL     1      -7.173   4.299 -33.196  1.00  0.00     0.142 A 
HETATM   34  C   UNL     1      -6.223   3.839 -34.075  1.00  0.00     0.027 A 
HETATM   35  C   UNL     1      -6.424   2.442 -34.177  1.00  0.00     0.036 A 
ENDBRANCH  30  31
ENDBRANCH  27  30
ENDBRANCH  21  26
ENDBRANCH   1  20
TORSDOF 8
ENDMDL
MODEL 3
REMARK VINA RESULT:      -8.9      3.636      9.566
REMARK  8 active torsions:
REMARK  status: ('A' for Active; 'I' for Inactive)
REMARK    1  A    between atoms: O_2  and  C_3 
REMARK    2  A    between atoms: C_4  and  O_5 
REMARK    3  A    between atoms: C_13  and  C_14 
REMARK    4  A    between atoms: C_14  and  N_15 
REMARK    5  A    between atoms: N_15  and  C_16 
REMARK    6  A    between atoms: C_17  and  C_18 
REMARK       I    between atoms: C_18  and  N_19 
REMARK    7  A    between atoms: N_19  and  C_20 
REMARK    8  A    between atoms: C_20  and  C_21 
ROOT
HETATM    1  N   UNL     1      -3.718  -0.952 -33.565  1.00  0.00    -0.285 NA
HETATM    2  H   UNL     1      -2.813  -1.295 -33.905  1.00  0.00     0.128 HD
ENDROOT
BRANCH   1   3
HETATM    3  C   UNL     1      -3.657  -0.622 -32.130  1.00  0.00     0.171 C 
BRANCH   3   4
HETATM    4  C   UNL     1      -3.858   0.856 -31.816  1.00  0.00     0.120 A 
HETATM    5  N   UNL     1      -4.806   1.206 -30.895  1.00  0.00    -0.310 N 
HETATM    6  C   UNL     1      -5.053   2.507 -30.532  1.00  0.00     0.259 A 
HETATM    7  H   UNL     1      -5.345   0.494 -30.415  1.00  0.00     0.170 HD
HETATM    8  C   UNL     1      -4.225   3.526 -31.194  1.00  0.00     0.064 A 
HETATM    9  O   UNL     1      -5.897   2.820 -29.703  1.00  0.00    -0.267 OA
HETATM   10  C   UNL     1      -3.282   3.084 -32.117  1.00  0.00     0.077 A 
HETATM   11  C   UNL     1      -4.361   4.880 -30.889  1.00  0.00     0.059 A 
HETATM   12  C   UNL     1      -2.469   4.027 -32.751  1.00  0.00     0.072 A 
HETATM   13  N   UNL     1      -3.116   1.725 -32.429  1.00  0.00    -0.233 NA
HETATM   14  C   UNL     1      -2.599   5.395 -32.471  1.00  0.00     0.103 A 
HETATM   15  C   UNL     1      -3.527   5.817 -31.504  1.00  0.00     0.102 A 
BRANCH  14  16
HETATM   16  O   UNL     1      -1.820   6.338 -33.088  1.00  0.00    -0.353 OA
HETATM   17  C   UNL     1      -1.318   5.962 -34.367  1.00  0.00     0.210 C 
ENDBRANCH  14  16
BRANCH  15  18
HETATM   18  O   UNL     1      -3.769   7.112 -31.125  1.00  0.00    -0.353 OA
HETATM   19  C   UNL     1      -5.088   7.587 -31.375  1.00  0.00     0.210 C 
ENDBRANCH  15  18
ENDBRANCH   3   4
ENDBRANCH   1   3
BRANCH   1  20
HETATM   20  C   UNL     1      -4.699  -1.912 -33.960  1.00  0.00     0.024 A 
HETATM   21  C   UNL     1      -6.063  -1.550 -34.101  1.00  0.00     0.053 A 
HETATM   22  C   UNL     1      -7.020  -2.495 -34.522  1.00  0.00     0.019 A 
HETATM   23  C   UNL     1      -6.654  -3.810 -34.786  1.00  0.00     0.001 A 
HETATM   24  C   UNL     1      -5.330  -4.191 -34.633  1.00  0.00     0.002 A 
HETATM   25  C   UNL     1      -4.369  -3.257 -34.225  1.00  0.00     0.024 A 
BRANCH  21  26
HETATM   26  C   UNL     1      -6.606  -0.196 -33.791  1.00  0.00     0.253 C 
HETATM   27  N   UNL     1      -7.470  -0.122 -32.728  1.00  0.00    -0.351 N 
HETATM   28  H   UNL     1      -7.624  -0.959 -32.175  1.00  0.00     0.163 HD
HETATM   29  O   UNL     1      -6.317   0.766 -34.494  1.00  0.00    -0.268 OA
BRANCH  27  30
HETATM   30  C   UNL     1      -8.127   1.106 -32.353  1.00  0.00     0.187 C 
BRANCH  30  31
HETATM   31  C   UNL     1      -9.471   1.137 -32.972  1.00  0.00     0.070 A 
HETATM   32  O   UNL     1      -9.804   2.275 -33.642  1.00  0.00    -0.325 OA
HETATM   33  C   UNL     1     -11.076   2.114 -34.092  1.00  0.00     0.142 A 
HETATM   34  C   UNL     1     -11.558   0.876 -33.738  1.00  0.00     0.027 A 
HETATM   35  C   UNL     1     -10.519   0.241 -33.017  1.00  0.00     0.036 A 
ENDBRANCH  30  31
ENDBRANCH  27  30
ENDBRANCH  21  26
ENDBRANCH   1  20
TORSDOF 8
ENDMDL
MODEL 4
REMARK VINA RESULT:      -8.9      1.369      2.561
REMARK  8 active torsions:
REMARK  status: ('A' for Active; 'I' for Inactive)
REMARK    1  A    between atoms: O_2  and  C_3 
REMARK    2  A    between atoms: C_4  and  O_5 
REMARK    3  A    between atoms: C_13  and  C_14 
REMARK    4  A    between atoms: C_14  and  N_15 
REMARK    5  A    between atoms: N_15  and  C_16 
REMARK    6  A    between atoms: C_17  and  C_18 
REMARK       I    between atoms: C_18  and  N_19 
REMARK    7  A    between atoms: N_19  and  C_20 
REMARK    8  A    between atoms: C_20  and  C_21 
ROOT
HETATM    1  N   UNL     1      -2.217   3.691 -31.226  1.00  0.00    -0.285 NA
HETATM    2  H   UNL     1      -1.781   2.907 -31.724  1.00  0.00     0.128 HD
ENDROOT
BRANCH   1   3
HETATM    3  C   UNL     1      -3.676   3.509 -31.120  1.00  0.00     0.171 C 
BRANCH   3   4
HETATM    4  C   UNL     1      -4.196   2.225 -31.756  1.00  0.00     0.120 A 
HETATM    5  N   UNL     1      -3.307   1.218 -32.017  1.00  0.00    -0.310 N 
HETATM    6  C   UNL     1      -3.679   0.019 -32.573  1.00  0.00     0.259 A 
HETATM    7  H   UNL     1      -2.331   1.318 -31.770  1.00  0.00     0.170 HD
HETATM    8  C   UNL     1      -5.110  -0.134 -32.875  1.00  0.00     0.064 A 
HETATM    9  O   UNL     1      -2.885  -0.885 -32.801  1.00  0.00    -0.267 OA
HETATM   10  C   UNL     1      -5.945   0.939 -32.576  1.00  0.00     0.077 A 
HETATM   11  C   UNL     1      -5.614  -1.316 -33.415  1.00  0.00     0.059 A 
HETATM   12  C   UNL     1      -7.312   0.818 -32.837  1.00  0.00     0.072 A 
HETATM   13  N   UNL     1      -5.463   2.133 -32.018  1.00  0.00    -0.233 NA
HETATM   14  C   UNL     1      -7.839  -0.357 -33.393  1.00  0.00     0.103 A 
HETATM   15  C   UNL     1      -6.985  -1.443 -33.648  1.00  0.00     0.102 A 
BRANCH  14  16
HETATM   16  O   UNL     1      -9.175  -0.493 -33.667  1.00  0.00    -0.353 OA
HETATM   17  C   UNL     1     -10.046   0.201 -32.778  1.00  0.00     0.210 C 
ENDBRANCH  14  16
BRANCH  15  18
HETATM   18  O   UNL     1      -7.349  -2.649 -34.188  1.00  0.00    -0.353 OA
HETATM   19  C   UNL     1      -6.303  -3.377 -34.824  1.00  0.00     0.210 C 
ENDBRANCH  15  18
ENDBRANCH   3   4
ENDBRANCH   1   3
BRANCH   1  20
HETATM   20  C   UNL     1      -1.765   4.886 -31.863  1.00  0.00     0.024 A 
HETATM   21  C   UNL     1      -0.692   5.642 -31.325  1.00  0.00     0.053 A 
HETATM   22  C   UNL     1      -0.230   6.803 -31.977  1.00  0.00     0.019 A 
HETATM   23  C   UNL     1      -0.831   7.250 -33.148  1.00  0.00     0.001 A 
HETATM   24  C   UNL     1      -1.896   6.539 -33.680  1.00  0.00     0.002 A 
HETATM   25  C   UNL     1      -2.355   5.377 -33.046  1.00  0.00     0.024 A 
BRANCH  21  26
HETATM   26  C   UNL     1       0.002   5.317 -30.045  1.00  0.00     0.253 C 
HETATM   27  N   UNL     1      -0.381   6.050 -28.950  1.00  0.00    -0.351 N 
HETATM   28  H   UNL     1      -1.153   6.700 -29.053  1.00  0.00     0.163 HD
HETATM   29  O   UNL     1       0.891   4.475 -30.016  1.00  0.00    -0.268 OA
BRANCH  27  30
HETATM   30  C   UNL     1       0.249   5.896 -27.662  1.00  0.00     0.187 C 
BRANCH  30  31
HETATM   31  C   UNL     1       0.891   7.176 -27.287  1.00  0.00     0.070 A 
HETATM   32  O   UNL     1       1.042   7.411 -25.954  1.00  0.00    -0.325 OA
HETATM   33  C   UNL     1       1.606   8.640 -25.828  1.00  0.00     0.142 A 
HETATM   34  C   UNL     1       1.840   9.191 -27.066  1.00  0.00     0.027 A 
HETATM   35  C   UNL     1       1.381   8.243 -28.012  1.00  0.00     0.036 A 
ENDBRANCH  30  31
ENDBRANCH  27  30
ENDBRANCH  21  26
ENDBRANCH   1  20
TORSDOF 8
ENDMDL
MODEL 5
REMARK VINA RESULT:      -8.8      4.579      8.430
REMARK  8 active torsions:
REMARK  status: ('A' for Active; 'I' for Inactive)
REMARK    1  A    between atoms: O_2  and  C_3 
REMARK    2  A    between atoms: C_4  and  O_5 
REMARK    3  A    between atoms: C_13  and  C_14 
REMARK    4  A    between atoms: C_14  and  N_15 
REMARK    5  A    between atoms: N_15  and  C_16 
REMARK    6  A    between atoms: C_17  and  C_18 
REMARK       I    between atoms: C_18  and  N_19 
REMARK    7  A    between atoms: N_19  and  C_20 
REMARK    8  A    between atoms: C_20  and  C_21 
ROOT
HETATM    1  N   UNL     1      -7.192  -1.136 -33.901  1.00  0.00    -0.285 NA
HETATM    2  H   UNL     1      -8.127  -1.485 -33.663  1.00  0.00     0.128 HD
ENDROOT
BRANCH   1   3
HETATM    3  C   UNL     1      -7.257  -0.139 -34.985  1.00  0.00     0.171 C 
BRANCH   3   4
HETATM    4  C   UNL     1      -7.374   1.303 -34.505  1.00  0.00     0.120 A 
HETATM    5  N   UNL     1      -8.615   1.793 -34.202  1.00  0.00    -0.310 N 
HETATM    6  C   UNL     1      -8.824   3.072 -33.747  1.00  0.00     0.259 A 
HETATM    7  H   UNL     1      -9.433   1.200 -34.272  1.00  0.00     0.170 HD
HETATM    8  C   UNL     1      -7.621   3.903 -33.595  1.00  0.00     0.064 A 
HETATM    9  O   UNL     1      -9.933   3.509 -33.470  1.00  0.00    -0.267 OA
HETATM   10  C   UNL     1      -6.398   3.327 -33.924  1.00  0.00     0.077 A 
HETATM   11  C   UNL     1      -7.700   5.211 -33.115  1.00  0.00     0.059 A 
HETATM   12  C   UNL     1      -5.235   4.087 -33.775  1.00  0.00     0.072 A 
HETATM   13  N   UNL     1      -6.291   2.009 -34.394  1.00  0.00    -0.233 NA
HETATM   14  C   UNL     1      -5.293   5.408 -33.308  1.00  0.00     0.103 A 
HETATM   15  C   UNL     1      -6.533   5.958 -32.941  1.00  0.00     0.102 A 
BRANCH  14  16
HETATM   16  O   UNL     1      -4.166   6.175 -33.164  1.00  0.00    -0.353 OA
HETATM   17  C   UNL     1      -3.053   5.768 -33.954  1.00  0.00     0.210 C 
ENDBRANCH  14  16
BRANCH  15  18
HETATM   18  O   UNL     1      -6.748   7.228 -32.472  1.00  0.00    -0.353 OA
HETATM   19  C   UNL     1      -6.954   7.336 -31.067  1.00  0.00     0.210 C 
ENDBRANCH  15  18
ENDBRANCH   3   4
ENDBRANCH   1   3
BRANCH   1  20
HETATM   20  C   UNL     1      -6.372  -2.282 -34.134  1.00  0.00     0.024 A 
HETATM   21  C   UNL     1      -5.016  -2.309 -33.716  1.00  0.00     0.053 A 
HETATM   22  C   UNL     1      -4.222  -3.455 -33.920  1.00  0.00     0.019 A 
HETATM   23  C   UNL     1      -4.739  -4.576 -34.557  1.00  0.00     0.001 A 
HETATM   24  C   UNL     1      -6.055  -4.563 -34.994  1.00  0.00     0.002 A 
HETATM   25  C   UNL     1      -6.857  -3.433 -34.787  1.00  0.00     0.024 A 
BRANCH  21  26
HETATM   26  C   UNL     1      -4.314  -1.157 -33.079  1.00  0.00     0.253 C 
HETATM   27  N   UNL     1      -4.795  -0.760 -31.857  1.00  0.00    -0.351 N 
HETATM   28  H   UNL     1      -5.531  -1.310 -31.428  1.00  0.00     0.163 HD
HETATM   29  O   UNL     1      -3.397  -0.590 -33.660  1.00  0.00    -0.268 OA
BRANCH  27  30
HETATM   30  C   UNL     1      -4.262   0.381 -31.154  1.00  0.00     0.187 C 
BRANCH  30  31
HETATM   31  C   UNL     1      -5.371   1.307 -30.833  1.00  0.00     0.070 A 
HETATM   32  O   UNL     1      -5.020   2.564 -30.445  1.00  0.00    -0.325 OA
HETATM   33  C   UNL     1      -6.170   3.229 -30.163  1.00  0.00     0.142 A 
HETATM   34  C   UNL     1      -7.260   2.421 -30.385  1.00  0.00     0.027 A 
HETATM   35  C   UNL     1      -6.745   1.177 -30.822  1.00  0.00     0.036 A 
ENDBRANCH  30  31
ENDBRANCH  27  30
ENDBRANCH  21  26
ENDBRANCH   1  20
TORSDOF 8
ENDMDL
MODEL 6
REMARK VINA RESULT:      -8.6      3.152     10.223
REMARK  8 active torsions:
REMARK  status: ('A' for Active; 'I' for Inactive)
REMARK    1  A    between atoms: O_2  and  C_3 
REMARK    2  A    between atoms: C_4  and  O_5 
REMARK    3  A    between atoms: C_13  and  C_14 
REMARK    4  A    between atoms: C_14  and  N_15 
REMARK    5  A    between atoms: N_15  and  C_16 
REMARK    6  A    between atoms: C_17  and  C_18 
REMARK       I    between atoms: C_18  and  N_19 
REMARK    7  A    between atoms: N_19  and  C_20 
REMARK    8  A    between atoms: C_20  and  C_21 
ROOT
HETATM    1  N   UNL     1      -5.085   0.859 -32.070  1.00  0.00    -0.285 NA
HETATM    2  H   UNL     1      -5.725   1.640 -32.254  1.00  0.00     0.128 HD
ENDROOT
BRANCH   1   3
HETATM    3  C   UNL     1      -3.679   1.280 -32.204  1.00  0.00     0.171 C 
BRANCH   3   4
HETATM    4  C   UNL     1      -3.484   2.787 -32.326  1.00  0.00     0.120 A 
HETATM    5  N   UNL     1      -4.461   3.525 -32.936  1.00  0.00    -0.310 N 
HETATM    6  C   UNL     1      -4.387   4.889 -33.082  1.00  0.00     0.259 A 
HETATM    7  H   UNL     1      -5.305   3.080 -33.275  1.00  0.00     0.170 HD
HETATM    8  C   UNL     1      -3.182   5.528 -32.534  1.00  0.00     0.064 A 
HETATM    9  O   UNL     1      -5.264   5.551 -33.621  1.00  0.00    -0.267 OA
HETATM   10  C   UNL     1      -2.238   4.704 -31.929  1.00  0.00     0.077 A 
HETATM   11  C   UNL     1      -3.004   6.910 -32.596  1.00  0.00     0.059 A 
HETATM   12  C   UNL     1      -1.090   5.284 -31.385  1.00  0.00     0.072 A 
HETATM   13  N   UNL     1      -2.402   3.313 -31.841  1.00  0.00    -0.233 NA
HETATM   14  C   UNL     1      -0.883   6.670 -31.449  1.00  0.00     0.103 A 
HETATM   15  C   UNL     1      -1.868   7.489 -32.026  1.00  0.00     0.102 A 
BRANCH  14  16
HETATM   16  O   UNL     1       0.241   7.260 -30.931  1.00  0.00    -0.353 OA
HETATM   17  C   UNL     1       0.359   7.191 -29.513  1.00  0.00     0.210 C 
ENDBRANCH  14  16
BRANCH  15  18
HETATM   18  O   UNL     1      -1.809   8.852 -32.162  1.00  0.00    -0.353 OA
HETATM   19  C   UNL     1      -2.381   9.600 -31.094  1.00  0.00     0.210 C 
ENDBRANCH  15  18
ENDBRANCH   3   4
ENDBRANCH   1   3
BRANCH   1  20
HETATM   20  C   UNL     1      -5.510  -0.226 -32.897  1.00  0.00     0.024 A 
HETATM   21  C   UNL     1      -6.865  -0.353 -33.298  1.00  0.00     0.053 A 
HETATM   22  C   UNL     1      -7.271  -1.407 -34.140  1.00  0.00     0.019 A 
HETATM   23  C   UNL     1      -6.360  -2.362 -34.577  1.00  0.00     0.001 A 
HETATM   24  C   UNL     1      -5.035  -2.270 -34.178  1.00  0.00     0.002 A 
HETATM   25  C   UNL     1      -4.618  -1.219 -33.350  1.00  0.00     0.024 A 
BRANCH  21  26
HETATM   26  C   UNL     1      -7.959   0.559 -32.854  1.00  0.00     0.253 C 
HETATM   27  N   UNL     1      -8.484   1.383 -33.817  1.00  0.00    -0.351 N 
HETATM   28  H   UNL     1      -8.162   1.271 -34.773  1.00  0.00     0.163 HD
HETATM   29  O   UNL     1      -8.311   0.582 -31.681  1.00  0.00    -0.268 OA
BRANCH  27  30
HETATM   30  C   UNL     1      -9.497   2.365 -33.521  1.00  0.00     0.187 C 
BRANCH  30  31
HETATM   31  C   UNL     1     -10.810   1.848 -33.967  1.00  0.00     0.070 A 
HETATM   32  O   UNL     1     -11.411   2.518 -34.989  1.00  0.00    -0.325 OA
HETATM   33  C   UNL     1     -12.606   1.913 -35.213  1.00  0.00     0.142 A 
HETATM   34  C   UNL     1     -12.772   0.847 -34.361  1.00  0.00     0.027 A 
HETATM   35  C   UNL     1     -11.609   0.800 -33.556  1.00  0.00     0.036 A 
ENDBRANCH  30  31
ENDBRANCH  27  30
ENDBRANCH  21  26
ENDBRANCH   1  20
TORSDOF 8
ENDMDL
MODEL 7
REMARK VINA RESULT:      -8.6      4.036     10.171
REMARK  8 active torsions:
REMARK  status: ('A' for Active; 'I' for Inactive)
REMARK    1  A    between atoms: O_2  and  C_3 
REMARK    2  A    between atoms: C_4  and  O_5 
REMARK    3  A    between atoms: C_13  and  C_14 
REMARK    4  A    between atoms: C_14  and  N_15 
REMARK    5  A    between atoms: N_15  and  C_16 
REMARK    6  A    between atoms: C_17  and  C_18 
REMARK       I    between atoms: C_18  and  N_19 
REMARK    7  A    between atoms: N_19  and  C_20 
REMARK    8  A    between atoms: C_20  and  C_21 
ROOT
HETATM    1  N   UNL     1      -7.167   0.352 -30.784  1.00  0.00    -0.285 NA
HETATM    2  H   UNL     1      -7.937   1.021 -30.674  1.00  0.00     0.128 HD
ENDROOT
BRANCH   1   3
HETATM    3  C   UNL     1      -5.947   0.828 -30.108  1.00  0.00     0.171 C 
BRANCH   3   4
HETATM    4  C   UNL     1      -5.506   2.227 -30.520  1.00  0.00     0.120 A 
HETATM    5  N   UNL     1      -6.266   3.295 -30.127  1.00  0.00    -0.310 N 
HETATM    6  C   UNL     1      -5.946   4.594 -30.434  1.00  0.00     0.259 A 
HETATM    7  H   UNL     1      -7.089   3.156 -29.554  1.00  0.00     0.170 HD
HETATM    8  C   UNL     1      -4.717   4.784 -31.219  1.00  0.00     0.064 A 
HETATM    9  O   UNL     1      -6.622   5.550 -30.077  1.00  0.00    -0.267 OA
HETATM   10  C   UNL     1      -4.003   3.645 -31.576  1.00  0.00     0.077 A 
HETATM   11  C   UNL     1      -4.271   6.059 -31.569  1.00  0.00     0.059 A 
HETATM   12  C   UNL     1      -2.822   3.795 -32.308  1.00  0.00     0.072 A 
HETATM   13  N   UNL     1      -4.423   2.353 -31.222  1.00  0.00    -0.233 NA
HETATM   14  C   UNL     1      -2.363   5.066 -32.683  1.00  0.00     0.103 A 
HETATM   15  C   UNL     1      -3.076   6.206 -32.276  1.00  0.00     0.102 A 
BRANCH  14  16
HETATM   16  O   UNL     1      -1.213   5.235 -33.410  1.00  0.00    -0.353 OA
HETATM   17  C   UNL     1      -1.388   5.235 -34.824  1.00  0.00     0.210 C 
ENDBRANCH  14  16
BRANCH  15  18
HETATM   18  O   UNL     1      -2.756   7.507 -32.565  1.00  0.00    -0.353 OA
HETATM   19  C   UNL     1      -2.506   8.341 -31.439  1.00  0.00     0.210 C 
ENDBRANCH  15  18
ENDBRANCH   3   4
ENDBRANCH   1   3
BRANCH   1  20
HETATM   20  C   UNL     1      -7.058   0.075 -32.181  1.00  0.00     0.024 A 
HETATM   21  C   UNL     1      -7.876   0.745 -33.126  1.00  0.00     0.053 A 
HETATM   22  C   UNL     1      -7.740   0.490 -34.506  1.00  0.00     0.019 A 
HETATM   23  C   UNL     1      -6.820  -0.442 -34.971  1.00  0.00     0.001 A 
HETATM   24  C   UNL     1      -6.026  -1.125 -34.063  1.00  0.00     0.002 A 
HETATM   25  C   UNL     1      -6.145  -0.872 -32.691  1.00  0.00     0.024 A 
BRANCH  21  26
HETATM   26  C   UNL     1      -8.946   1.719 -32.766  1.00  0.00     0.253 C 
HETATM   27  N   UNL     1     -10.165   1.525 -33.364  1.00  0.00    -0.351 N 
HETATM   28  H   UNL     1     -10.290   0.700 -33.942  1.00  0.00     0.163 HD
HETATM   29  O   UNL     1      -8.705   2.657 -32.014  1.00  0.00    -0.268 OA
BRANCH  27  30
HETATM   30  C   UNL     1     -11.273   2.426 -33.166  1.00  0.00     0.187 C 
BRANCH  30  31
HETATM   31  C   UNL     1     -12.536   1.691 -33.402  1.00  0.00     0.070 A 
HETATM   32  O   UNL     1     -13.688   2.359 -33.118  1.00  0.00    -0.325 OA
HETATM   33  C   UNL     1     -14.714   1.502 -33.363  1.00  0.00     0.142 A 
HETATM   34  C   UNL     1     -14.236   0.297 -33.821  1.00  0.00     0.027 A 
HETATM   35  C   UNL     1     -12.826   0.419 -33.851  1.00  0.00     0.036 A 
ENDBRANCH  30  31
ENDBRANCH  27  30
ENDBRANCH  21  26
ENDBRANCH   1  20
TORSDOF 8
ENDMDL
MODEL 8
REMARK VINA RESULT:      -8.6      2.641      9.396
REMARK  8 active torsions:
REMARK  status: ('A' for Active; 'I' for Inactive)
REMARK    1  A    between atoms: O_2  and  C_3 
REMARK    2  A    between atoms: C_4  and  O_5 
REMARK    3  A    between atoms: C_13  and  C_14 
REMARK    4  A    between atoms: C_14  and  N_15 
REMARK    5  A    between atoms: N_15  and  C_16 
REMARK    6  A    between atoms: C_17  and  C_18 
REMARK       I    between atoms: C_18  and  N_19 
REMARK    7  A    between atoms: N_19  and  C_20 
REMARK    8  A    between atoms: C_20  and  C_21 
ROOT
HETATM    1  N   UNL     1      -5.271   0.779 -32.877  1.00  0.00    -0.285 NA
HETATM    2  H   UNL     1      -5.629   1.432 -33.584  1.00  0.00     0.128 HD
ENDROOT
BRANCH   1   3
HETATM    3  C   UNL     1      -3.980   1.238 -32.334  1.00  0.00     0.171 C 
BRANCH   3   4
HETATM    4  C   UNL     1      -3.749   2.740 -32.450  1.00  0.00     0.120 A 
HETATM    5  N   UNL     1      -4.742   3.516 -32.981  1.00  0.00    -0.310 N 
HETATM    6  C   UNL     1      -4.637   4.878 -33.114  1.00  0.00     0.259 A 
HETATM    7  H   UNL     1      -5.621   3.101 -33.267  1.00  0.00     0.170 HD
HETATM    8  C   UNL     1      -3.378   5.474 -32.642  1.00  0.00     0.064 A 
HETATM    9  O   UNL     1      -5.529   5.574 -33.583  1.00  0.00    -0.267 OA
HETATM   10  C   UNL     1      -2.421   4.613 -32.115  1.00  0.00     0.077 A 
HETATM   11  C   UNL     1      -3.163   6.851 -32.698  1.00  0.00     0.059 A 
HETATM   12  C   UNL     1      -1.221   5.152 -31.644  1.00  0.00     0.072 A 
HETATM   13  N   UNL     1      -2.621   3.226 -32.033  1.00  0.00    -0.233 NA
HETATM   14  C   UNL     1      -0.977   6.532 -31.703  1.00  0.00     0.103 A 
HETATM   15  C   UNL     1      -1.974   7.388 -32.200  1.00  0.00     0.102 A 
BRANCH  14  16
HETATM   16  O   UNL     1       0.197   7.080 -31.257  1.00  0.00    -0.353 OA
HETATM   17  C   UNL     1       0.350   7.106 -29.841  1.00  0.00     0.210 C 
ENDBRANCH  14  16
BRANCH  15  18
HETATM   18  O   UNL     1      -1.883   8.750 -32.323  1.00  0.00    -0.353 OA
HETATM   19  C   UNL     1      -2.353   9.498 -31.206  1.00  0.00     0.210 C 
ENDBRANCH  15  18
ENDBRANCH   3   4
ENDBRANCH   1   3
BRANCH   1  20
HETATM   20  C   UNL     1      -5.292  -0.521 -33.468  1.00  0.00     0.024 A 
HETATM   21  C   UNL     1      -6.442  -0.998 -34.148  1.00  0.00     0.053 A 
HETATM   22  C   UNL     1      -6.444  -2.269 -34.757  1.00  0.00     0.019 A 
HETATM   23  C   UNL     1      -5.328  -3.096 -34.684  1.00  0.00     0.001 A 
HETATM   24  C   UNL     1      -4.201  -2.658 -34.005  1.00  0.00     0.002 A 
HETATM   25  C   UNL     1      -4.185  -1.392 -33.406  1.00  0.00     0.024 A 
BRANCH  21  26
HETATM   26  C   UNL     1      -7.726  -0.247 -34.249  1.00  0.00     0.253 C 
HETATM   27  N   UNL     1      -8.315   0.103 -33.060  1.00  0.00    -0.351 N 
HETATM   28  H   UNL     1      -7.813  -0.093 -32.200  1.00  0.00     0.163 HD
HETATM   29  O   UNL     1      -8.227  -0.015 -35.343  1.00  0.00    -0.268 OA
BRANCH  27  30
HETATM   30  C   UNL     1      -9.592   0.770 -33.000  1.00  0.00     0.187 C 
BRANCH  30  31
HETATM   31  C   UNL     1      -9.403   2.112 -32.404  1.00  0.00     0.070 A 
HETATM   32  O   UNL     1      -8.119   2.491 -32.157  1.00  0.00    -0.325 OA
HETATM   33  C   UNL     1      -8.171   3.721 -31.581  1.00  0.00     0.142 A 
HETATM   34  C   UNL     1      -9.474   4.147 -31.475  1.00  0.00     0.027 A 
HETATM   35  C   UNL     1     -10.273   3.109 -32.010  1.00  0.00     0.036 A 
ENDBRANCH  30  31
ENDBRANCH  27  30
ENDBRANCH  21  26
ENDBRANCH   1  20
TORSDOF 8
ENDMDL
MODEL 9
REMARK VINA RESULT:      -8.5     17.394     19.133
REMARK  8 active torsions:
REMARK  status: ('A' for Active; 'I' for Inactive)
REMARK    1  A    between atoms: O_2  and  C_3 
REMARK    2  A    between atoms: C_4  and  O_5 
REMARK    3  A    between atoms: C_13  and  C_14 
REMARK    4  A    between atoms: C_14  and  N_15 
REMARK    5  A    between atoms: N_15  and  C_16 
REMARK    6  A    between atoms: C_17  and  C_18 
REMARK       I    between atoms: C_18  and  N_19 
REMARK    7  A    between atoms: N_19  and  C_20 
REMARK    8  A    between atoms: C_20  and  C_21 
ROOT
HETATM    1  N   UNL     1      -6.837 -12.899 -36.751  1.00  0.00    -0.285 NA
HETATM    2  H   UNL     1      -5.968 -12.532 -36.348  1.00  0.00     0.128 HD
ENDROOT
BRANCH   1   3
HETATM    3  C   UNL     1      -7.069 -14.294 -36.335  1.00  0.00     0.171 C 
BRANCH   3   4
HETATM    4  C   UNL     1      -6.063 -14.821 -35.318  1.00  0.00     0.120 A 
HETATM    5  N   UNL     1      -4.837 -15.233 -35.763  1.00  0.00    -0.310 N 
HETATM    6  C   UNL     1      -3.858 -15.708 -34.925  1.00  0.00     0.259 A 
HETATM    7  H   UNL     1      -4.597 -15.164 -36.744  1.00  0.00     0.170 HD
HETATM    8  C   UNL     1      -4.201 -15.749 -33.496  1.00  0.00     0.064 A 
HETATM    9  O   UNL     1      -2.759 -16.071 -35.322  1.00  0.00    -0.267 OA
HETATM   10  C   UNL     1      -5.469 -15.310 -33.129  1.00  0.00     0.077 A 
HETATM   11  C   UNL     1      -3.280 -16.185 -32.543  1.00  0.00     0.059 A 
HETATM   12  C   UNL     1      -5.818 -15.322 -31.776  1.00  0.00     0.072 A 
HETATM   13  N   UNL     1      -6.406 -14.852 -34.067  1.00  0.00    -0.233 NA
HETATM   14  C   UNL     1      -4.913 -15.770 -30.802  1.00  0.00     0.103 A 
HETATM   15  C   UNL     1      -3.623 -16.169 -31.189  1.00  0.00     0.102 A 
BRANCH  14  16
HETATM   16  O   UNL     1      -5.238 -15.800 -29.471  1.00  0.00    -0.353 OA
HETATM   17  C   UNL     1      -6.002 -16.930 -29.061  1.00  0.00     0.210 C 
ENDBRANCH  14  16
BRANCH  15  18
HETATM   18  O   UNL     1      -2.635 -16.630 -30.359  1.00  0.00    -0.353 OA
HETATM   19  C   UNL     1      -1.461 -15.826 -30.297  1.00  0.00     0.210 C 
ENDBRANCH  15  18
ENDBRANCH   3   4
ENDBRANCH   1   3
BRANCH   1  20
HETATM   20  C   UNL     1      -6.778 -12.650 -38.156  1.00  0.00     0.024 A 
HETATM   21  C   UNL     1      -5.540 -12.414 -38.806  1.00  0.00     0.053 A 
HETATM   22  C   UNL     1      -5.486 -12.201 -40.198  1.00  0.00     0.019 A 
HETATM   23  C   UNL     1      -6.646 -12.193 -40.963  1.00  0.00     0.001 A 
HETATM   24  C   UNL     1      -7.870 -12.400 -40.345  1.00  0.00     0.002 A 
HETATM   25  C   UNL     1      -7.934 -12.623 -38.963  1.00  0.00     0.024 A 
BRANCH  21  26
HETATM   26  C   UNL     1      -4.227 -12.331 -38.102  1.00  0.00     0.253 C 
HETATM   27  N   UNL     1      -3.114 -12.302 -38.904  1.00  0.00    -0.351 N 
HETATM   28  H   UNL     1      -3.248 -12.257 -39.909  1.00  0.00     0.163 HD
HETATM   29  O   UNL     1      -4.177 -12.341 -36.878  1.00  0.00    -0.268 OA
BRANCH  27  30
HETATM   30  C   UNL     1      -1.777 -12.293 -38.365  1.00  0.00     0.187 C 
BRANCH  30  31
HETATM   31  C   UNL     1      -0.973 -13.322 -39.062  1.00  0.00     0.070 A 
HETATM   32  O   UNL     1       0.007 -13.924 -38.333  1.00  0.00    -0.325 OA
HETATM   33  C   UNL     1       0.642 -14.793 -39.161  1.00  0.00     0.142 A 
HETATM   34  C   UNL     1       0.068 -14.774 -40.410  1.00  0.00     0.027 A 
HETATM   35  C   UNL     1      -0.980 -13.825 -40.348  1.00  0.00     0.036 A 
ENDBRANCH  30  31
ENDBRANCH  27  30
ENDBRANCH  21  26
ENDBRANCH   1  20
TORSDOF 8
ENDMDL
MODEL 10
REMARK VINA RESULT:      -8.3      3.409      4.631
REMARK  8 active torsions:
REMARK  status: ('A' for Active; 'I' for Inactive)
REMARK    1  A    between atoms: O_2  and  C_3 
REMARK    2  A    between atoms: C_4  and  O_5 
REMARK    3  A    between atoms: C_13  and  C_14 
REMARK    4  A    between atoms: C_14  and  N_15 
REMARK    5  A    between atoms: N_15  and  C_16 
REMARK    6  A    between atoms: C_17  and  C_18 
REMARK       I    between atoms: C_18  and  N_19 
REMARK    7  A    between atoms: N_19  and  C_20 
REMARK    8  A    between atoms: C_20  and  C_21 
ROOT
HETATM    1  N   UNL     1      -2.219   3.539 -31.273  1.00  0.00    -0.285 NA
HETATM    2  H   UNL     1      -1.375   2.989 -31.075  1.00  0.00     0.128 HD
ENDROOT
BRANCH   1   3
HETATM    3  C   UNL     1      -3.224   2.733 -31.989  1.00  0.00     0.171 C 
BRANCH   3   4
HETATM    4  C   UNL     1      -4.662   2.991 -31.553  1.00  0.00     0.120 A 
HETATM    5  N   UNL     1      -4.880   3.616 -30.356  1.00  0.00    -0.310 N 
HETATM    6  C   UNL     1      -6.136   3.907 -29.882  1.00  0.00     0.259 A 
HETATM    7  H   UNL     1      -4.101   3.921 -29.786  1.00  0.00     0.170 HD
HETATM    8  C   UNL     1      -7.256   3.508 -30.747  1.00  0.00     0.064 A 
HETATM    9  O   UNL     1      -6.332   4.472 -28.814  1.00  0.00    -0.267 OA
HETATM   10  C   UNL     1      -6.946   2.879 -31.948  1.00  0.00     0.077 A 
HETATM   11  C   UNL     1      -8.578   3.774 -30.389  1.00  0.00     0.059 A 
HETATM   12  C   UNL     1      -7.988   2.503 -32.799  1.00  0.00     0.072 A 
HETATM   13  N   UNL     1      -5.623   2.615 -32.338  1.00  0.00    -0.233 NA
HETATM   14  C   UNL     1      -9.325   2.747 -32.452  1.00  0.00     0.103 A 
HETATM   15  C   UNL     1      -9.616   3.422 -31.254  1.00  0.00     0.102 A 
BRANCH  14  16
HETATM   16  O   UNL     1     -10.364   2.378 -33.266  1.00  0.00    -0.353 OA
HETATM   17  C   UNL     1     -10.645   0.981 -33.289  1.00  0.00     0.210 C 
ENDBRANCH  14  16
BRANCH  15  18
HETATM   18  O   UNL     1     -10.865   3.730 -30.781  1.00  0.00    -0.353 OA
HETATM   19  C   UNL     1     -11.355   5.018 -31.138  1.00  0.00     0.210 C 
ENDBRANCH  15  18
ENDBRANCH   3   4
ENDBRANCH   1   3
BRANCH   1  20
HETATM   20  C   UNL     1      -1.787   4.741 -31.913  1.00  0.00     0.024 A 
HETATM   21  C   UNL     1      -0.770   5.549 -31.343  1.00  0.00     0.053 A 
HETATM   22  C   UNL     1      -0.327   6.716 -31.997  1.00  0.00     0.019 A 
HETATM   23  C   UNL     1      -0.892   7.117 -33.202  1.00  0.00     0.001 A 
HETATM   24  C   UNL     1      -1.903   6.354 -33.765  1.00  0.00     0.002 A 
HETATM   25  C   UNL     1      -2.344   5.186 -33.130  1.00  0.00     0.024 A 
BRANCH  21  26
HETATM   26  C   UNL     1      -0.122   5.276 -30.029  1.00  0.00     0.253 C 
HETATM   27  N   UNL     1      -0.533   6.059 -28.980  1.00  0.00    -0.351 N 
HETATM   28  H   UNL     1      -1.296   6.708 -29.136  1.00  0.00     0.163 HD
HETATM   29  O   UNL     1       0.759   4.429 -29.934  1.00  0.00    -0.268 OA
BRANCH  27  30
HETATM   30  C   UNL     1       0.053   5.956 -27.666  1.00  0.00     0.187 C 
BRANCH  30  31
HETATM   31  C   UNL     1       0.822   7.190 -27.388  1.00  0.00     0.070 A 
HETATM   32  O   UNL     1       1.228   7.375 -26.101  1.00  0.00    -0.325 OA
HETATM   33  C   UNL     1       1.872   8.570 -26.055  1.00  0.00     0.142 A 
HETATM   34  C   UNL     1       1.904   9.147 -27.303  1.00  0.00     0.027 A 
HETATM   35  C   UNL     1       1.228   8.254 -28.168  1.00  0.00     0.036 A 
ENDBRANCH  30  31
ENDBRANCH  27  30
ENDBRANCH  21  26
ENDBRANCH   1  20
TORSDOF 8
ENDMDL
