MODEL 1
REMARK VINA RESULT:      -7.6      0.000      0.000
REMARK  7 active torsions:
REMARK  status: ('A' for Active; 'I' for Inactive)
REMARK    1  A    between atoms: O_2  and  C_3 
REMARK    2  A    between atoms: C_4  and  O_5 
REMARK    3  A    between atoms: C_9  and  C_10 
REMARK    4  A    between atoms: C_10  and  N_11 
REMARK    5  A    between atoms: C_14  and  C_15 
REMARK    6  A    between atoms: C_15  and  N_16 
REMARK    7  A    between atoms: N_16  and  C_17 
ROOT
HETATM    1  N   UNL     1      -4.946   1.816 -31.334  1.00  0.00    -0.067 N 
HETATM    2  H   UNL     1      -3.941   1.580 -31.286  1.00  0.00     0.280 HD
HETATM    3  C   UNL     1      -5.477   1.295 -32.652  1.00  0.00     0.241 C 
HETATM    4  C   UNL     1      -6.755   0.551 -32.275  1.00  0.00     0.031 C 
HETATM    5  C   UNL     1      -6.368  -0.076 -30.940  1.00  0.00     0.035 C 
HETATM    6  C   UNL     1      -5.640   1.053 -30.224  1.00  0.00     0.235 C 
ENDROOT
BRANCH   1   7
HETATM    7  C   UNL     1      -5.001   3.318 -31.153  1.00  0.00     0.274 C 
BRANCH   7   8
HETATM    8  C   UNL     1      -3.983   4.061 -31.982  1.00  0.00    -0.012 A 
HETATM    9  C   UNL     1      -4.341   4.790 -33.133  1.00  0.00     0.021 A 
HETATM   10  C   UNL     1      -3.378   5.490 -33.856  1.00  0.00     0.059 A 
HETATM   11 BR   UNL     1      -6.137   4.886 -33.742  1.00  0.00    -0.050 Br
HETATM   12  C   UNL     1      -2.057   5.470 -33.429  1.00  0.00     0.100 A 
HETATM   13  C   UNL     1      -1.663   4.757 -32.295  1.00  0.00     0.101 A 
HETATM   14  C   UNL     1      -2.628   4.045 -31.582  1.00  0.00     0.049 A 
BRANCH  12  15
HETATM   15  O   UNL     1      -1.145   6.181 -34.154  1.00  0.00    -0.358 OA
HETATM   16  H   UNL     1      -1.323   7.127 -33.980  1.00  0.00     0.218 HD
ENDBRANCH  12  15
BRANCH  13  17
HETATM   17  O   UNL     1      -0.332   4.846 -31.991  1.00  0.00    -0.353 OA
HETATM   18  C   UNL     1       0.031   5.536 -30.801  1.00  0.00     0.210 C 
ENDBRANCH  13  17
ENDBRANCH   7   8
ENDBRANCH   1   7
BRANCH   4  19
HETATM   19  C   UNL     1      -7.179  -0.445 -33.360  1.00  0.00     0.127 C 
BRANCH  19  20
HETATM   20  N   UNL     1      -6.025  -0.904 -34.136  1.00  0.00    -0.376 N 
HETATM   21  H   UNL     1      -5.233  -0.272 -34.181  1.00  0.00     0.161 HD
BRANCH  20  22
HETATM   22  C   UNL     1      -5.778  -2.259 -34.291  1.00  0.00     0.100 A 
HETATM   23  N   UNL     1      -4.540  -2.715 -34.024  1.00  0.00    -0.353 N 
HETATM   24  H   UNL     1      -3.835  -2.045 -33.732  1.00  0.00     0.166 HD
HETATM   25  C   UNL     1      -4.175  -4.002 -34.140  1.00  0.00     0.089 A 
HETATM   26  C   UNL     1      -5.091  -4.950 -34.563  1.00  0.00     0.017 A 
HETATM   27  C   UNL     1      -6.377  -4.537 -34.875  1.00  0.00     0.005 A 
HETATM   28  C   UNL     1      -6.720  -3.191 -34.748  1.00  0.00     0.048 A 
ENDBRANCH  20  22
ENDBRANCH  19  20
ENDBRANCH   4  19
TORSDOF 7
ENDMDL
MODEL 2
REMARK VINA RESULT:      -7.6      5.324      7.907
REMARK  7 active torsions:
REMARK  status: ('A' for Active; 'I' for Inactive)
REMARK    1  A    between atoms: O_2  and  C_3 
REMARK    2  A    between atoms: C_4  and  O_5 
REMARK    3  A    between atoms: C_9  and  C_10 
REMARK    4  A    between atoms: C_10  and  N_11 
REMARK    5  A    between atoms: C_14  and  C_15 
REMARK    6  A    between atoms: C_15  and  N_16 
REMARK    7  A    between atoms: N_16  and  C_17 
ROOT
HETATM    1  N   UNL     1      -7.458   0.406 -32.852  1.00  0.00    -0.067 N 
HETATM    2  H   UNL     1      -7.591  -0.607 -32.701  1.00  0.00     0.280 HD
HETATM    3  C   UNL     1      -8.446   0.847 -33.910  1.00  0.00     0.241 C 
HETATM    4  C   UNL     1      -9.096   2.096 -33.321  1.00  0.00     0.031 C 
HETATM    5  C   UNL     1      -9.182   1.734 -31.842  1.00  0.00     0.035 C 
HETATM    6  C   UNL     1      -7.826   1.105 -31.558  1.00  0.00     0.235 C 
ENDROOT
BRANCH   1   7
HETATM    7  C   UNL     1      -5.996   0.555 -33.217  1.00  0.00     0.274 C 
BRANCH   7   8
HETATM    8  C   UNL     1      -5.270  -0.762 -33.338  1.00  0.00    -0.012 A 
HETATM    9  C   UNL     1      -4.203  -1.112 -32.488  1.00  0.00     0.021 A 
HETATM   10  C   UNL     1      -3.577  -2.351 -32.608  1.00  0.00     0.059 A 
HETATM   11 BR   UNL     1      -3.581   0.056 -31.125  1.00  0.00    -0.050 Br
HETATM   12  C   UNL     1      -4.020  -3.246 -33.572  1.00  0.00     0.100 A 
HETATM   13  C   UNL     1      -5.073  -2.936 -34.435  1.00  0.00     0.101 A 
HETATM   14  C   UNL     1      -5.686  -1.688 -34.322  1.00  0.00     0.049 A 
BRANCH  12  15
HETATM   15  O   UNL     1      -3.394  -4.457 -33.649  1.00  0.00    -0.358 OA
HETATM   16  H   UNL     1      -2.968  -4.608 -32.782  1.00  0.00     0.218 HD
ENDBRANCH  12  15
BRANCH  13  17
HETATM   17  O   UNL     1      -5.405  -3.924 -35.320  1.00  0.00    -0.353 OA
HETATM   18  C   UNL     1      -6.701  -4.501 -35.213  1.00  0.00     0.210 C 
ENDBRANCH  13  17
ENDBRANCH   7   8
ENDBRANCH   1   7
BRANCH   4  19
HETATM   19  C   UNL     1     -10.437   2.413 -33.990  1.00  0.00     0.127 C 
BRANCH  19  20
HETATM   20  N   UNL     1     -11.302   1.232 -34.027  1.00  0.00    -0.376 N 
HETATM   21  H   UNL     1     -10.856   0.342 -33.830  1.00  0.00     0.161 HD
BRANCH  20  22
HETATM   22  C   UNL     1     -12.658   1.346 -33.763  1.00  0.00     0.100 A 
HETATM   23  N   UNL     1     -13.047   2.174 -32.775  1.00  0.00    -0.353 N 
HETATM   24  H   UNL     1     -12.330   2.671 -32.257  1.00  0.00     0.166 HD
HETATM   25  C   UNL     1     -14.327   2.367 -32.421  1.00  0.00     0.089 A 
HETATM   26  C   UNL     1     -15.341   1.689 -33.078  1.00  0.00     0.017 A 
HETATM   27  C   UNL     1     -15.001   0.804 -34.090  1.00  0.00     0.005 A 
HETATM   28  C   UNL     1     -13.660   0.625 -34.428  1.00  0.00     0.048 A 
ENDBRANCH  20  22
ENDBRANCH  19  20
ENDBRANCH   4  19
TORSDOF 7
ENDMDL
MODEL 3
REMARK VINA RESULT:      -7.5      3.816      8.760
REMARK  7 active torsions:
REMARK  status: ('A' for Active; 'I' for Inactive)
REMARK    1  A    between atoms: O_2  and  C_3 
REMARK    2  A    between atoms: C_4  and  O_5 
REMARK    3  A    between atoms: C_9  and  C_10 
REMARK    4  A    between atoms: C_10  and  N_11 
REMARK    5  A    between atoms: C_14  and  C_15 
REMARK    6  A    between atoms: C_15  and  N_16 
REMARK    7  A    between atoms: N_16  and  C_17 
ROOT
HETATM    1  N   UNL     1      -4.956   1.439 -32.756  1.00  0.00    -0.067 N 
HETATM    2  H   UNL     1      -4.960   1.189 -33.758  1.00  0.00     0.280 HD
HETATM    3  C   UNL     1      -3.550   1.868 -32.393  1.00  0.00     0.241 C 
HETATM    4  C   UNL     1      -3.741   3.176 -31.631  1.00  0.00     0.031 C 
HETATM    5  C   UNL     1      -4.906   3.809 -32.384  1.00  0.00     0.035 C 
HETATM    6  C   UNL     1      -5.862   2.642 -32.589  1.00  0.00     0.235 C 
ENDROOT
BRANCH   1   7
HETATM    7  C   UNL     1      -5.468   0.202 -32.047  1.00  0.00     0.274 C 
BRANCH   7   8
HETATM    8  C   UNL     1      -5.685  -0.971 -32.969  1.00  0.00    -0.012 A 
HETATM    9  C   UNL     1      -6.922  -1.212 -33.599  1.00  0.00     0.021 A 
HETATM   10  C   UNL     1      -7.076  -2.288 -34.471  1.00  0.00     0.059 A 
HETATM   11 BR   UNL     1      -8.423  -0.081 -33.328  1.00  0.00    -0.050 Br
HETATM   12  C   UNL     1      -5.995  -3.123 -34.720  1.00  0.00     0.100 A 
HETATM   13  C   UNL     1      -4.754  -2.920 -34.112  1.00  0.00     0.101 A 
HETATM   14  C   UNL     1      -4.608  -1.849 -33.229  1.00  0.00     0.049 A 
BRANCH  12  15
HETATM   15  O   UNL     1      -6.179  -4.157 -35.591  1.00  0.00    -0.358 OA
HETATM   16  H   UNL     1      -5.315  -4.323 -36.018  1.00  0.00     0.218 HD
ENDBRANCH  12  15
BRANCH  13  17
HETATM   17  O   UNL     1      -3.783  -3.814 -34.468  1.00  0.00    -0.353 OA
HETATM   18  C   UNL     1      -3.388  -4.782 -33.504  1.00  0.00     0.210 C 
ENDBRANCH  13  17
ENDBRANCH   7   8
ENDBRANCH   1   7
BRANCH   4  19
HETATM   19  C   UNL     1      -2.458   4.013 -31.600  1.00  0.00     0.127 C 
BRANCH  19  20
HETATM   20  N   UNL     1      -2.664   5.271 -30.880  1.00  0.00    -0.376 N 
HETATM   21  H   UNL     1      -3.554   5.376 -30.405  1.00  0.00     0.161 HD
BRANCH  20  22
HETATM   22  C   UNL     1      -1.582   5.983 -30.386  1.00  0.00     0.100 A 
HETATM   23  N   UNL     1      -1.633   6.417 -29.113  1.00  0.00    -0.353 N 
HETATM   24  H   UNL     1      -2.467   6.216 -28.571  1.00  0.00     0.166 HD
HETATM   25  C   UNL     1      -0.653   7.118 -28.522  1.00  0.00     0.089 A 
HETATM   26  C   UNL     1       0.493   7.445 -29.228  1.00  0.00     0.017 A 
HETATM   27  C   UNL     1       0.594   7.045 -30.551  1.00  0.00     0.005 A 
HETATM   28  C   UNL     1      -0.445   6.321 -31.135  1.00  0.00     0.048 A 
ENDBRANCH  20  22
ENDBRANCH  19  20
ENDBRANCH   4  19
TORSDOF 7
ENDMDL
MODEL 4
REMARK VINA RESULT:      -7.2      3.703      8.968
REMARK  7 active torsions:
REMARK  status: ('A' for Active; 'I' for Inactive)
REMARK    1  A    between atoms: O_2  and  C_3 
REMARK    2  A    between atoms: C_4  and  O_5 
REMARK    3  A    between atoms: C_9  and  C_10 
REMARK    4  A    between atoms: C_10  and  N_11 
REMARK    5  A    between atoms: C_14  and  C_15 
REMARK    6  A    between atoms: C_15  and  N_16 
REMARK    7  A    between atoms: N_16  and  C_17 
ROOT
HETATM    1  N   UNL     1      -3.159   4.020 -33.041  1.00  0.00    -0.067 N 
HETATM    2  H   UNL     1      -3.064   3.073 -33.441  1.00  0.00     0.280 HD
HETATM    3  C   UNL     1      -2.241   4.105 -31.839  1.00  0.00     0.241 C 
HETATM    4  C   UNL     1      -1.483   5.415 -32.037  1.00  0.00     0.031 C 
HETATM    5  C   UNL     1      -1.292   5.440 -33.549  1.00  0.00     0.035 C 
HETATM    6  C   UNL     1      -2.650   5.000 -34.079  1.00  0.00     0.235 C 
ENDROOT
BRANCH   1   7
HETATM    7  C   UNL     1      -4.637   4.171 -32.749  1.00  0.00     0.274 C 
BRANCH   7   8
HETATM    8  C   UNL     1      -5.223   3.001 -31.999  1.00  0.00    -0.012 A 
HETATM    9  C   UNL     1      -5.707   3.120 -30.682  1.00  0.00     0.021 A 
HETATM   10  C   UNL     1      -6.272   2.024 -30.032  1.00  0.00     0.059 A 
HETATM   11 BR   UNL     1      -5.647   4.765 -29.735  1.00  0.00    -0.050 Br
HETATM   12  C   UNL     1      -6.362   0.809 -30.699  1.00  0.00     0.100 A 
HETATM   13  C   UNL     1      -5.891   0.651 -32.004  1.00  0.00     0.101 A 
HETATM   14  C   UNL     1      -5.312   1.747 -32.646  1.00  0.00     0.049 A 
BRANCH  12  15
HETATM   15  O   UNL     1      -6.936  -0.237 -30.037  1.00  0.00    -0.358 OA
HETATM   16  H   UNL     1      -6.308  -0.505 -29.337  1.00  0.00     0.218 HD
ENDBRANCH  12  15
BRANCH  13  17
HETATM   17  O   UNL     1      -6.064  -0.598 -32.533  1.00  0.00    -0.353 OA
HETATM   18  C   UNL     1      -4.899  -1.340 -32.875  1.00  0.00     0.210 C 
ENDBRANCH  13  17
ENDBRANCH   7   8
ENDBRANCH   1   7
BRANCH   4  19
HETATM   19  C   UNL     1      -0.188   5.456 -31.219  1.00  0.00     0.127 C 
BRANCH  19  20
HETATM   20  N   UNL     1      -0.454   5.230 -29.796  1.00  0.00    -0.376 N 
HETATM   21  H   UNL     1      -0.590   4.265 -29.513  1.00  0.00     0.161 HD
BRANCH  20  22
HETATM   22  C   UNL     1       0.014   6.122 -28.844  1.00  0.00     0.100 A 
HETATM   23  N   UNL     1      -0.223   5.852 -27.547  1.00  0.00    -0.353 N 
HETATM   24  H   UNL     1      -0.746   5.012 -27.321  1.00  0.00     0.166 HD
HETATM   25  C   UNL     1       0.174   6.638 -26.534  1.00  0.00     0.089 A 
HETATM   26  C   UNL     1       0.864   7.811 -26.792  1.00  0.00     0.017 A 
HETATM   27  C   UNL     1       1.119   8.155 -28.111  1.00  0.00     0.005 A 
HETATM   28  C   UNL     1       0.688   7.316 -29.138  1.00  0.00     0.048 A 
ENDBRANCH  20  22
ENDBRANCH  19  20
ENDBRANCH   4  19
TORSDOF 7
ENDMDL
MODEL 5
REMARK VINA RESULT:      -7.2      3.601      7.551
REMARK  7 active torsions:
REMARK  status: ('A' for Active; 'I' for Inactive)
REMARK    1  A    between atoms: O_2  and  C_3 
REMARK    2  A    between atoms: C_4  and  O_5 
REMARK    3  A    between atoms: C_9  and  C_10 
REMARK    4  A    between atoms: C_10  and  N_11 
REMARK    5  A    between atoms: C_14  and  C_15 
REMARK    6  A    between atoms: C_15  and  N_16 
REMARK    7  A    between atoms: N_16  and  C_17 
ROOT
HETATM    1  N   UNL     1      -8.147   1.642 -33.927  1.00  0.00    -0.067 N 
HETATM    2  H   UNL     1      -8.241   1.236 -34.872  1.00  0.00     0.280 HD
HETATM    3  C   UNL     1      -6.883   2.475 -33.907  1.00  0.00     0.241 C 
HETATM    4  C   UNL     1      -7.314   3.798 -33.279  1.00  0.00     0.031 C 
HETATM    5  C   UNL     1      -8.716   3.972 -33.851  1.00  0.00     0.035 C 
HETATM    6  C   UNL     1      -9.320   2.580 -33.723  1.00  0.00     0.235 C 
ENDROOT
BRANCH   1   7
HETATM    7  C   UNL     1      -8.163   0.452 -32.991  1.00  0.00     0.274 C 
BRANCH   7   8
HETATM    8  C   UNL     1      -6.950  -0.434 -33.127  1.00  0.00    -0.012 A 
HETATM    9  C   UNL     1      -5.900  -0.420 -32.188  1.00  0.00     0.021 A 
HETATM   10  C   UNL     1      -4.811  -1.276 -32.329  1.00  0.00     0.059 A 
HETATM   11 BR   UNL     1      -5.922   0.731 -30.677  1.00  0.00    -0.050 Br
HETATM   12  C   UNL     1      -4.770  -2.155 -33.403  1.00  0.00     0.100 A 
HETATM   13  C   UNL     1      -5.789  -2.198 -34.356  1.00  0.00     0.101 A 
HETATM   14  C   UNL     1      -6.872  -1.328 -34.220  1.00  0.00     0.049 A 
BRANCH  12  15
HETATM   15  O   UNL     1      -3.695  -2.990 -33.499  1.00  0.00    -0.358 OA
HETATM   16  H   UNL     1      -3.399  -2.962 -34.431  1.00  0.00     0.218 HD
ENDBRANCH  12  15
BRANCH  13  17
HETATM   17  O   UNL     1      -5.616  -3.125 -35.346  1.00  0.00    -0.353 OA
HETATM   18  C   UNL     1      -6.404  -4.308 -35.292  1.00  0.00     0.210 C 
ENDBRANCH  13  17
ENDBRANCH   7   8
ENDBRANCH   1   7
BRANCH   4  19
HETATM   19  C   UNL     1      -6.336   4.931 -33.605  1.00  0.00     0.127 C 
BRANCH  19  20
HETATM   20  N   UNL     1      -5.241   4.457 -34.455  1.00  0.00    -0.376 N 
HETATM   21  H   UNL     1      -5.459   4.328 -35.437  1.00  0.00     0.161 HD
BRANCH  20  22
HETATM   22  C   UNL     1      -3.924   4.724 -34.116  1.00  0.00     0.100 A 
HETATM   23  N   UNL     1      -3.512   4.419 -32.872  1.00  0.00    -0.353 N 
HETATM   24  H   UNL     1      -4.186   4.018 -32.228  1.00  0.00     0.166 HD
HETATM   25  C   UNL     1      -2.264   4.632 -32.423  1.00  0.00     0.089 A 
HETATM   26  C   UNL     1      -1.315   5.205 -33.252  1.00  0.00     0.017 A 
HETATM   27  C   UNL     1      -1.686   5.562 -34.539  1.00  0.00     0.005 A 
HETATM   28  C   UNL     1      -2.991   5.330 -34.971  1.00  0.00     0.048 A 
ENDBRANCH  20  22
ENDBRANCH  19  20
ENDBRANCH   4  19
TORSDOF 7
ENDMDL
MODEL 6
REMARK VINA RESULT:      -7.1      4.471      7.106
REMARK  7 active torsions:
REMARK  status: ('A' for Active; 'I' for Inactive)
REMARK    1  A    between atoms: O_2  and  C_3 
REMARK    2  A    between atoms: C_4  and  O_5 
REMARK    3  A    between atoms: C_9  and  C_10 
REMARK    4  A    between atoms: C_10  and  N_11 
REMARK    5  A    between atoms: C_14  and  C_15 
REMARK    6  A    between atoms: C_15  and  N_16 
REMARK    7  A    between atoms: N_16  and  C_17 
ROOT
HETATM    1  N   UNL     1      -6.059   0.972 -31.640  1.00  0.00    -0.067 N 
HETATM    2  H   UNL     1      -5.839   0.098 -31.136  1.00  0.00     0.280 HD
HETATM    3  C   UNL     1      -7.565   1.130 -31.652  1.00  0.00     0.241 C 
HETATM    4  C   UNL     1      -7.796   2.572 -31.210  1.00  0.00     0.031 C 
HETATM    5  C   UNL     1      -6.696   2.761 -30.172  1.00  0.00     0.035 C 
HETATM    6  C   UNL     1      -5.483   2.116 -30.829  1.00  0.00     0.235 C 
ENDROOT
BRANCH   1   7
HETATM    7  C   UNL     1      -5.407   0.813 -32.997  1.00  0.00     0.274 C 
BRANCH   7   8
HETATM    8  C   UNL     1      -5.416  -0.607 -33.504  1.00  0.00    -0.012 A 
HETATM    9  C   UNL     1      -6.365  -1.065 -34.440  1.00  0.00     0.021 A 
HETATM   10  C   UNL     1      -6.322  -2.375 -34.910  1.00  0.00     0.059 A 
HETATM   11 BR   UNL     1      -7.720   0.072 -35.130  1.00  0.00    -0.050 Br
HETATM   12  C   UNL     1      -5.329  -3.231 -34.453  1.00  0.00     0.100 A 
HETATM   13  C   UNL     1      -4.373  -2.816 -33.524  1.00  0.00     0.101 A 
HETATM   14  C   UNL     1      -4.428  -1.507 -33.044  1.00  0.00     0.049 A 
BRANCH  12  15
HETATM   15  O   UNL     1      -5.309  -4.503 -34.949  1.00  0.00    -0.358 OA
HETATM   16  H   UNL     1      -4.556  -4.958 -34.523  1.00  0.00     0.218 HD
ENDBRANCH  12  15
BRANCH  13  17
HETATM   17  O   UNL     1      -3.450  -3.766 -33.182  1.00  0.00    -0.353 OA
HETATM   18  C   UNL     1      -2.999  -3.797 -31.833  1.00  0.00     0.210 C 
ENDBRANCH  13  17
ENDBRANCH   7   8
ENDBRANCH   1   7
BRANCH   4  19
HETATM   19  C   UNL     1      -9.222   2.791 -30.692  1.00  0.00     0.127 C 
BRANCH  19  20
HETATM   20  N   UNL     1      -9.982   3.666 -31.587  1.00  0.00    -0.376 N 
HETATM   21  H   UNL     1      -9.743   4.651 -31.562  1.00  0.00     0.161 HD
BRANCH  20  22
HETATM   22  C   UNL     1     -10.532   3.166 -32.757  1.00  0.00     0.100 A 
HETATM   23  N   UNL     1     -11.012   1.909 -32.749  1.00  0.00    -0.353 N 
HETATM   24  H   UNL     1     -10.940   1.374 -31.889  1.00  0.00     0.166 HD
HETATM   25  C   UNL     1     -11.563   1.311 -33.817  1.00  0.00     0.089 A 
HETATM   26  C   UNL     1     -11.657   1.987 -35.022  1.00  0.00     0.017 A 
HETATM   27  C   UNL     1     -11.159   3.278 -35.099  1.00  0.00     0.005 A 
HETATM   28  C   UNL     1     -10.588   3.867 -33.970  1.00  0.00     0.048 A 
ENDBRANCH  20  22
ENDBRANCH  19  20
ENDBRANCH   4  19
TORSDOF 7
ENDMDL
MODEL 7
REMARK VINA RESULT:      -7.0      4.979      6.904
REMARK  7 active torsions:
REMARK  status: ('A' for Active; 'I' for Inactive)
REMARK    1  A    between atoms: O_2  and  C_3 
REMARK    2  A    between atoms: C_4  and  O_5 
REMARK    3  A    between atoms: C_9  and  C_10 
REMARK    4  A    between atoms: C_10  and  N_11 
REMARK    5  A    between atoms: C_14  and  C_15 
REMARK    6  A    between atoms: C_15  and  N_16 
REMARK    7  A    between atoms: N_16  and  C_17 
ROOT
HETATM    1  N   UNL     1      -8.012   1.163 -32.993  1.00  0.00    -0.067 N 
HETATM    2  H   UNL     1      -8.453   1.045 -33.920  1.00  0.00     0.280 HD
HETATM    3  C   UNL     1      -7.257  -0.110 -32.676  1.00  0.00     0.241 C 
HETATM    4  C   UNL     1      -5.884   0.371 -32.215  1.00  0.00     0.031 C 
HETATM    5  C   UNL     1      -5.651   1.569 -33.128  1.00  0.00     0.035 C 
HETATM    6  C   UNL     1      -6.996   2.282 -33.118  1.00  0.00     0.235 C 
ENDROOT
BRANCH   1   7
HETATM    7  C   UNL     1      -9.157   1.496 -32.059  1.00  0.00     0.274 C 
BRANCH   7   8
HETATM    8  C   UNL     1     -10.315   2.174 -32.747  1.00  0.00    -0.012 A 
HETATM    9  C   UNL     1     -10.527   3.564 -32.667  1.00  0.00     0.021 A 
HETATM   10  C   UNL     1     -11.590   4.160 -33.343  1.00  0.00     0.059 A 
HETATM   11 BR   UNL     1      -9.375   4.699 -31.672  1.00  0.00    -0.050 Br
HETATM   12  C   UNL     1     -12.440   3.369 -34.106  1.00  0.00     0.100 A 
HETATM   13  C   UNL     1     -12.264   1.988 -34.208  1.00  0.00     0.101 A 
HETATM   14  C   UNL     1     -11.208   1.394 -33.517  1.00  0.00     0.049 A 
BRANCH  12  15
HETATM   15  O   UNL     1     -13.460   3.990 -34.767  1.00  0.00    -0.358 OA
HETATM   16  H   UNL     1     -14.279   3.508 -34.537  1.00  0.00     0.218 HD
ENDBRANCH  12  15
BRANCH  13  17
HETATM   17  O   UNL     1     -13.171   1.348 -35.008  1.00  0.00    -0.353 OA
HETATM   18  C   UNL     1     -14.220   0.626 -34.375  1.00  0.00     0.210 C 
ENDBRANCH  13  17
ENDBRANCH   7   8
ENDBRANCH   1   7
BRANCH   4  19
HETATM   19  C   UNL     1      -4.828  -0.734 -32.312  1.00  0.00     0.127 C 
BRANCH  19  20
HETATM   20  N   UNL     1      -4.648  -1.173 -33.698  1.00  0.00    -0.376 N 
HETATM   21  H   UNL     1      -3.981  -0.647 -34.253  1.00  0.00     0.161 HD
BRANCH  20  22
HETATM   22  C   UNL     1      -4.883  -2.491 -34.054  1.00  0.00     0.100 A 
HETATM   23  N   UNL     1      -3.974  -3.419 -33.701  1.00  0.00    -0.353 N 
HETATM   24  H   UNL     1      -3.147  -3.112 -33.199  1.00  0.00     0.166 HD
HETATM   25  C   UNL     1      -4.086  -4.725 -33.990  1.00  0.00     0.089 A 
HETATM   26  C   UNL     1      -5.181  -5.190 -34.699  1.00  0.00     0.017 A 
HETATM   27  C   UNL     1      -6.141  -4.278 -35.110  1.00  0.00     0.005 A 
HETATM   28  C   UNL     1      -5.990  -2.928 -34.796  1.00  0.00     0.048 A 
ENDBRANCH  20  22
ENDBRANCH  19  20
ENDBRANCH   4  19
TORSDOF 7
ENDMDL
MODEL 8
REMARK VINA RESULT:      -7.0      3.457      7.571
REMARK  7 active torsions:
REMARK  status: ('A' for Active; 'I' for Inactive)
REMARK    1  A    between atoms: O_2  and  C_3 
REMARK    2  A    between atoms: C_4  and  O_5 
REMARK    3  A    between atoms: C_9  and  C_10 
REMARK    4  A    between atoms: C_10  and  N_11 
REMARK    5  A    between atoms: C_14  and  C_15 
REMARK    6  A    between atoms: C_15  and  N_16 
REMARK    7  A    between atoms: N_16  and  C_17 
ROOT
HETATM    1  N   UNL     1      -7.133   2.630 -31.378  1.00  0.00    -0.067 N 
HETATM    2  H   UNL     1      -7.922   3.109 -31.842  1.00  0.00     0.280 HD
HETATM    3  C   UNL     1      -5.903   2.831 -32.238  1.00  0.00     0.241 C 
HETATM    4  C   UNL     1      -4.826   3.281 -31.254  1.00  0.00     0.031 C 
HETATM    5  C   UNL     1      -5.628   4.149 -30.291  1.00  0.00     0.035 C 
HETATM    6  C   UNL     1      -6.893   3.334 -30.058  1.00  0.00     0.235 C 
ENDROOT
BRANCH   1   7
HETATM    7  C   UNL     1      -7.592   1.195 -31.216  1.00  0.00     0.274 C 
BRANCH   7   8
HETATM    8  C   UNL     1      -6.877   0.230 -32.128  1.00  0.00    -0.012 A 
HETATM    9  C   UNL     1      -7.349  -0.073 -33.420  1.00  0.00     0.021 A 
HETATM   10  C   UNL     1      -6.644  -0.945 -34.246  1.00  0.00     0.059 A 
HETATM   11 BR   UNL     1      -8.936   0.704 -34.115  1.00  0.00    -0.050 Br
HETATM   12  C   UNL     1      -5.462  -1.512 -33.787  1.00  0.00     0.100 A 
HETATM   13  C   UNL     1      -4.963  -1.240 -32.512  1.00  0.00     0.101 A 
HETATM   14  C   UNL     1      -5.680  -0.377 -31.682  1.00  0.00     0.049 A 
BRANCH  12  15
HETATM   15  O   UNL     1      -4.791  -2.349 -34.631  1.00  0.00    -0.358 OA
HETATM   16  H   UNL     1      -4.224  -1.785 -35.193  1.00  0.00     0.218 HD
ENDBRANCH  12  15
BRANCH  13  17
HETATM   17  O   UNL     1      -3.782  -1.859 -32.210  1.00  0.00    -0.353 OA
HETATM   18  C   UNL     1      -2.684  -1.041 -31.825  1.00  0.00     0.210 C 
ENDBRANCH  13  17
ENDBRANCH   7   8
ENDBRANCH   1   7
BRANCH   4  19
HETATM   19  C   UNL     1      -3.669   3.995 -31.960  1.00  0.00     0.127 C 
BRANCH  19  20
HETATM   20  N   UNL     1      -2.427   3.876 -31.192  1.00  0.00    -0.376 N 
HETATM   21  H   UNL     1      -2.099   2.934 -31.011  1.00  0.00     0.161 HD
BRANCH  20  22
HETATM   22  C   UNL     1      -1.485   4.893 -31.219  1.00  0.00     0.100 A 
HETATM   23  N   UNL     1      -0.573   4.943 -30.231  1.00  0.00    -0.353 N 
HETATM   24  H   UNL     1      -0.620   4.241 -29.500  1.00  0.00     0.166 HD
HETATM   25  C   UNL     1       0.385   5.879 -30.144  1.00  0.00     0.089 A 
HETATM   26  C   UNL     1       0.473   6.876 -31.100  1.00  0.00     0.017 A 
HETATM   27  C   UNL     1      -0.453   6.891 -32.131  1.00  0.00     0.005 A 
HETATM   28  C   UNL     1      -1.438   5.906 -32.188  1.00  0.00     0.048 A 
ENDBRANCH  20  22
ENDBRANCH  19  20
ENDBRANCH   4  19
TORSDOF 7
ENDMDL
MODEL 9
REMARK VINA RESULT:      -7.0      2.504      3.147
REMARK  7 active torsions:
REMARK  status: ('A' for Active; 'I' for Inactive)
REMARK    1  A    between atoms: O_2  and  C_3 
REMARK    2  A    between atoms: C_4  and  O_5 
REMARK    3  A    between atoms: C_9  and  C_10 
REMARK    4  A    between atoms: C_10  and  N_11 
REMARK    5  A    between atoms: C_14  and  C_15 
REMARK    6  A    between atoms: C_15  and  N_16 
REMARK    7  A    between atoms: N_16  and  C_17 
ROOT
HETATM    1  N   UNL     1      -3.357   3.481 -31.362  1.00  0.00    -0.067 N 
HETATM    2  H   UNL     1      -3.662   3.889 -30.464  1.00  0.00     0.280 HD
HETATM    3  C   UNL     1      -3.373   1.974 -31.212  1.00  0.00     0.241 C 
HETATM    4  C   UNL     1      -4.114   1.480 -32.452  1.00  0.00     0.031 C 
HETATM    5  C   UNL     1      -5.173   2.562 -32.633  1.00  0.00     0.035 C 
HETATM    6  C   UNL     1      -4.398   3.851 -32.400  1.00  0.00     0.235 C 
ENDROOT
BRANCH   1   7
HETATM    7  C   UNL     1      -2.000   4.099 -31.629  1.00  0.00     0.274 C 
BRANCH   7   8
HETATM    8  C   UNL     1      -2.022   5.607 -31.653  1.00  0.00    -0.012 A 
HETATM    9  C   UNL     1      -1.798   6.342 -32.832  1.00  0.00     0.021 A 
HETATM   10  C   UNL     1      -1.857   7.734 -32.823  1.00  0.00     0.059 A 
HETATM   11 BR   UNL     1      -1.436   5.492 -34.491  1.00  0.00    -0.050 Br
HETATM   12  C   UNL     1      -2.148   8.395 -31.636  1.00  0.00     0.100 A 
HETATM   13  C   UNL     1      -2.374   7.702 -30.446  1.00  0.00     0.101 A 
HETATM   14  C   UNL     1      -2.298   6.308 -30.457  1.00  0.00     0.049 A 
BRANCH  12  15
HETATM   15  O   UNL     1      -2.214   9.758 -31.669  1.00  0.00    -0.358 OA
HETATM   16  H   UNL     1      -1.402  10.089 -31.237  1.00  0.00     0.218 HD
ENDBRANCH  12  15
BRANCH  13  17
HETATM   17  O   UNL     1      -2.664   8.488 -29.365  1.00  0.00    -0.353 OA
HETATM   18  C   UNL     1      -2.669   7.876 -28.082  1.00  0.00     0.210 C 
ENDBRANCH  13  17
ENDBRANCH   7   8
ENDBRANCH   1   7
BRANCH   4  19
HETATM   19  C   UNL     1      -4.660   0.062 -32.264  1.00  0.00     0.127 C 
BRANCH  19  20
HETATM   20  N   UNL     1      -4.092  -0.859 -33.251  1.00  0.00    -0.376 N 
HETATM   21  H   UNL     1      -3.090  -1.010 -33.200  1.00  0.00     0.161 HD
BRANCH  20  22
HETATM   22  C   UNL     1      -4.868  -1.869 -33.798  1.00  0.00     0.100 A 
HETATM   23  N   UNL     1      -6.182  -1.636 -33.976  1.00  0.00    -0.353 N 
HETATM   24  H   UNL     1      -6.552  -0.736 -33.692  1.00  0.00     0.166 HD
HETATM   25  C   UNL     1      -7.037  -2.534 -34.491  1.00  0.00     0.089 A 
HETATM   26  C   UNL     1      -6.588  -3.788 -34.868  1.00  0.00     0.017 A 
HETATM   27  C   UNL     1      -5.248  -4.095 -34.687  1.00  0.00     0.005 A 
HETATM   28  C   UNL     1      -4.388  -3.140 -34.145  1.00  0.00     0.048 A 
ENDBRANCH  20  22
ENDBRANCH  19  20
ENDBRANCH   4  19
TORSDOF 7
ENDMDL
MODEL 10
REMARK VINA RESULT:      -6.9      5.204      8.187
REMARK  7 active torsions:
REMARK  status: ('A' for Active; 'I' for Inactive)
REMARK    1  A    between atoms: O_2  and  C_3 
REMARK    2  A    between atoms: C_4  and  O_5 
REMARK    3  A    between atoms: C_9  and  C_10 
REMARK    4  A    between atoms: C_10  and  N_11 
REMARK    5  A    between atoms: C_14  and  C_15 
REMARK    6  A    between atoms: C_15  and  N_16 
REMARK    7  A    between atoms: N_16  and  C_17 
ROOT
HETATM    1  N   UNL     1      -7.157  -0.092 -32.475  1.00  0.00    -0.067 N 
HETATM    2  H   UNL     1      -7.031  -0.922 -31.873  1.00  0.00     0.280 HD
HETATM    3  C   UNL     1      -8.434  -0.288 -33.266  1.00  0.00     0.241 C 
HETATM    4  C   UNL     1      -9.184   1.031 -33.101  1.00  0.00     0.031 C 
HETATM    5  C   UNL     1      -8.848   1.403 -31.661  1.00  0.00     0.035 C 
HETATM    6  C   UNL     1      -7.360   1.100 -31.561  1.00  0.00     0.235 C 
ENDROOT
BRANCH   1   7
HETATM    7  C   UNL     1      -5.886  -0.010 -33.293  1.00  0.00     0.274 C 
BRANCH   7   8
HETATM    8  C   UNL     1      -5.147  -1.321 -33.388  1.00  0.00    -0.012 A 
HETATM    9  C   UNL     1      -4.013  -1.603 -32.601  1.00  0.00     0.021 A 
HETATM   10  C   UNL     1      -3.376  -2.838 -32.693  1.00  0.00     0.059 A 
HETATM   11 BR   UNL     1      -3.314  -0.345 -31.362  1.00  0.00    -0.050 Br
HETATM   12  C   UNL     1      -3.872  -3.798 -33.566  1.00  0.00     0.100 A 
HETATM   13  C   UNL     1      -4.991  -3.555 -34.365  1.00  0.00     0.101 A 
HETATM   14  C   UNL     1      -5.618  -2.311 -34.281  1.00  0.00     0.049 A 
BRANCH  12  15
HETATM   15  O   UNL     1      -3.231  -5.002 -33.616  1.00  0.00    -0.358 OA
HETATM   16  H   UNL     1      -3.880  -5.677 -33.337  1.00  0.00     0.218 HD
ENDBRANCH  12  15
BRANCH  13  17
HETATM   17  O   UNL     1      -5.370  -4.601 -35.160  1.00  0.00    -0.353 OA
HETATM   18  C   UNL     1      -6.711  -4.621 -35.635  1.00  0.00     0.210 C 
ENDBRANCH  13  17
ENDBRANCH   7   8
ENDBRANCH   1   7
BRANCH   4  19
HETATM   19  C   UNL     1     -10.679   0.880 -33.400  1.00  0.00     0.127 C 
BRANCH  19  20
HETATM   20  N   UNL     1     -11.440   2.019 -32.882  1.00  0.00    -0.376 N 
HETATM   21  H   UNL     1     -11.448   2.134 -31.874  1.00  0.00     0.161 HD
BRANCH  20  22
HETATM   22  C   UNL     1     -11.626   3.151 -33.661  1.00  0.00     0.100 A 
HETATM   23  N   UNL     1     -12.302   3.024 -34.818  1.00  0.00    -0.353 N 
HETATM   24  H   UNL     1     -12.637   2.102 -35.079  1.00  0.00     0.166 HD
HETATM   25  C   UNL     1     -12.542   4.042 -35.659  1.00  0.00     0.089 A 
HETATM   26  C   UNL     1     -12.080   5.313 -35.364  1.00  0.00     0.017 A 
HETATM   27  C   UNL     1     -11.357   5.503 -34.197  1.00  0.00     0.005 A 
HETATM   28  C   UNL     1     -11.122   4.422 -33.348  1.00  0.00     0.048 A 
ENDBRANCH  20  22
ENDBRANCH  19  20
ENDBRANCH   4  19
TORSDOF 7
ENDMDL
