MODEL 1
REMARK VINA RESULT:      -9.4      0.000      0.000
REMARK  6 active torsions:
REMARK  status: ('A' for Active; 'I' for Inactive)
REMARK    1  A    between atoms: C_2  and  O_3 
REMARK    2  A    between atoms: C_2  and  C_4 
REMARK    3  A    between atoms: C_6  and  N_7 
REMARK       I    between atoms: N_7  and  C_8 
REMARK    4  A    between atoms: C_8  and  C_9 
REMARK    5  A    between atoms: C_12  and  C_13 
REMARK    6  A    between atoms: C_18  and  C_19 
ROOT
HETATM    1  C   UNL     1      -4.950   2.985 -31.210  1.00  0.00     0.096 A 
HETATM    2  C   UNL     1      -5.743   2.517 -32.242  1.00  0.00     0.138 A 
HETATM    3  N   UNL     1      -6.990   2.328 -31.698  1.00  0.00    -0.240 N 
HETATM    4  C   UNL     1      -8.161   1.895 -32.436  1.00  0.00     0.221 C 
HETATM    5  C   UNL     1      -7.892   1.944 -33.952  1.00  0.00     0.066 C 
HETATM    6  C   UNL     1      -6.474   1.496 -34.350  1.00  0.00     0.118 C 
HETATM    7  N   UNL     1      -5.493   2.243 -33.551  1.00  0.00    -0.365 N 
HETATM    8  N   UNL     1      -7.066   2.640 -30.395  1.00  0.00    -0.181 NA
HETATM    9  C   UNL     1      -5.812   2.989 -30.089  1.00  0.00     0.160 A 
HETATM   10  H   UNL     1      -4.530   2.074 -33.850  1.00  0.00     0.161 HD
ENDROOT
BRANCH   1  11
HETATM   11  C   UNL     1      -3.558   3.399 -31.236  1.00  0.00     0.261 C 
HETATM   12  N   UNL     1      -3.407   4.773 -31.200  1.00  0.00    -0.323 N 
HETATM   13  H   UNL     1      -4.265   5.297 -31.068  1.00  0.00     0.169 HD
HETATM   14  O   UNL     1      -2.657   2.569 -31.221  1.00  0.00    -0.267 OA
BRANCH  12  15
HETATM   15  C   UNL     1      -2.208   5.508 -31.163  1.00  0.00     0.035 A 
HETATM   16  C   UNL     1      -1.408   5.635 -30.025  1.00  0.00     0.039 A 
HETATM   17  C   UNL     1      -0.220   6.390 -30.052  1.00  0.00    -0.028 A 
HETATM   18  C   UNL     1       0.153   7.019 -31.247  1.00  0.00     0.010 A 
HETATM   19  C   UNL     1      -0.637   6.895 -32.388  1.00  0.00     0.003 A 
HETATM   20  C   UNL     1      -1.806   6.135 -32.348  1.00  0.00     0.029 A 
BRANCH  17  21
HETATM   21  C   UNL     1       0.647   6.466 -28.813  1.00  0.00     0.147 C 
HETATM   22  C   UNL     1       0.810   7.908 -28.345  1.00  0.00     0.044 C 
BRANCH  21  23
HETATM   23  O   UNL     1       0.069   5.699 -27.759  1.00  0.00    -0.391 OA
HETATM   24  H   UNL     1      -0.577   5.100 -28.168  1.00  0.00     0.210 HD
ENDBRANCH  21  23
ENDBRANCH  17  21
ENDBRANCH  12  15
ENDBRANCH   1  11
BRANCH   4  25
HETATM   25  C   UNL     1      -8.641   0.547 -31.940  1.00  0.00     0.409 C 
HETATM   26  F   UNL     1      -9.281  -0.184 -32.869  1.00  0.00    -0.169 F 
HETATM   27  F   UNL     1      -7.628  -0.207 -31.455  1.00  0.00    -0.169 F 
HETATM   28  F   UNL     1      -9.505   0.718 -30.903  1.00  0.00    -0.169 F 
ENDBRANCH   4  25
BRANCH   6  29
HETATM   29  C   UNL     1      -6.252  -0.008 -34.347  1.00  0.00    -0.035 A 
HETATM   30  C   UNL     1      -5.120  -0.530 -33.691  1.00  0.00     0.009 A 
HETATM   31  C   UNL     1      -4.864  -1.903 -33.672  1.00  0.00     0.001 A 
HETATM   32  C   UNL     1      -5.740  -2.784 -34.295  1.00  0.00     0.000 A 
HETATM   33  C   UNL     1      -6.876  -2.294 -34.933  1.00  0.00     0.001 A 
HETATM   34  C   UNL     1      -7.132  -0.920 -34.955  1.00  0.00     0.009 A 
ENDBRANCH   6  29
TORSDOF 6
ENDMDL
MODEL 2
REMARK VINA RESULT:      -9.1      3.325      8.003
REMARK  6 active torsions:
REMARK  status: ('A' for Active; 'I' for Inactive)
REMARK    1  A    between atoms: C_2  and  O_3 
REMARK    2  A    between atoms: C_2  and  C_4 
REMARK    3  A    between atoms: C_6  and  N_7 
REMARK       I    between atoms: N_7  and  C_8 
REMARK    4  A    between atoms: C_8  and  C_9 
REMARK    5  A    between atoms: C_12  and  C_13 
REMARK    6  A    between atoms: C_18  and  C_19 
ROOT
HETATM    1  C   UNL     1      -5.916   2.128 -31.994  1.00  0.00     0.096 A 
HETATM    2  C   UNL     1      -5.126   3.179 -31.567  1.00  0.00     0.138 A 
HETATM    3  N   UNL     1      -5.933   4.291 -31.601  1.00  0.00    -0.240 N 
HETATM    4  C   UNL     1      -5.534   5.619 -31.178  1.00  0.00     0.221 C 
HETATM    5  C   UNL     1      -4.188   5.567 -30.429  1.00  0.00     0.066 C 
HETATM    6  C   UNL     1      -3.179   4.572 -31.028  1.00  0.00     0.118 C 
HETATM    7  N   UNL     1      -3.826   3.261 -31.175  1.00  0.00    -0.365 N 
HETATM    8  N   UNL     1      -7.184   4.039 -32.015  1.00  0.00    -0.181 NA
HETATM    9  C   UNL     1      -7.157   2.734 -32.304  1.00  0.00     0.160 A 
HETATM   10  H   UNL     1      -3.173   2.528 -31.460  1.00  0.00     0.161 HD
ENDROOT
BRANCH   1  11
HETATM   11  C   UNL     1      -5.590   0.717 -32.102  1.00  0.00     0.261 C 
HETATM   12  N   UNL     1      -6.043   0.152 -33.280  1.00  0.00    -0.323 N 
HETATM   13  H   UNL     1      -6.452   0.803 -33.941  1.00  0.00     0.169 HD
HETATM   14  O   UNL     1      -4.921   0.160 -31.240  1.00  0.00    -0.267 OA
BRANCH  12  15
HETATM   15  C   UNL     1      -5.861  -1.170 -33.728  1.00  0.00     0.035 A 
HETATM   16  C   UNL     1      -4.759  -1.960 -33.393  1.00  0.00     0.039 A 
HETATM   17  C   UNL     1      -4.633  -3.275 -33.879  1.00  0.00    -0.028 A 
HETATM   18  C   UNL     1      -5.638  -3.786 -34.711  1.00  0.00     0.010 A 
HETATM   19  C   UNL     1      -6.742  -3.007 -35.047  1.00  0.00     0.003 A 
HETATM   20  C   UNL     1      -6.858  -1.709 -34.550  1.00  0.00     0.029 A 
BRANCH  17  21
HETATM   21  C   UNL     1      -3.449  -4.119 -33.457  1.00  0.00     0.147 C 
HETATM   22  C   UNL     1      -3.021  -3.792 -32.030  1.00  0.00     0.044 C 
BRANCH  21  23
HETATM   23  O   UNL     1      -3.777  -5.504 -33.537  1.00  0.00    -0.391 OA
HETATM   24  H   UNL     1      -2.938  -5.989 -33.604  1.00  0.00     0.210 HD
ENDBRANCH  21  23
ENDBRANCH  17  21
ENDBRANCH  12  15
ENDBRANCH   1  11
BRANCH   4  25
HETATM   25  C   UNL     1      -5.550   6.583 -32.347  1.00  0.00     0.409 C 
HETATM   26  F   UNL     1      -5.287   6.009 -33.535  1.00  0.00    -0.169 F 
HETATM   27  F   UNL     1      -6.735   7.226 -32.460  1.00  0.00    -0.169 F 
HETATM   28  F   UNL     1      -4.617   7.554 -32.157  1.00  0.00    -0.169 F 
ENDBRANCH   4  25
BRANCH   6  29
HETATM   29  C   UNL     1      -2.474   5.053 -32.287  1.00  0.00    -0.035 A 
HETATM   30  C   UNL     1      -1.701   6.229 -32.230  1.00  0.00     0.009 A 
HETATM   31  C   UNL     1      -1.045   6.720 -33.362  1.00  0.00     0.001 A 
HETATM   32  C   UNL     1      -1.137   6.039 -34.570  1.00  0.00     0.000 A 
HETATM   33  C   UNL     1      -1.879   4.864 -34.646  1.00  0.00     0.001 A 
HETATM   34  C   UNL     1      -2.537   4.373 -33.516  1.00  0.00     0.009 A 
ENDBRANCH   6  29
TORSDOF 6
ENDMDL
MODEL 3
REMARK VINA RESULT:      -9.0      4.364      8.402
REMARK  6 active torsions:
REMARK  status: ('A' for Active; 'I' for Inactive)
REMARK    1  A    between atoms: C_2  and  O_3 
REMARK    2  A    between atoms: C_2  and  C_4 
REMARK    3  A    between atoms: C_6  and  N_7 
REMARK       I    between atoms: N_7  and  C_8 
REMARK    4  A    between atoms: C_8  and  C_9 
REMARK    5  A    between atoms: C_12  and  C_13 
REMARK    6  A    between atoms: C_18  and  C_19 
ROOT
HETATM    1  C   UNL     1      -7.822   3.478 -31.841  1.00  0.00     0.096 A 
HETATM    2  C   UNL     1      -7.123   2.403 -31.322  1.00  0.00     0.138 A 
HETATM    3  N   UNL     1      -5.865   2.877 -31.041  1.00  0.00    -0.240 N 
HETATM    4  C   UNL     1      -4.805   2.103 -30.424  1.00  0.00     0.221 C 
HETATM    5  C   UNL     1      -5.357   0.773 -29.875  1.00  0.00     0.066 C 
HETATM    6  C   UNL     1      -6.419   0.117 -30.776  1.00  0.00     0.118 C 
HETATM    7  N   UNL     1      -7.459   1.106 -31.089  1.00  0.00    -0.365 N 
HETATM    8  N   UNL     1      -5.697   4.175 -31.335  1.00  0.00    -0.181 NA
HETATM    9  C   UNL     1      -6.870   4.525 -31.870  1.00  0.00     0.160 A 
HETATM   10  H   UNL     1      -8.252   0.699 -31.589  1.00  0.00     0.161 HD
ENDROOT
BRANCH   1  11
HETATM   11  C   UNL     1      -9.211   3.556 -32.258  1.00  0.00     0.261 C 
HETATM   12  N   UNL     1      -9.503   2.706 -33.309  1.00  0.00    -0.323 N 
HETATM   13  H   UNL     1      -8.750   2.084 -33.582  1.00  0.00     0.169 HD
HETATM   14  O   UNL     1     -10.007   4.269 -31.659  1.00  0.00    -0.267 OA
BRANCH  12  15
HETATM   15  C   UNL     1     -10.750   2.493 -33.925  1.00  0.00     0.035 A 
HETATM   16  C   UNL     1     -11.699   1.578 -33.464  1.00  0.00     0.039 A 
HETATM   17  C   UNL     1     -12.928   1.409 -34.130  1.00  0.00    -0.028 A 
HETATM   18  C   UNL     1     -13.189   2.177 -35.272  1.00  0.00     0.010 A 
HETATM   19  C   UNL     1     -12.250   3.095 -35.737  1.00  0.00     0.003 A 
HETATM   20  C   UNL     1     -11.041   3.259 -35.061  1.00  0.00     0.029 A 
BRANCH  17  21
HETATM   21  C   UNL     1     -13.953   0.442 -33.575  1.00  0.00     0.147 C 
HETATM   22  C   UNL     1     -15.250   0.497 -34.374  1.00  0.00     0.044 C 
BRANCH  21  23
HETATM   23  O   UNL     1     -13.444  -0.889 -33.608  1.00  0.00    -0.391 OA
HETATM   24  H   UNL     1     -13.355  -1.180 -32.685  1.00  0.00     0.210 HD
ENDBRANCH  21  23
ENDBRANCH  17  21
ENDBRANCH  12  15
ENDBRANCH   1  11
BRANCH   4  25
HETATM   25  C   UNL     1      -3.637   1.937 -31.375  1.00  0.00     0.409 C 
HETATM   26  F   UNL     1      -3.995   1.785 -32.662  1.00  0.00    -0.169 F 
HETATM   27  F   UNL     1      -2.779   2.981 -31.312  1.00  0.00    -0.169 F 
HETATM   28  F   UNL     1      -2.913   0.839 -31.029  1.00  0.00    -0.169 F 
ENDBRANCH   4  25
BRANCH   6  29
HETATM   29  C   UNL     1      -5.867  -0.602 -31.997  1.00  0.00    -0.035 A 
HETATM   30  C   UNL     1      -6.571  -0.519 -33.215  1.00  0.00     0.009 A 
HETATM   31  C   UNL     1      -6.113  -1.174 -34.361  1.00  0.00     0.001 A 
HETATM   32  C   UNL     1      -4.937  -1.913 -34.318  1.00  0.00     0.000 A 
HETATM   33  C   UNL     1      -4.214  -1.994 -33.132  1.00  0.00     0.001 A 
HETATM   34  C   UNL     1      -4.672  -1.342 -31.984  1.00  0.00     0.009 A 
ENDBRANCH   6  29
TORSDOF 6
ENDMDL
MODEL 4
REMARK VINA RESULT:      -8.8      4.924      9.118
REMARK  6 active torsions:
REMARK  status: ('A' for Active; 'I' for Inactive)
REMARK    1  A    between atoms: C_2  and  O_3 
REMARK    2  A    between atoms: C_2  and  C_4 
REMARK    3  A    between atoms: C_6  and  N_7 
REMARK       I    between atoms: N_7  and  C_8 
REMARK    4  A    between atoms: C_8  and  C_9 
REMARK    5  A    between atoms: C_12  and  C_13 
REMARK    6  A    between atoms: C_18  and  C_19 
ROOT
HETATM    1  C   UNL     1      -9.113   3.282 -33.242  1.00  0.00     0.096 A 
HETATM    2  C   UNL     1      -8.333   2.502 -32.409  1.00  0.00     0.138 A 
HETATM    3  N   UNL     1      -7.252   3.281 -32.074  1.00  0.00    -0.240 N 
HETATM    4  C   UNL     1      -6.194   2.886 -31.164  1.00  0.00     0.221 C 
HETATM    5  C   UNL     1      -6.582   1.598 -30.412  1.00  0.00     0.066 C 
HETATM    6  C   UNL     1      -7.329   0.569 -31.278  1.00  0.00     0.118 C 
HETATM    7  N   UNL     1      -8.461   1.232 -31.940  1.00  0.00    -0.365 N 
HETATM    8  N   UNL     1      -7.274   4.505 -32.624  1.00  0.00    -0.181 NA
HETATM    9  C   UNL     1      -8.379   4.485 -33.376  1.00  0.00     0.160 A 
HETATM   10  H   UNL     1      -9.066   0.576 -32.440  1.00  0.00     0.161 HD
ENDROOT
BRANCH   1  11
HETATM   11  C   UNL     1     -10.397   2.979 -33.849  1.00  0.00     0.261 C 
HETATM   12  N   UNL     1     -11.249   2.309 -32.991  1.00  0.00    -0.323 N 
HETATM   13  H   UNL     1     -10.910   2.204 -32.041  1.00  0.00     0.169 HD
HETATM   14  O   UNL     1     -10.662   3.362 -34.983  1.00  0.00    -0.267 OA
BRANCH  12  15
HETATM   15  C   UNL     1     -12.576   1.907 -33.233  1.00  0.00     0.035 A 
HETATM   16  C   UNL     1     -13.686   2.457 -32.586  1.00  0.00     0.039 A 
HETATM   17  C   UNL     1     -14.989   2.007 -32.871  1.00  0.00    -0.028 A 
HETATM   18  C   UNL     1     -15.160   0.989 -33.818  1.00  0.00     0.010 A 
HETATM   19  C   UNL     1     -14.060   0.437 -34.470  1.00  0.00     0.003 A 
HETATM   20  C   UNL     1     -12.776   0.901 -34.186  1.00  0.00     0.029 A 
BRANCH  17  21
HETATM   21  C   UNL     1     -16.172   2.659 -32.186  1.00  0.00     0.147 C 
HETATM   22  C   UNL     1     -15.932   4.149 -31.975  1.00  0.00     0.044 C 
BRANCH  21  23
HETATM   23  O   UNL     1     -17.351   2.485 -32.969  1.00  0.00    -0.391 OA
HETATM   24  H   UNL     1     -18.030   3.066 -32.587  1.00  0.00     0.210 HD
ENDBRANCH  21  23
ENDBRANCH  17  21
ENDBRANCH  12  15
ENDBRANCH   1  11
BRANCH   4  25
HETATM   25  C   UNL     1      -4.867   2.799 -31.889  1.00  0.00     0.409 C 
HETATM   26  F   UNL     1      -4.953   2.300 -33.134  1.00  0.00    -0.169 F 
HETATM   27  F   UNL     1      -4.253   4.001 -31.974  1.00  0.00    -0.169 F 
HETATM   28  F   UNL     1      -4.015   1.995 -31.195  1.00  0.00    -0.169 F 
ENDBRANCH   4  25
BRANCH   6  29
HETATM   29  C   UNL     1      -6.449  -0.233 -32.224  1.00  0.00    -0.035 A 
HETATM   30  C   UNL     1      -5.232  -0.756 -31.746  1.00  0.00     0.009 A 
HETATM   31  C   UNL     1      -4.382  -1.488 -32.579  1.00  0.00     0.001 A 
HETATM   32  C   UNL     1      -4.737  -1.724 -33.902  1.00  0.00     0.000 A 
HETATM   33  C   UNL     1      -5.943  -1.235 -34.392  1.00  0.00     0.001 A 
HETATM   34  C   UNL     1      -6.794  -0.500 -33.561  1.00  0.00     0.009 A 
ENDBRANCH   6  29
TORSDOF 6
ENDMDL
MODEL 5
REMARK VINA RESULT:      -8.6      4.742      6.911
REMARK  6 active torsions:
REMARK  status: ('A' for Active; 'I' for Inactive)
REMARK    1  A    between atoms: C_2  and  O_3 
REMARK    2  A    between atoms: C_2  and  C_4 
REMARK    3  A    between atoms: C_6  and  N_7 
REMARK       I    between atoms: N_7  and  C_8 
REMARK    4  A    between atoms: C_8  and  C_9 
REMARK    5  A    between atoms: C_12  and  C_13 
REMARK    6  A    between atoms: C_18  and  C_19 
ROOT
HETATM    1  C   UNL     1      -8.215   3.343 -33.040  1.00  0.00     0.096 A 
HETATM    2  C   UNL     1      -9.412   3.474 -33.721  1.00  0.00     0.138 A 
HETATM    3  N   UNL     1     -10.142   4.400 -33.017  1.00  0.00    -0.240 N 
HETATM    4  C   UNL     1     -11.451   4.892 -33.402  1.00  0.00     0.221 C 
HETATM    5  C   UNL     1     -11.791   4.453 -34.839  1.00  0.00     0.066 C 
HETATM    6  C   UNL     1     -11.331   3.025 -35.182  1.00  0.00     0.118 C 
HETATM    7  N   UNL     1      -9.909   2.884 -34.842  1.00  0.00    -0.365 N 
HETATM    8  N   UNL     1      -9.510   4.880 -31.935  1.00  0.00    -0.181 NA
HETATM    9  C   UNL     1      -8.361   4.197 -31.922  1.00  0.00     0.160 A 
HETATM   10  H   UNL     1      -9.515   1.994 -35.153  1.00  0.00     0.161 HD
ENDROOT
BRANCH   1  11
HETATM   11  C   UNL     1      -7.053   2.537 -33.370  1.00  0.00     0.261 C 
HETATM   12  N   UNL     1      -7.235   1.195 -33.091  1.00  0.00    -0.323 N 
HETATM   13  H   UNL     1      -8.169   0.941 -32.788  1.00  0.00     0.169 HD
HETATM   14  O   UNL     1      -6.070   3.041 -33.901  1.00  0.00    -0.267 OA
BRANCH  12  15
HETATM   15  C   UNL     1      -6.341   0.135 -33.328  1.00  0.00     0.035 A 
HETATM   16  C   UNL     1      -5.113  -0.007 -32.676  1.00  0.00     0.039 A 
HETATM   17  C   UNL     1      -4.260  -1.089 -32.963  1.00  0.00    -0.028 A 
HETATM   18  C   UNL     1      -4.661  -2.030 -33.920  1.00  0.00     0.010 A 
HETATM   19  C   UNL     1      -5.885  -1.898 -34.573  1.00  0.00     0.003 A 
HETATM   20  C   UNL     1      -6.724  -0.826 -34.271  1.00  0.00     0.029 A 
BRANCH  17  21
HETATM   21  C   UNL     1      -2.959  -1.239 -32.203  1.00  0.00     0.147 C 
HETATM   22  C   UNL     1      -2.799  -0.134 -31.164  1.00  0.00     0.044 C 
BRANCH  21  23
HETATM   23  O   UNL     1      -2.914  -2.503 -31.546  1.00  0.00    -0.391 OA
HETATM   24  H   UNL     1      -3.615  -2.496 -30.873  1.00  0.00     0.210 HD
ENDBRANCH  21  23
ENDBRANCH  17  21
ENDBRANCH  12  15
ENDBRANCH   1  11
BRANCH   4  25
HETATM   25  C   UNL     1     -12.495   4.502 -32.377  1.00  0.00     0.409 C 
HETATM   26  F   UNL     1     -12.619   5.374 -31.360  1.00  0.00    -0.169 F 
HETATM   27  F   UNL     1     -13.719   4.346 -32.931  1.00  0.00    -0.169 F 
HETATM   28  F   UNL     1     -12.178   3.296 -31.831  1.00  0.00    -0.169 F 
ENDBRANCH   4  25
BRANCH   6  29
HETATM   29  C   UNL     1     -12.209   1.917 -34.623  1.00  0.00    -0.035 A 
HETATM   30  C   UNL     1     -13.596   1.956 -34.866  1.00  0.00     0.009 A 
HETATM   31  C   UNL     1     -14.447   0.969 -34.361  1.00  0.00     0.001 A 
HETATM   32  C   UNL     1     -13.929  -0.084 -33.616  1.00  0.00     0.000 A 
HETATM   33  C   UNL     1     -12.559  -0.155 -33.380  1.00  0.00     0.001 A 
HETATM   34  C   UNL     1     -11.707   0.833 -33.882  1.00  0.00     0.009 A 
ENDBRANCH   6  29
TORSDOF 6
ENDMDL
MODEL 6
REMARK VINA RESULT:      -8.4      1.679      3.264
REMARK  6 active torsions:
REMARK  status: ('A' for Active; 'I' for Inactive)
REMARK    1  A    between atoms: C_2  and  O_3 
REMARK    2  A    between atoms: C_2  and  C_4 
REMARK    3  A    between atoms: C_6  and  N_7 
REMARK       I    between atoms: N_7  and  C_8 
REMARK    4  A    between atoms: C_8  and  C_9 
REMARK    5  A    between atoms: C_12  and  C_13 
REMARK    6  A    between atoms: C_18  and  C_19 
ROOT
HETATM    1  C   UNL     1      -4.183   2.356 -31.964  1.00  0.00     0.096 A 
HETATM    2  C   UNL     1      -5.421   1.790 -31.719  1.00  0.00     0.138 A 
HETATM    3  N   UNL     1      -5.379   0.541 -32.289  1.00  0.00    -0.240 N 
HETATM    4  C   UNL     1      -6.449  -0.436 -32.227  1.00  0.00     0.221 C 
HETATM    5  C   UNL     1      -7.521   0.000 -31.209  1.00  0.00     0.066 C 
HETATM    6  C   UNL     1      -7.806   1.513 -31.212  1.00  0.00     0.118 C 
HETATM    7  N   UNL     1      -6.536   2.241 -31.083  1.00  0.00    -0.365 N 
HETATM    8  N   UNL     1      -4.209   0.254 -32.880  1.00  0.00    -0.181 NA
HETATM    9  C   UNL     1      -3.503   1.378 -32.728  1.00  0.00     0.160 A 
HETATM   10  H   UNL     1      -6.668   3.247 -30.963  1.00  0.00     0.161 HD
ENDROOT
BRANCH   1  11
HETATM   11  C   UNL     1      -3.662   3.644 -31.543  1.00  0.00     0.261 C 
HETATM   12  N   UNL     1      -2.297   3.759 -31.736  1.00  0.00    -0.323 N 
HETATM   13  H   UNL     1      -1.865   2.982 -32.224  1.00  0.00     0.169 HD
HETATM   14  O   UNL     1      -4.413   4.521 -31.131  1.00  0.00    -0.267 OA
BRANCH  12  15
HETATM   15  C   UNL     1      -1.482   4.877 -31.486  1.00  0.00     0.035 A 
HETATM   16  C   UNL     1      -0.849   5.120 -30.264  1.00  0.00     0.039 A 
HETATM   17  C   UNL     1      -0.048   6.263 -30.075  1.00  0.00    -0.028 A 
HETATM   18  C   UNL     1       0.107   7.161 -31.139  1.00  0.00     0.010 A 
HETATM   19  C   UNL     1      -0.517   6.926 -32.361  1.00  0.00     0.003 A 
HETATM   20  C   UNL     1      -1.299   5.784 -32.536  1.00  0.00     0.029 A 
BRANCH  17  21
HETATM   21  C   UNL     1       0.662   6.470 -28.754  1.00  0.00     0.147 C 
HETATM   22  C   UNL     1       0.690   7.945 -28.370  1.00  0.00     0.044 C 
BRANCH  21  23
HETATM   23  O   UNL     1       0.006   5.735 -27.722  1.00  0.00    -0.391 OA
HETATM   24  H   UNL     1      -0.779   5.327 -28.122  1.00  0.00     0.210 HD
ENDBRANCH  21  23
ENDBRANCH  17  21
ENDBRANCH  12  15
ENDBRANCH   1  11
BRANCH   4  25
HETATM   25  C   UNL     1      -6.995  -0.724 -33.610  1.00  0.00     0.409 C 
HETATM   26  F   UNL     1      -8.280  -1.122 -33.621  1.00  0.00    -0.169 F 
HETATM   27  F   UNL     1      -6.894   0.348 -34.429  1.00  0.00    -0.169 F 
HETATM   28  F   UNL     1      -6.266  -1.711 -34.198  1.00  0.00    -0.169 F 
ENDBRANCH   4  25
BRANCH   6  29
HETATM   29  C   UNL     1      -8.679   1.998 -32.358  1.00  0.00    -0.035 A 
HETATM   30  C   UNL     1      -8.280   3.137 -33.086  1.00  0.00     0.009 A 
HETATM   31  C   UNL     1      -9.055   3.631 -34.139  1.00  0.00     0.001 A 
HETATM   32  C   UNL     1     -10.236   2.990 -34.495  1.00  0.00     0.000 A 
HETATM   33  C   UNL     1     -10.641   1.852 -33.803  1.00  0.00     0.001 A 
HETATM   34  C   UNL     1      -9.868   1.358 -32.749  1.00  0.00     0.009 A 
ENDBRANCH   6  29
TORSDOF 6
ENDMDL
MODEL 7
REMARK VINA RESULT:      -8.3      4.160      9.273
REMARK  6 active torsions:
REMARK  status: ('A' for Active; 'I' for Inactive)
REMARK    1  A    between atoms: C_2  and  O_3 
REMARK    2  A    between atoms: C_2  and  C_4 
REMARK    3  A    between atoms: C_6  and  N_7 
REMARK       I    between atoms: N_7  and  C_8 
REMARK    4  A    between atoms: C_8  and  C_9 
REMARK    5  A    between atoms: C_12  and  C_13 
REMARK    6  A    between atoms: C_18  and  C_19 
ROOT
HETATM    1  C   UNL     1      -3.735   4.092 -32.607  1.00  0.00     0.096 A 
HETATM    2  C   UNL     1      -2.953   5.232 -32.611  1.00  0.00     0.138 A 
HETATM    3  N   UNL     1      -1.874   4.946 -31.810  1.00  0.00    -0.240 N 
HETATM    4  C   UNL     1      -0.759   5.841 -31.569  1.00  0.00     0.221 C 
HETATM    5  C   UNL     1      -0.804   7.034 -32.542  1.00  0.00     0.066 C 
HETATM    6  C   UNL     1      -2.222   7.565 -32.815  1.00  0.00     0.118 C 
HETATM    7  N   UNL     1      -3.086   6.445 -33.211  1.00  0.00    -0.365 N 
HETATM    8  N   UNL     1      -1.898   3.709 -31.291  1.00  0.00    -0.181 NA
HETATM    9  C   UNL     1      -3.056   3.210 -31.734  1.00  0.00     0.160 A 
HETATM   10  H   UNL     1      -4.013   6.750 -33.517  1.00  0.00     0.161 HD
ENDROOT
BRANCH   1  11
HETATM   11  C   UNL     1      -4.967   3.820 -33.328  1.00  0.00     0.261 C 
HETATM   12  N   UNL     1      -5.469   2.557 -33.072  1.00  0.00    -0.323 N 
HETATM   13  H   UNL     1      -4.975   2.034 -32.357  1.00  0.00     0.169 HD
HETATM   14  O   UNL     1      -5.492   4.683 -34.021  1.00  0.00    -0.267 OA
BRANCH  12  15
HETATM   15  C   UNL     1      -6.660   1.987 -33.560  1.00  0.00     0.035 A 
HETATM   16  C   UNL     1      -7.936   2.374 -33.141  1.00  0.00     0.039 A 
HETATM   17  C   UNL     1      -9.089   1.760 -33.666  1.00  0.00    -0.028 A 
HETATM   18  C   UNL     1      -8.939   0.747 -34.622  1.00  0.00     0.010 A 
HETATM   19  C   UNL     1      -7.672   0.357 -35.047  1.00  0.00     0.003 A 
HETATM   20  C   UNL     1      -6.538   0.982 -34.526  1.00  0.00     0.029 A 
BRANCH  17  21
HETATM   21  C   UNL     1     -10.457   2.237 -33.225  1.00  0.00     0.147 C 
HETATM   22  C   UNL     1     -11.097   3.127 -34.284  1.00  0.00     0.044 C 
BRANCH  21  23
HETATM   23  O   UNL     1     -11.311   1.122 -32.977  1.00  0.00    -0.391 OA
HETATM   24  H   UNL     1     -12.224   1.440 -33.078  1.00  0.00     0.210 HD
ENDBRANCH  21  23
ENDBRANCH  17  21
ENDBRANCH  12  15
ENDBRANCH   1  11
BRANCH   4  25
HETATM   25  C   UNL     1      -0.696   6.240 -30.109  1.00  0.00     0.409 C 
HETATM   26  F   UNL     1      -1.899   6.419 -29.536  1.00  0.00    -0.169 F 
HETATM   27  F   UNL     1      -0.020   5.336 -29.363  1.00  0.00    -0.169 F 
HETATM   28  F   UNL     1      -0.015   7.411 -29.981  1.00  0.00    -0.169 F 
ENDBRANCH   4  25
BRANCH   6  29
HETATM   29  C   UNL     1      -2.807   8.430 -31.709  1.00  0.00    -0.035 A 
HETATM   30  C   UNL     1      -2.047   9.506 -31.208  1.00  0.00     0.009 A 
HETATM   31  C   UNL     1      -2.533  10.320 -30.183  1.00  0.00     0.001 A 
HETATM   32  C   UNL     1      -3.794  10.086 -29.646  1.00  0.00     0.000 A 
HETATM   33  C   UNL     1      -4.571   9.042 -30.137  1.00  0.00     0.001 A 
HETATM   34  C   UNL     1      -4.085   8.225 -31.161  1.00  0.00     0.009 A 
ENDBRANCH   6  29
TORSDOF 6
ENDMDL
MODEL 8
REMARK VINA RESULT:      -8.2      2.053      3.405
REMARK  6 active torsions:
REMARK  status: ('A' for Active; 'I' for Inactive)
REMARK    1  A    between atoms: C_2  and  O_3 
REMARK    2  A    between atoms: C_2  and  C_4 
REMARK    3  A    between atoms: C_6  and  N_7 
REMARK       I    between atoms: N_7  and  C_8 
REMARK    4  A    between atoms: C_8  and  C_9 
REMARK    5  A    between atoms: C_12  and  C_13 
REMARK    6  A    between atoms: C_18  and  C_19 
ROOT
HETATM    1  C   UNL     1      -4.138   3.013 -31.497  1.00  0.00     0.096 A 
HETATM    2  C   UNL     1      -5.117   2.056 -31.298  1.00  0.00     0.138 A 
HETATM    3  N   UNL     1      -4.656   0.919 -31.917  1.00  0.00    -0.240 N 
HETATM    4  C   UNL     1      -5.338  -0.360 -31.916  1.00  0.00     0.221 C 
HETATM    5  C   UNL     1      -6.499  -0.353 -30.902  1.00  0.00     0.066 C 
HETATM    6  C   UNL     1      -7.273   0.976 -30.848  1.00  0.00     0.118 C 
HETATM    7  N   UNL     1      -6.320   2.080 -30.666  1.00  0.00    -0.365 N 
HETATM    8  N   UNL     1      -3.456   1.066 -32.498  1.00  0.00    -0.181 NA
HETATM    9  C   UNL     1      -3.167   2.354 -32.286  1.00  0.00     0.160 A 
HETATM   10  H   UNL     1      -6.782   2.978 -30.507  1.00  0.00     0.161 HD
ENDROOT
BRANCH   1  11
HETATM   11  C   UNL     1      -4.079   4.381 -31.013  1.00  0.00     0.261 C 
HETATM   12  N   UNL     1      -2.842   4.966 -31.210  1.00  0.00    -0.323 N 
HETATM   13  H   UNL     1      -2.181   4.408 -31.741  1.00  0.00     0.169 HD
HETATM   14  O   UNL     1      -5.074   4.927 -30.551  1.00  0.00    -0.267 OA
BRANCH  12  15
HETATM   15  C   UNL     1      -2.452   6.284 -30.908  1.00  0.00     0.035 A 
HETATM   16  C   UNL     1      -1.812   6.653 -29.722  1.00  0.00     0.039 A 
HETATM   17  C   UNL     1      -1.452   7.992 -29.478  1.00  0.00    -0.028 A 
HETATM   18  C   UNL     1      -1.748   8.959 -30.448  1.00  0.00     0.010 A 
HETATM   19  C   UNL     1      -2.383   8.599 -31.634  1.00  0.00     0.003 A 
HETATM   20  C   UNL     1      -2.724   7.267 -31.867  1.00  0.00     0.029 A 
BRANCH  17  21
HETATM   21  C   UNL     1      -0.717   8.349 -28.203  1.00  0.00     0.147 C 
HETATM   22  C   UNL     1       0.785   8.132 -28.356  1.00  0.00     0.044 C 
BRANCH  21  23
HETATM   23  O   UNL     1      -0.956   9.713 -27.861  1.00  0.00    -0.391 OA
HETATM   24  H   UNL     1      -0.134  10.197 -28.045  1.00  0.00     0.210 HD
ENDBRANCH  21  23
ENDBRANCH  17  21
ENDBRANCH  12  15
ENDBRANCH   1  11
BRANCH   4  25
HETATM   25  C   UNL     1      -5.751  -0.751 -33.320  1.00  0.00     0.409 C 
HETATM   26  F   UNL     1      -6.868  -1.498 -33.376  1.00  0.00    -0.169 F 
HETATM   27  F   UNL     1      -5.943   0.328 -34.113  1.00  0.00    -0.169 F 
HETATM   28  F   UNL     1      -4.759  -1.473 -33.908  1.00  0.00    -0.169 F 
ENDBRANCH   4  25
BRANCH   6  29
HETATM   29  C   UNL     1      -8.253   1.194 -31.991  1.00  0.00    -0.035 A 
HETATM   30  C   UNL     1      -8.093   2.318 -32.824  1.00  0.00     0.009 A 
HETATM   31  C   UNL     1      -8.975   2.569 -33.878  1.00  0.00     0.001 A 
HETATM   32  C   UNL     1     -10.028   1.696 -34.129  1.00  0.00     0.000 A 
HETATM   33  C   UNL     1     -10.195   0.568 -33.331  1.00  0.00     0.001 A 
HETATM   34  C   UNL     1      -9.315   0.316 -32.276  1.00  0.00     0.009 A 
ENDBRANCH   6  29
TORSDOF 6
ENDMDL
MODEL 9
REMARK VINA RESULT:      -8.0      5.109      7.805
REMARK  6 active torsions:
REMARK  status: ('A' for Active; 'I' for Inactive)
REMARK    1  A    between atoms: C_2  and  O_3 
REMARK    2  A    between atoms: C_2  and  C_4 
REMARK    3  A    between atoms: C_6  and  N_7 
REMARK       I    between atoms: N_7  and  C_8 
REMARK    4  A    between atoms: C_8  and  C_9 
REMARK    5  A    between atoms: C_12  and  C_13 
REMARK    6  A    between atoms: C_18  and  C_19 
ROOT
HETATM    1  C   UNL     1      -9.543   1.196 -33.023  1.00  0.00     0.096 A 
HETATM    2  C   UNL     1     -10.147   2.217 -32.314  1.00  0.00     0.138 A 
HETATM    3  N   UNL     1     -11.206   2.631 -33.085  1.00  0.00    -0.240 N 
HETATM    4  C   UNL     1     -12.161   3.654 -32.705  1.00  0.00     0.221 C 
HETATM    5  C   UNL     1     -11.999   4.016 -31.216  1.00  0.00     0.066 C 
HETATM    6  C   UNL     1     -10.537   4.057 -30.738  1.00  0.00     0.118 C 
HETATM    7  N   UNL     1      -9.873   2.802 -31.117  1.00  0.00    -0.365 N 
HETATM    8  N   UNL     1     -11.334   1.954 -34.237  1.00  0.00    -0.181 NA
HETATM    9  C   UNL     1     -10.291   1.119 -34.221  1.00  0.00     0.160 A 
HETATM   10  H   UNL     1      -8.932   2.720 -30.727  1.00  0.00     0.161 HD
ENDROOT
BRANCH   1  11
HETATM   11  C   UNL     1      -8.411   0.365 -32.653  1.00  0.00     0.261 C 
HETATM   12  N   UNL     1      -7.769  -0.184 -33.749  1.00  0.00    -0.323 N 
HETATM   13  H   UNL     1      -8.106   0.136 -34.650  1.00  0.00     0.169 HD
HETATM   14  O   UNL     1      -8.069   0.255 -31.482  1.00  0.00    -0.267 OA
BRANCH  12  15
HETATM   15  C   UNL     1      -6.617  -0.992 -33.758  1.00  0.00     0.035 A 
HETATM   16  C   UNL     1      -5.468  -0.717 -33.012  1.00  0.00     0.039 A 
HETATM   17  C   UNL     1      -4.345  -1.565 -33.069  1.00  0.00    -0.028 A 
HETATM   18  C   UNL     1      -4.396  -2.698 -33.891  1.00  0.00     0.010 A 
HETATM   19  C   UNL     1      -5.538  -2.981 -34.636  1.00  0.00     0.003 A 
HETATM   20  C   UNL     1      -6.646  -2.138 -34.561  1.00  0.00     0.029 A 
BRANCH  17  21
HETATM   21  C   UNL     1      -3.135  -1.263 -32.211  1.00  0.00     0.147 C 
HETATM   22  C   UNL     1      -3.460  -0.218 -31.149  1.00  0.00     0.044 C 
BRANCH  21  23
HETATM   23  O   UNL     1      -2.677  -2.450 -31.567  1.00  0.00    -0.391 OA
HETATM   24  H   UNL     1      -3.389  -3.106 -31.648  1.00  0.00     0.210 HD
ENDBRANCH  21  23
ENDBRANCH  17  21
ENDBRANCH  12  15
ENDBRANCH   1  11
BRANCH   4  25
HETATM   25  C   UNL     1     -12.076   4.842 -33.640  1.00  0.00     0.409 C 
HETATM   26  F   UNL     1     -12.409   6.014 -33.070  1.00  0.00    -0.169 F 
HETATM   27  F   UNL     1     -10.841   4.984 -34.171  1.00  0.00    -0.169 F 
HETATM   28  F   UNL     1     -12.916   4.660 -34.695  1.00  0.00    -0.169 F 
ENDBRANCH   4  25
BRANCH   6  29
HETATM   29  C   UNL     1      -9.766   5.305 -31.138  1.00  0.00    -0.035 A 
HETATM   30  C   UNL     1     -10.268   6.568 -30.766  1.00  0.00     0.009 A 
HETATM   31  C   UNL     1      -9.605   7.744 -31.122  1.00  0.00     0.001 A 
HETATM   32  C   UNL     1      -8.418   7.684 -31.845  1.00  0.00     0.000 A 
HETATM   33  C   UNL     1      -7.892   6.448 -32.207  1.00  0.00     0.001 A 
HETATM   34  C   UNL     1      -8.556   5.270 -31.854  1.00  0.00     0.009 A 
ENDBRANCH   6  29
TORSDOF 6
ENDMDL
MODEL 10
REMARK VINA RESULT:      -7.9      5.990      8.702
REMARK  6 active torsions:
REMARK  status: ('A' for Active; 'I' for Inactive)
REMARK    1  A    between atoms: C_2  and  O_3 
REMARK    2  A    between atoms: C_2  and  C_4 
REMARK    3  A    between atoms: C_6  and  N_7 
REMARK       I    between atoms: N_7  and  C_8 
REMARK    4  A    between atoms: C_8  and  C_9 
REMARK    5  A    between atoms: C_12  and  C_13 
REMARK    6  A    between atoms: C_18  and  C_19 
ROOT
HETATM    1  C   UNL     1      -9.706   1.550 -33.537  1.00  0.00     0.096 A 
HETATM    2  C   UNL     1     -10.123   2.739 -32.968  1.00  0.00     0.138 A 
HETATM    3  N   UNL     1     -11.485   2.627 -32.826  1.00  0.00    -0.240 N 
HETATM    4  C   UNL     1     -12.341   3.626 -32.216  1.00  0.00     0.221 C 
HETATM    5  C   UNL     1     -11.496   4.698 -31.501  1.00  0.00     0.066 C 
HETATM    6  C   UNL     1     -10.211   5.085 -32.255  1.00  0.00     0.118 C 
HETATM    7  N   UNL     1      -9.462   3.865 -32.586  1.00  0.00    -0.365 N 
HETATM    8  N   UNL     1     -11.980   1.456 -33.256  1.00  0.00    -0.181 NA
HETATM    9  C   UNL     1     -10.904   0.825 -33.736  1.00  0.00     0.160 A 
HETATM   10  H   UNL     1      -8.542   4.063 -32.986  1.00  0.00     0.161 HD
ENDROOT
BRANCH   1  11
HETATM   11  C   UNL     1      -8.361   1.106 -33.858  1.00  0.00     0.261 C 
HETATM   12  N   UNL     1      -8.116  -0.194 -33.456  1.00  0.00    -0.323 N 
HETATM   13  H   UNL     1      -8.919  -0.689 -33.084  1.00  0.00     0.169 HD
HETATM   14  O   UNL     1      -7.593   1.830 -34.481  1.00  0.00    -0.267 OA
BRANCH  12  15
HETATM   15  C   UNL     1      -6.945  -0.950 -33.649  1.00  0.00     0.035 A 
HETATM   16  C   UNL     1      -6.924  -2.211 -34.251  1.00  0.00     0.039 A 
HETATM   17  C   UNL     1      -5.718  -2.919 -34.411  1.00  0.00    -0.028 A 
HETATM   18  C   UNL     1      -4.528  -2.338 -33.954  1.00  0.00     0.010 A 
HETATM   19  C   UNL     1      -4.539  -1.081 -33.356  1.00  0.00     0.003 A 
HETATM   20  C   UNL     1      -5.740  -0.386 -33.213  1.00  0.00     0.029 A 
BRANCH  17  21
HETATM   21  C   UNL     1      -5.726  -4.262 -35.111  1.00  0.00     0.147 C 
HETATM   22  C   UNL     1      -4.745  -5.229 -34.456  1.00  0.00     0.044 C 
BRANCH  21  23
HETATM   23  O   UNL     1      -7.033  -4.831 -35.073  1.00  0.00    -0.391 OA
HETATM   24  H   UNL     1      -6.936  -5.773 -35.288  1.00  0.00     0.210 HD
ENDBRANCH  21  23
ENDBRANCH  17  21
ENDBRANCH  12  15
ENDBRANCH   1  11
BRANCH   4  25
HETATM   25  C   UNL     1     -13.318   4.187 -33.228  1.00  0.00     0.409 C 
HETATM   26  F   UNL     1     -12.853   4.204 -34.490  1.00  0.00    -0.169 F 
HETATM   27  F   UNL     1     -14.489   3.510 -33.235  1.00  0.00    -0.169 F 
HETATM   28  F   UNL     1     -13.632   5.471 -32.903  1.00  0.00    -0.169 F 
ENDBRANCH   4  25
BRANCH   6  29
HETATM   29  C   UNL     1     -10.417   6.019 -33.437  1.00  0.00    -0.035 A 
HETATM   30  C   UNL     1     -11.020   7.274 -33.220  1.00  0.00     0.009 A 
HETATM   31  C   UNL     1     -11.244   8.161 -34.276  1.00  0.00     0.001 A 
HETATM   32  C   UNL     1     -10.860   7.819 -35.567  1.00  0.00     0.000 A 
HETATM   33  C   UNL     1     -10.246   6.593 -35.804  1.00  0.00     0.001 A 
HETATM   34  C   UNL     1     -10.022   5.704 -34.749  1.00  0.00     0.009 A 
ENDBRANCH   6  29
TORSDOF 6
ENDMDL
