MODEL 1
REMARK VINA RESULT:      -8.9      0.000      0.000
REMARK  7 active torsions:
REMARK  status: ('A' for Active; 'I' for Inactive)
REMARK    1  A    between atoms: C_3  and  N_4 
REMARK       I    between atoms: N_4  and  C_5 
REMARK    2  A    between atoms: C_5  and  C_6 
REMARK    3  A    between atoms: C_7  and  C_8 
REMARK    4  A    between atoms: C_19  and  C_20 
REMARK    5  A    between atoms: C_20  and  C_21 
REMARK    6  A    between atoms: C_21  and  C_22 
REMARK    7  A    between atoms: C_22  and  O_23 
ROOT
HETATM    1  C   UNL     1      -8.432   3.382 -32.918  1.00  0.00     0.062 A 
HETATM    2  C   UNL     1      -8.938   1.965 -32.658  1.00  0.00     0.202 A 
HETATM    3  N   UNL     1     -10.264   1.746 -33.248  1.00  0.00    -0.083 N 
HETATM    4  C   UNL     1     -10.975   2.709 -33.912  1.00  0.00     0.726 A 
HETATM    5  N   UNL     1     -10.442   3.934 -34.065  1.00  0.00    -0.192 N 
HETATM    6  N   UNL     1     -10.994   0.621 -33.090  1.00  0.00    -0.140 NA
HETATM    7  C   UNL     1     -12.100   0.942 -33.776  1.00  0.00     0.166 A 
HETATM    8  N   UNL     1     -12.130   2.220 -34.283  1.00  0.00    -0.046 NA
HETATM    9  C   UNL     1      -9.182   4.288 -33.595  1.00  0.00     0.037 A 
HETATM   10  C   UNL     1      -8.756   5.708 -33.879  1.00  0.00     0.070 C 
HETATM   11  H   UNL     1     -10.968   4.635 -34.579  1.00  0.00     0.184 HD
ENDROOT
BRANCH   1  12
HETATM   12  C   UNL     1      -7.027   3.690 -32.522  1.00  0.00     0.256 C 
HETATM   13  N   UNL     1      -6.128   3.558 -33.555  1.00  0.00    -0.323 N 
HETATM   14  H   UNL     1      -6.413   2.960 -34.319  1.00  0.00     0.169 HD
HETATM   15  O   UNL     1      -6.778   3.988 -31.361  1.00  0.00    -0.267 OA
BRANCH  13  16
HETATM   16  C   UNL     1      -4.771   3.962 -33.591  1.00  0.00     0.041 A 
HETATM   17  C   UNL     1      -3.708   3.398 -32.861  1.00  0.00    -0.035 A 
HETATM   18  C   UNL     1      -3.841   2.302 -31.838  1.00  0.00     0.050 C 
HETATM   19  C   UNL     1      -2.406   3.908 -33.053  1.00  0.00     0.009 A 
HETATM   20  C   UNL     1      -2.164   4.991 -33.894  1.00  0.00     0.001 A 
HETATM   21  C   UNL     1      -3.222   5.590 -34.560  1.00  0.00     0.002 A 
HETATM   22  C   UNL     1      -4.512   5.081 -34.405  1.00  0.00     0.030 A 
ENDBRANCH  13  16
ENDBRANCH   1  12
BRANCH   2  23
HETATM   23  C   UNL     1      -7.969   0.875 -33.105  1.00  0.00    -0.028 A 
HETATM   24  C   UNL     1      -7.200   0.190 -32.146  1.00  0.00     0.011 A 
HETATM   25  C   UNL     1      -6.285  -0.790 -32.535  1.00  0.00     0.024 A 
HETATM   26  C   UNL     1      -6.133  -1.099 -33.883  1.00  0.00     0.034 A 
HETATM   27 CL   UNL     1      -4.999  -2.300 -34.361  1.00  0.00    -0.084 Cl
HETATM   28  C   UNL     1      -6.893  -0.440 -34.847  1.00  0.00     0.024 A 
HETATM   29  C   UNL     1      -7.811   0.541 -34.461  1.00  0.00     0.011 A 
ENDBRANCH   2  23
BRANCH   7  30
HETATM   30  C   UNL     1     -13.238   0.005 -33.954  1.00  0.00     0.085 C 
BRANCH  30  31
HETATM   31  C   UNL     1     -14.540   0.701 -34.341  1.00  0.00     0.034 C 
BRANCH  31  32
HETATM   32  C   UNL     1     -15.224   1.386 -33.162  1.00  0.00     0.164 C 
BRANCH  32  33
HETATM   33  O   UNL     1     -16.542   1.776 -33.538  1.00  0.00    -0.401 OA
HETATM   34  H   UNL     1     -16.528   1.974 -34.490  1.00  0.00     0.209 HD
ENDBRANCH  32  33
ENDBRANCH  31  32
ENDBRANCH  30  31
ENDBRANCH   7  30
TORSDOF 7
ENDMDL
MODEL 2
REMARK VINA RESULT:      -8.8      2.058      7.755
REMARK  7 active torsions:
REMARK  status: ('A' for Active; 'I' for Inactive)
REMARK    1  A    between atoms: C_3  and  N_4 
REMARK       I    between atoms: N_4  and  C_5 
REMARK    2  A    between atoms: C_5  and  C_6 
REMARK    3  A    between atoms: C_7  and  C_8 
REMARK    4  A    between atoms: C_19  and  C_20 
REMARK    5  A    between atoms: C_20  and  C_21 
REMARK    6  A    between atoms: C_21  and  C_22 
REMARK    7  A    between atoms: C_22  and  O_23 
ROOT
HETATM    1  C   UNL     1      -8.330   3.700 -32.457  1.00  0.00     0.062 A 
HETATM    2  C   UNL     1      -7.499   3.410 -33.705  1.00  0.00     0.202 A 
HETATM    3  N   UNL     1      -6.263   4.202 -33.730  1.00  0.00    -0.083 N 
HETATM    4  C   UNL     1      -5.922   5.118 -32.772  1.00  0.00     0.726 A 
HETATM    5  N   UNL     1      -6.740   5.311 -31.723  1.00  0.00    -0.192 N 
HETATM    6  N   UNL     1      -5.390   4.222 -34.760  1.00  0.00    -0.140 NA
HETATM    7  C   UNL     1      -4.487   5.104 -34.305  1.00  0.00     0.166 A 
HETATM    8  N   UNL     1      -4.788   5.684 -33.095  1.00  0.00    -0.046 NA
HETATM    9  C   UNL     1      -7.928   4.613 -31.537  1.00  0.00     0.037 A 
HETATM   10  C   UNL     1      -8.701   4.963 -30.288  1.00  0.00     0.070 C 
HETATM   11  H   UNL     1      -6.467   5.976 -31.006  1.00  0.00     0.184 HD
ENDROOT
BRANCH   1  12
HETATM   12  C   UNL     1      -9.527   2.843 -32.218  1.00  0.00     0.256 C 
HETATM   13  N   UNL     1     -10.632   3.237 -32.937  1.00  0.00    -0.323 N 
HETATM   14  H   UNL     1     -10.642   4.200 -33.244  1.00  0.00     0.169 HD
HETATM   15  O   UNL     1      -9.459   1.921 -31.417  1.00  0.00    -0.267 OA
BRANCH  13  16
HETATM   16  C   UNL     1     -11.855   2.544 -33.110  1.00  0.00     0.041 A 
HETATM   17  C   UNL     1     -13.101   2.889 -32.554  1.00  0.00    -0.035 A 
HETATM   18  C   UNL     1     -13.341   4.026 -31.598  1.00  0.00     0.050 C 
HETATM   19  C   UNL     1     -14.228   2.099 -32.868  1.00  0.00     0.009 A 
HETATM   20  C   UNL     1     -14.120   0.957 -33.658  1.00  0.00     0.001 A 
HETATM   21  C   UNL     1     -12.880   0.580 -34.150  1.00  0.00     0.002 A 
HETATM   22  C   UNL     1     -11.760   1.365 -33.874  1.00  0.00     0.030 A 
ENDBRANCH  13  16
ENDBRANCH   1  12
BRANCH   2  23
HETATM   23  C   UNL     1      -7.187   1.930 -33.907  1.00  0.00    -0.028 A 
HETATM   24  C   UNL     1      -7.858   1.207 -34.910  1.00  0.00     0.011 A 
HETATM   25  C   UNL     1      -7.611  -0.155 -35.092  1.00  0.00     0.024 A 
HETATM   26  C   UNL     1      -6.690  -0.806 -34.277  1.00  0.00     0.034 A 
HETATM   27 CL   UNL     1      -6.394  -2.486 -34.497  1.00  0.00    -0.084 Cl
HETATM   28  C   UNL     1      -6.008  -0.105 -33.285  1.00  0.00     0.024 A 
HETATM   29  C   UNL     1      -6.252   1.258 -33.101  1.00  0.00     0.011 A 
ENDBRANCH   2  23
BRANCH   7  30
HETATM   30  C   UNL     1      -3.262   5.465 -35.061  1.00  0.00     0.085 C 
BRANCH  30  31
HETATM   31  C   UNL     1      -1.971   5.138 -34.313  1.00  0.00     0.034 C 
BRANCH  31  32
HETATM   32  C   UNL     1      -1.160   6.377 -33.950  1.00  0.00     0.164 C 
BRANCH  32  33
HETATM   33  O   UNL     1      -1.851   7.543 -34.387  1.00  0.00    -0.401 OA
HETATM   34  H   UNL     1      -2.803   7.348 -34.356  1.00  0.00     0.209 HD
ENDBRANCH  32  33
ENDBRANCH  31  32
ENDBRANCH  30  31
ENDBRANCH   7  30
TORSDOF 7
ENDMDL
MODEL 3
REMARK VINA RESULT:      -8.2      3.159      5.965
REMARK  7 active torsions:
REMARK  status: ('A' for Active; 'I' for Inactive)
REMARK    1  A    between atoms: C_3  and  N_4 
REMARK       I    between atoms: N_4  and  C_5 
REMARK    2  A    between atoms: C_5  and  C_6 
REMARK    3  A    between atoms: C_7  and  C_8 
REMARK    4  A    between atoms: C_19  and  C_20 
REMARK    5  A    between atoms: C_20  and  C_21 
REMARK    6  A    between atoms: C_21  and  C_22 
REMARK    7  A    between atoms: C_22  and  O_23 
ROOT
HETATM    1  C   UNL     1      -8.509   1.730 -33.322  1.00  0.00     0.062 A 
HETATM    2  C   UNL     1      -8.082   3.188 -33.170  1.00  0.00     0.202 A 
HETATM    3  N   UNL     1      -8.972   3.922 -32.262  1.00  0.00    -0.083 N 
HETATM    4  C   UNL     1     -10.073   3.376 -31.662  1.00  0.00     0.726 A 
HETATM    5  N   UNL     1     -10.371   2.083 -31.883  1.00  0.00    -0.192 N 
HETATM    6  N   UNL     1      -8.892   5.249 -32.021  1.00  0.00    -0.140 NA
HETATM    7  C   UNL     1      -9.923   5.413 -31.181  1.00  0.00     0.166 A 
HETATM    8  N   UNL     1     -10.679   4.288 -30.948  1.00  0.00    -0.046 NA
HETATM    9  C   UNL     1      -9.607   1.246 -32.687  1.00  0.00     0.037 A 
HETATM   10  C   UNL     1     -10.099  -0.178 -32.799  1.00  0.00     0.070 C 
HETATM   11  H   UNL     1     -11.177   1.680 -31.414  1.00  0.00     0.184 HD
ENDROOT
BRANCH   1  12
HETATM   12  C   UNL     1      -7.597   0.825 -34.080  1.00  0.00     0.256 C 
HETATM   13  N   UNL     1      -6.998  -0.130 -33.291  1.00  0.00    -0.323 N 
HETATM   14  H   UNL     1      -6.941   0.081 -32.304  1.00  0.00     0.169 HD
HETATM   15  O   UNL     1      -7.425   1.006 -35.278  1.00  0.00    -0.267 OA
BRANCH  13  16
HETATM   16  C   UNL     1      -6.249  -1.259 -33.703  1.00  0.00     0.041 A 
HETATM   17  C   UNL     1      -4.858  -1.434 -33.582  1.00  0.00    -0.035 A 
HETATM   18  C   UNL     1      -3.894  -0.402 -33.061  1.00  0.00     0.050 C 
HETATM   19  C   UNL     1      -4.285  -2.649 -34.015  1.00  0.00     0.009 A 
HETATM   20  C   UNL     1      -5.053  -3.645 -34.613  1.00  0.00     0.001 A 
HETATM   21  C   UNL     1      -6.413  -3.444 -34.793  1.00  0.00     0.002 A 
HETATM   22  C   UNL     1      -7.002  -2.261 -34.345  1.00  0.00     0.030 A 
ENDBRANCH  13  16
ENDBRANCH   1  12
BRANCH   2  23
HETATM   23  C   UNL     1      -6.627   3.362 -32.745  1.00  0.00    -0.028 A 
HETATM   24  C   UNL     1      -5.714   3.978 -33.620  1.00  0.00     0.011 A 
HETATM   25  C   UNL     1      -4.372   4.120 -33.264  1.00  0.00     0.024 A 
HETATM   26  C   UNL     1      -3.929   3.652 -32.031  1.00  0.00     0.034 A 
HETATM   27 CL   UNL     1      -2.273   3.819 -31.599  1.00  0.00    -0.084 Cl
HETATM   28  C   UNL     1      -4.820   3.048 -31.146  1.00  0.00     0.024 A 
HETATM   29  C   UNL     1      -6.165   2.905 -31.498  1.00  0.00     0.011 A 
ENDBRANCH   2  23
BRANCH   7  30
HETATM   30  C   UNL     1     -10.259   6.721 -30.564  1.00  0.00     0.085 C 
BRANCH  30  31
HETATM   31  C   UNL     1      -9.094   7.349 -29.803  1.00  0.00     0.034 C 
BRANCH  31  32
HETATM   32  C   UNL     1      -8.645   6.518 -28.606  1.00  0.00     0.164 C 
BRANCH  32  33
HETATM   33  O   UNL     1      -9.192   7.070 -27.412  1.00  0.00    -0.401 OA
HETATM   34  H   UNL     1      -8.911   6.504 -26.672  1.00  0.00     0.209 HD
ENDBRANCH  32  33
ENDBRANCH  31  32
ENDBRANCH  30  31
ENDBRANCH   7  30
TORSDOF 7
ENDMDL
MODEL 4
REMARK VINA RESULT:      -8.1     16.471     19.298
REMARK  7 active torsions:
REMARK  status: ('A' for Active; 'I' for Inactive)
REMARK    1  A    between atoms: C_3  and  N_4 
REMARK       I    between atoms: N_4  and  C_5 
REMARK    2  A    between atoms: C_5  and  C_6 
REMARK    3  A    between atoms: C_7  and  C_8 
REMARK    4  A    between atoms: C_19  and  C_20 
REMARK    5  A    between atoms: C_20  and  C_21 
REMARK    6  A    between atoms: C_21  and  C_22 
REMARK    7  A    between atoms: C_22  and  O_23 
ROOT
HETATM    1  C   UNL     1      -3.786 -13.773 -39.822  1.00  0.00     0.062 A 
HETATM    2  C   UNL     1      -4.572 -13.457 -41.093  1.00  0.00     0.202 A 
HETATM    3  N   UNL     1      -4.143 -14.295 -42.219  1.00  0.00    -0.083 N 
HETATM    4  C   UNL     1      -3.133 -15.215 -42.146  1.00  0.00     0.726 A 
HETATM    5  N   UNL     1      -2.490 -15.398 -40.979  1.00  0.00    -0.192 N 
HETATM    6  N   UNL     1      -4.595 -14.163 -43.484  1.00  0.00    -0.140 NA
HETATM    7  C   UNL     1      -3.880 -15.113 -44.105  1.00  0.00     0.166 A 
HETATM    8  N   UNL     1      -2.963 -15.770 -43.318  1.00  0.00    -0.046 NA
HETATM    9  C   UNL     1      -2.803 -14.708 -39.814  1.00  0.00     0.037 A 
HETATM   10  C   UNL     1      -1.975 -15.065 -38.602  1.00  0.00     0.070 C 
HETATM   11  H   UNL     1      -1.757 -16.100 -40.930  1.00  0.00     0.184 HD
ENDROOT
BRANCH   1  12
HETATM   12  C   UNL     1      -4.234 -13.116 -38.560  1.00  0.00     0.256 C 
HETATM   13  N   UNL     1      -5.126 -13.875 -37.837  1.00  0.00    -0.323 N 
HETATM   14  H   UNL     1      -5.638 -14.574 -38.358  1.00  0.00     0.169 HD
HETATM   15  O   UNL     1      -3.829 -11.995 -38.286  1.00  0.00    -0.267 OA
BRANCH  13  16
HETATM   16  C   UNL     1      -5.589 -13.658 -36.517  1.00  0.00     0.041 A 
HETATM   17  C   UNL     1      -6.930 -13.542 -36.106  1.00  0.00    -0.035 A 
HETATM   18  C   UNL     1      -8.124 -13.545 -37.022  1.00  0.00     0.050 C 
HETATM   19  C   UNL     1      -7.208 -13.365 -34.733  1.00  0.00     0.009 A 
HETATM   20  C   UNL     1      -6.187 -13.240 -33.793  1.00  0.00     0.001 A 
HETATM   21  C   UNL     1      -4.865 -13.287 -34.209  1.00  0.00     0.002 A 
HETATM   22  C   UNL     1      -4.572 -13.490 -35.558  1.00  0.00     0.030 A 
ENDBRANCH  13  16
ENDBRANCH   1  12
BRANCH   2  23
HETATM   23  C   UNL     1      -6.086 -13.537 -40.916  1.00  0.00    -0.028 A 
HETATM   24  C   UNL     1      -6.836 -12.353 -40.789  1.00  0.00     0.011 A 
HETATM   25  C   UNL     1      -8.218 -12.404 -40.596  1.00  0.00     0.024 A 
HETATM   26  C   UNL     1      -8.863 -13.635 -40.532  1.00  0.00     0.034 A 
HETATM   27 CL   UNL     1     -10.564 -13.695 -40.284  1.00  0.00    -0.084 Cl
HETATM   28  C   UNL     1      -8.139 -14.818 -40.666  1.00  0.00     0.024 A 
HETATM   29  C   UNL     1      -6.756 -14.771 -40.860  1.00  0.00     0.011 A 
ENDBRANCH   2  23
BRANCH   7  30
HETATM   30  C   UNL     1      -4.033 -15.421 -45.550  1.00  0.00     0.085 C 
BRANCH  30  31
HETATM   31  C   UNL     1      -3.861 -16.903 -45.873  1.00  0.00     0.034 C 
BRANCH  31  32
HETATM   32  C   UNL     1      -2.744 -17.171 -46.876  1.00  0.00     0.164 C 
BRANCH  32  33
HETATM   33  O   UNL     1      -1.729 -16.183 -46.733  1.00  0.00    -0.401 OA
HETATM   34  H   UNL     1      -2.140 -15.315 -46.889  1.00  0.00     0.209 HD
ENDBRANCH  32  33
ENDBRANCH  31  32
ENDBRANCH  30  31
ENDBRANCH   7  30
TORSDOF 7
ENDMDL
MODEL 5
REMARK VINA RESULT:      -8.1      3.661      6.726
REMARK  7 active torsions:
REMARK  status: ('A' for Active; 'I' for Inactive)
REMARK    1  A    between atoms: C_3  and  N_4 
REMARK       I    between atoms: N_4  and  C_5 
REMARK    2  A    between atoms: C_5  and  C_6 
REMARK    3  A    between atoms: C_7  and  C_8 
REMARK    4  A    between atoms: C_19  and  C_20 
REMARK    5  A    between atoms: C_20  and  C_21 
REMARK    6  A    between atoms: C_21  and  C_22 
REMARK    7  A    between atoms: C_22  and  O_23 
ROOT
HETATM    1  C   UNL     1      -6.058   1.920 -32.752  1.00  0.00     0.062 A 
HETATM    2  C   UNL     1      -6.696   1.076 -33.853  1.00  0.00     0.202 A 
HETATM    3  N   UNL     1      -6.087  -0.257 -33.936  1.00  0.00    -0.083 N 
HETATM    4  C   UNL     1      -5.047  -0.674 -33.151  1.00  0.00     0.726 A 
HETATM    5  N   UNL     1      -4.545   0.161 -32.224  1.00  0.00    -0.192 N 
HETATM    6  N   UNL     1      -6.385  -1.175 -34.881  1.00  0.00    -0.140 NA
HETATM    7  C   UNL     1      -5.551  -2.167 -34.538  1.00  0.00     0.166 A 
HETATM    8  N   UNL     1      -4.705  -1.890 -33.489  1.00  0.00    -0.046 NA
HETATM    9  C   UNL     1      -5.036   1.442 -31.998  1.00  0.00     0.037 A 
HETATM   10  C   UNL     1      -4.347   2.220 -30.903  1.00  0.00     0.070 C 
HETATM   11  H   UNL     1      -3.789  -0.166 -31.630  1.00  0.00     0.184 HD
ENDROOT
BRANCH   1  12
HETATM   12  C   UNL     1      -6.693   3.234 -32.443  1.00  0.00     0.256 C 
HETATM   13  N   UNL     1      -7.491   3.204 -31.323  1.00  0.00    -0.323 N 
HETATM   14  H   UNL     1      -7.843   2.296 -31.052  1.00  0.00     0.169 HD
HETATM   15  O   UNL     1      -6.500   4.187 -33.186  1.00  0.00    -0.267 OA
BRANCH  13  16
HETATM   16  C   UNL     1      -8.071   4.297 -30.633  1.00  0.00     0.041 A 
HETATM   17  C   UNL     1      -9.288   4.933 -30.940  1.00  0.00    -0.035 A 
HETATM   18  C   UNL     1     -10.162   4.613 -32.122  1.00  0.00     0.050 C 
HETATM   19  C   UNL     1      -9.731   5.989 -30.114  1.00  0.00     0.009 A 
HETATM   20  C   UNL     1      -8.963   6.452 -29.048  1.00  0.00     0.001 A 
HETATM   21  C   UNL     1      -7.732   5.868 -28.788  1.00  0.00     0.002 A 
HETATM   22  C   UNL     1      -7.291   4.805 -29.576  1.00  0.00     0.030 A 
ENDBRANCH  13  16
ENDBRANCH   1  12
BRANCH   2  23
HETATM   23  C   UNL     1      -8.214   0.962 -33.740  1.00  0.00    -0.028 A 
HETATM   24  C   UNL     1      -8.778   0.031 -32.848  1.00  0.00     0.011 A 
HETATM   25  C   UNL     1     -10.163  -0.111 -32.750  1.00  0.00     0.024 A 
HETATM   26  C   UNL     1     -10.997   0.676 -33.538  1.00  0.00     0.034 A 
HETATM   27 CL   UNL     1     -12.704   0.492 -33.423  1.00  0.00    -0.084 Cl
HETATM   28  C   UNL     1     -10.458   1.610 -34.420  1.00  0.00     0.024 A 
HETATM   29  C   UNL     1      -9.072   1.756 -34.519  1.00  0.00     0.011 A 
ENDBRANCH   2  23
BRANCH   7  30
HETATM   30  C   UNL     1      -5.507  -3.467 -35.254  1.00  0.00     0.085 C 
BRANCH  30  31
HETATM   31  C   UNL     1      -5.252  -4.657 -34.332  1.00  0.00     0.034 C 
BRANCH  31  32
HETATM   32  C   UNL     1      -3.769  -4.943 -34.120  1.00  0.00     0.164 C 
BRANCH  32  33
HETATM   33  O   UNL     1      -3.361  -4.428 -32.856  1.00  0.00    -0.401 OA
HETATM   34  H   UNL     1      -2.396  -4.308 -32.887  1.00  0.00     0.209 HD
ENDBRANCH  32  33
ENDBRANCH  31  32
ENDBRANCH  30  31
ENDBRANCH   7  30
TORSDOF 7
ENDMDL
MODEL 6
REMARK VINA RESULT:      -8.0     15.947     17.585
REMARK  7 active torsions:
REMARK  status: ('A' for Active; 'I' for Inactive)
REMARK    1  A    between atoms: C_3  and  N_4 
REMARK       I    between atoms: N_4  and  C_5 
REMARK    2  A    between atoms: C_5  and  C_6 
REMARK    3  A    between atoms: C_7  and  C_8 
REMARK    4  A    between atoms: C_19  and  C_20 
REMARK    5  A    between atoms: C_20  and  C_21 
REMARK    6  A    between atoms: C_21  and  C_22 
REMARK    7  A    between atoms: C_22  and  O_23 
ROOT
HETATM    1  C   UNL     1      -4.151 -13.304 -39.187  1.00  0.00     0.062 A 
HETATM    2  C   UNL     1      -5.298 -13.059 -38.209  1.00  0.00     0.202 A 
HETATM    3  N   UNL     1      -6.605 -13.286 -38.838  1.00  0.00    -0.083 N 
HETATM    4  C   UNL     1      -6.772 -13.632 -40.151  1.00  0.00     0.726 A 
HETATM    5  N   UNL     1      -5.690 -13.800 -40.932  1.00  0.00    -0.192 N 
HETATM    6  N   UNL     1      -7.792 -13.049 -38.239  1.00  0.00    -0.140 NA
HETATM    7  C   UNL     1      -8.639 -13.373 -39.226  1.00  0.00     0.166 A 
HETATM    8  N   UNL     1      -8.049 -13.722 -40.419  1.00  0.00    -0.046 NA
HETATM    9  C   UNL     1      -4.385 -13.657 -40.476  1.00  0.00     0.037 A 
HETATM   10  C   UNL     1      -3.306 -13.902 -41.504  1.00  0.00     0.070 C 
HETATM   11  H   UNL     1      -5.825 -14.079 -41.899  1.00  0.00     0.184 HD
ENDROOT
BRANCH   1  12
HETATM   12  C   UNL     1      -2.765 -13.275 -38.637  1.00  0.00     0.256 C 
HETATM   13  N   UNL     1      -2.197 -14.524 -38.527  1.00  0.00    -0.323 N 
HETATM   14  H   UNL     1      -2.840 -15.302 -38.478  1.00  0.00     0.169 HD
HETATM   15  O   UNL     1      -2.268 -12.207 -38.305  1.00  0.00    -0.267 OA
BRANCH  13  16
HETATM   16  C   UNL     1      -0.847 -14.848 -38.244  1.00  0.00     0.041 A 
HETATM   17  C   UNL     1      -0.349 -15.395 -37.047  1.00  0.00    -0.035 A 
HETATM   18  C   UNL     1      -1.161 -15.661 -35.808  1.00  0.00     0.050 C 
HETATM   19  C   UNL     1       1.029 -15.692 -36.957  1.00  0.00     0.009 A 
HETATM   20  C   UNL     1       1.907 -15.396 -37.996  1.00  0.00     0.001 A 
HETATM   21  C   UNL     1       1.426 -14.795 -39.149  1.00  0.00     0.002 A 
HETATM   22  C   UNL     1       0.062 -14.521 -39.267  1.00  0.00     0.030 A 
ENDBRANCH  13  16
ENDBRANCH   1  12
BRANCH   2  23
HETATM   23  C   UNL     1      -5.184 -13.860 -36.915  1.00  0.00    -0.028 A 
HETATM   24  C   UNL     1      -5.356 -15.256 -36.942  1.00  0.00     0.011 A 
HETATM   25  C   UNL     1      -5.286 -16.005 -35.766  1.00  0.00     0.024 A 
HETATM   26  C   UNL     1      -5.040 -15.368 -34.553  1.00  0.00     0.034 A 
HETATM   27 CL   UNL     1      -4.963 -16.291 -33.104  1.00  0.00    -0.084 Cl
HETATM   28  C   UNL     1      -4.856 -13.987 -34.507  1.00  0.00     0.024 A 
HETATM   29  C   UNL     1      -4.924 -13.235 -35.683  1.00  0.00     0.011 A 
ENDBRANCH   2  23
BRANCH   7  30
HETATM   30  C   UNL     1     -10.115 -13.329 -39.069  1.00  0.00     0.085 C 
BRANCH  30  31
HETATM   31  C   UNL     1     -10.837 -12.765 -40.289  1.00  0.00     0.034 C 
BRANCH  31  32
HETATM   32  C   UNL     1     -10.497 -11.303 -40.562  1.00  0.00     0.164 C 
BRANCH  32  33
HETATM   33  O   UNL     1     -11.676 -10.603 -40.945  1.00  0.00    -0.401 OA
HETATM   34  H   UNL     1     -11.561  -9.672 -40.689  1.00  0.00     0.209 HD
ENDBRANCH  32  33
ENDBRANCH  31  32
ENDBRANCH  30  31
ENDBRANCH   7  30
TORSDOF 7
ENDMDL
MODEL 7
REMARK VINA RESULT:      -7.9      3.672      6.870
REMARK  7 active torsions:
REMARK  status: ('A' for Active; 'I' for Inactive)
REMARK    1  A    between atoms: C_3  and  N_4 
REMARK       I    between atoms: N_4  and  C_5 
REMARK    2  A    between atoms: C_5  and  C_6 
REMARK    3  A    between atoms: C_7  and  C_8 
REMARK    4  A    between atoms: C_19  and  C_20 
REMARK    5  A    between atoms: C_20  and  C_21 
REMARK    6  A    between atoms: C_21  and  C_22 
REMARK    7  A    between atoms: C_22  and  O_23 
ROOT
HETATM    1  C   UNL     1      -5.263   2.933 -32.784  1.00  0.00     0.062 A 
HETATM    2  C   UNL     1      -5.555   1.556 -33.377  1.00  0.00     0.202 A 
HETATM    3  N   UNL     1      -4.728   0.513 -32.758  1.00  0.00    -0.083 N 
HETATM    4  C   UNL     1      -3.783   0.754 -31.800  1.00  0.00     0.726 A 
HETATM    5  N   UNL     1      -3.591   2.011 -31.364  1.00  0.00    -0.192 N 
HETATM    6  N   UNL     1      -4.705  -0.778 -33.155  1.00  0.00    -0.140 NA
HETATM    7  C   UNL     1      -3.788  -1.281 -32.316  1.00  0.00     0.166 A 
HETATM    8  N   UNL     1      -3.191  -0.368 -31.479  1.00  0.00    -0.046 NA
HETATM    9  C   UNL     1      -4.319   3.103 -31.824  1.00  0.00     0.037 A 
HETATM   10  C   UNL     1      -3.964   4.432 -31.201  1.00  0.00     0.070 C 
HETATM   11  H   UNL     1      -2.903   2.176 -30.635  1.00  0.00     0.184 HD
ENDROOT
BRANCH   1  12
HETATM   12  C   UNL     1      -6.149   4.059 -33.199  1.00  0.00     0.256 C 
HETATM   13  N   UNL     1      -7.158   4.317 -32.299  1.00  0.00    -0.323 N 
HETATM   14  H   UNL     1      -7.412   3.555 -31.685  1.00  0.00     0.169 HD
HETATM   15  O   UNL     1      -5.952   4.621 -34.268  1.00  0.00    -0.267 OA
BRANCH  13  16
HETATM   16  C   UNL     1      -8.041   5.425 -32.270  1.00  0.00     0.041 A 
HETATM   17  C   UNL     1      -9.392   5.432 -32.663  1.00  0.00    -0.035 A 
HETATM   18  C   UNL     1     -10.127   4.268 -33.270  1.00  0.00     0.050 C 
HETATM   19  C   UNL     1     -10.133   6.626 -32.528  1.00  0.00     0.009 A 
HETATM   20  C   UNL     1      -9.541   7.804 -32.078  1.00  0.00     0.001 A 
HETATM   21  C   UNL     1      -8.193   7.812 -31.754  1.00  0.00     0.002 A 
HETATM   22  C   UNL     1      -7.451   6.634 -31.855  1.00  0.00     0.030 A 
ENDBRANCH  13  16
ENDBRANCH   1  12
BRANCH   2  23
HETATM   23  C   UNL     1      -7.029   1.166 -33.328  1.00  0.00    -0.028 A 
HETATM   24  C   UNL     1      -7.772   1.098 -34.522  1.00  0.00     0.011 A 
HETATM   25  C   UNL     1      -9.129   0.773 -34.498  1.00  0.00     0.024 A 
HETATM   26  C   UNL     1      -9.757   0.510 -33.284  1.00  0.00     0.034 A 
HETATM   27 CL   UNL     1     -11.432   0.119 -33.256  1.00  0.00    -0.084 Cl
HETATM   28  C   UNL     1      -9.037   0.562 -32.092  1.00  0.00     0.024 A 
HETATM   29  C   UNL     1      -7.677   0.886 -32.113  1.00  0.00     0.011 A 
ENDBRANCH   2  23
BRANCH   7  30
HETATM   30  C   UNL     1      -3.408  -2.716 -32.304  1.00  0.00     0.085 C 
BRANCH  30  31
HETATM   31  C   UNL     1      -3.887  -3.479 -33.537  1.00  0.00     0.034 C 
BRANCH  31  32
HETATM   32  C   UNL     1      -3.625  -4.979 -33.451  1.00  0.00     0.164 C 
BRANCH  32  33
HETATM   33  O   UNL     1      -4.520  -5.669 -34.318  1.00  0.00    -0.401 OA
HETATM   34  H   UNL     1      -4.059  -6.461 -34.645  1.00  0.00     0.209 HD
ENDBRANCH  32  33
ENDBRANCH  31  32
ENDBRANCH  30  31
ENDBRANCH   7  30
TORSDOF 7
ENDMDL
MODEL 8
REMARK VINA RESULT:      -7.8      4.051      6.883
REMARK  7 active torsions:
REMARK  status: ('A' for Active; 'I' for Inactive)
REMARK    1  A    between atoms: C_3  and  N_4 
REMARK       I    between atoms: N_4  and  C_5 
REMARK    2  A    between atoms: C_5  and  C_6 
REMARK    3  A    between atoms: C_7  and  C_8 
REMARK    4  A    between atoms: C_19  and  C_20 
REMARK    5  A    between atoms: C_20  and  C_21 
REMARK    6  A    between atoms: C_21  and  C_22 
REMARK    7  A    between atoms: C_22  and  O_23 
ROOT
HETATM    1  C   UNL     1      -5.658   2.157 -30.975  1.00  0.00     0.062 A 
HETATM    2  C   UNL     1      -6.857   3.046 -30.655  1.00  0.00     0.202 A 
HETATM    3  N   UNL     1      -6.448   4.429 -30.380  1.00  0.00    -0.083 N 
HETATM    4  C   UNL     1      -5.149   4.855 -30.371  1.00  0.00     0.726 A 
HETATM    5  N   UNL     1      -4.165   3.980 -30.646  1.00  0.00    -0.192 N 
HETATM    6  N   UNL     1      -7.287   5.406 -29.972  1.00  0.00    -0.140 NA
HETATM    7  C   UNL     1      -6.430   6.429 -29.833  1.00  0.00     0.166 A 
HETATM    8  N   UNL     1      -5.108   6.124 -30.056  1.00  0.00    -0.046 NA
HETATM    9  C   UNL     1      -4.392   2.645 -30.962  1.00  0.00     0.037 A 
HETATM   10  C   UNL     1      -3.158   1.826 -31.254  1.00  0.00     0.070 C 
HETATM   11  H   UNL     1      -3.205   4.312 -30.660  1.00  0.00     0.184 HD
ENDROOT
BRANCH   1  12
HETATM   12  C   UNL     1      -5.942   0.768 -31.440  1.00  0.00     0.256 C 
HETATM   13  N   UNL     1      -5.695   0.581 -32.781  1.00  0.00    -0.323 N 
HETATM   14  H   UNL     1      -5.703   1.413 -33.354  1.00  0.00     0.169 HD
HETATM   15  O   UNL     1      -6.384  -0.055 -30.650  1.00  0.00    -0.267 OA
BRANCH  13  16
HETATM   16  C   UNL     1      -5.657  -0.638 -33.501  1.00  0.00     0.041 A 
HETATM   17  C   UNL     1      -6.599  -1.084 -34.446  1.00  0.00    -0.035 A 
HETATM   18  C   UNL     1      -7.875  -0.371 -34.806  1.00  0.00     0.050 C 
HETATM   19  C   UNL     1      -6.377  -2.317 -35.098  1.00  0.00     0.009 A 
HETATM   20  C   UNL     1      -5.288  -3.124 -34.780  1.00  0.00     0.001 A 
HETATM   21  C   UNL     1      -4.397  -2.714 -33.799  1.00  0.00     0.002 A 
HETATM   22  C   UNL     1      -4.584  -1.486 -33.165  1.00  0.00     0.030 A 
ENDBRANCH  13  16
ENDBRANCH   1  12
BRANCH   2  23
HETATM   23  C   UNL     1      -7.949   3.015 -31.721  1.00  0.00    -0.028 A 
HETATM   24  C   UNL     1      -7.705   3.585 -32.984  1.00  0.00     0.011 A 
HETATM   25  C   UNL     1      -8.699   3.595 -33.964  1.00  0.00     0.024 A 
HETATM   26  C   UNL     1      -9.944   3.034 -33.693  1.00  0.00     0.034 A 
HETATM   27 CL   UNL     1     -11.170   3.056 -34.899  1.00  0.00    -0.084 Cl
HETATM   28  C   UNL     1     -10.201   2.456 -32.452  1.00  0.00     0.024 A 
HETATM   29  C   UNL     1      -9.207   2.443 -31.469  1.00  0.00     0.011 A 
ENDBRANCH   2  23
BRANCH   7  30
HETATM   30  C   UNL     1      -6.861   7.792 -29.432  1.00  0.00     0.085 C 
BRANCH  30  31
HETATM   31  C   UNL     1      -8.376   7.978 -29.453  1.00  0.00     0.034 C 
BRANCH  31  32
HETATM   32  C   UNL     1      -8.990   8.034 -28.058  1.00  0.00     0.164 C 
BRANCH  32  33
HETATM   33  O   UNL     1      -8.989   6.731 -27.484  1.00  0.00    -0.401 OA
HETATM   34  H   UNL     1      -8.333   6.728 -26.766  1.00  0.00     0.209 HD
ENDBRANCH  32  33
ENDBRANCH  31  32
ENDBRANCH  30  31
ENDBRANCH   7  30
TORSDOF 7
ENDMDL
MODEL 9
REMARK VINA RESULT:      -7.7      3.020      4.607
REMARK  7 active torsions:
REMARK  status: ('A' for Active; 'I' for Inactive)
REMARK    1  A    between atoms: C_3  and  N_4 
REMARK       I    between atoms: N_4  and  C_5 
REMARK    2  A    between atoms: C_5  and  C_6 
REMARK    3  A    between atoms: C_7  and  C_8 
REMARK    4  A    between atoms: C_19  and  C_20 
REMARK    5  A    between atoms: C_20  and  C_21 
REMARK    6  A    between atoms: C_21  and  C_22 
REMARK    7  A    between atoms: C_22  and  O_23 
ROOT
HETATM    1  C   UNL     1      -5.516   2.175 -32.659  1.00  0.00     0.062 A 
HETATM    2  C   UNL     1      -6.924   2.763 -32.737  1.00  0.00     0.202 A 
HETATM    3  N   UNL     1      -7.942   1.716 -32.886  1.00  0.00    -0.083 N 
HETATM    4  C   UNL     1      -7.658   0.382 -32.987  1.00  0.00     0.726 A 
HETATM    5  N   UNL     1      -6.378  -0.027 -32.929  1.00  0.00    -0.192 N 
HETATM    6  N   UNL     1      -9.257   1.952 -33.079  1.00  0.00    -0.140 NA
HETATM    7  C   UNL     1      -9.723   0.700 -33.188  1.00  0.00     0.166 A 
HETATM    8  N   UNL     1      -8.768  -0.290 -33.150  1.00  0.00    -0.046 NA
HETATM    9  C   UNL     1      -5.303   0.838 -32.753  1.00  0.00     0.037 A 
HETATM   10  C   UNL     1      -3.943   0.184 -32.699  1.00  0.00     0.070 C 
HETATM   11  H   UNL     1      -6.179  -1.022 -32.981  1.00  0.00     0.184 HD
ENDROOT
BRANCH   1  12
HETATM   12  C   UNL     1      -4.401   3.111 -32.336  1.00  0.00     0.256 C 
HETATM   13  N   UNL     1      -4.115   3.990 -33.355  1.00  0.00    -0.323 N 
HETATM   14  H   UNL     1      -4.403   3.706 -34.282  1.00  0.00     0.169 HD
HETATM   15  O   UNL     1      -3.824   3.015 -31.261  1.00  0.00    -0.267 OA
BRANCH  13  16
HETATM   16  C   UNL     1      -3.273   5.129 -33.317  1.00  0.00     0.041 A 
HETATM   17  C   UNL     1      -3.458   6.283 -32.534  1.00  0.00    -0.035 A 
HETATM   18  C   UNL     1      -4.642   6.550 -31.645  1.00  0.00     0.050 C 
HETATM   19  C   UNL     1      -2.490   7.309 -32.596  1.00  0.00     0.009 A 
HETATM   20  C   UNL     1      -1.399   7.231 -33.459  1.00  0.00     0.001 A 
HETATM   21  C   UNL     1      -1.255   6.123 -34.280  1.00  0.00     0.002 A 
HETATM   22  C   UNL     1      -2.186   5.085 -34.211  1.00  0.00     0.030 A 
ENDBRANCH  13  16
ENDBRANCH   1  12
BRANCH   2  23
HETATM   23  C   UNL     1      -7.272   3.681 -31.569  1.00  0.00    -0.028 A 
HETATM   24  C   UNL     1      -7.789   4.965 -31.822  1.00  0.00     0.011 A 
HETATM   25  C   UNL     1      -8.086   5.832 -30.769  1.00  0.00     0.024 A 
HETATM   26  C   UNL     1      -7.873   5.426 -29.456  1.00  0.00     0.034 A 
HETATM   27 CL   UNL     1      -8.230   6.500 -28.161  1.00  0.00    -0.084 Cl
HETATM   28  C   UNL     1      -7.370   4.155 -29.184  1.00  0.00     0.024 A 
HETATM   29  C   UNL     1      -7.073   3.283 -30.235  1.00  0.00     0.011 A 
ENDBRANCH   2  23
BRANCH   7  30
HETATM   30  C   UNL     1     -11.163   0.389 -33.373  1.00  0.00     0.085 C 
BRANCH  30  31
HETATM   31  C   UNL     1     -11.913   1.449 -34.175  1.00  0.00     0.034 C 
BRANCH  31  32
HETATM   32  C   UNL     1     -12.912   2.239 -33.337  1.00  0.00     0.164 C 
BRANCH  32  33
HETATM   33  O   UNL     1     -12.219   2.947 -32.313  1.00  0.00    -0.401 OA
HETATM   34  H   UNL     1     -11.515   3.465 -32.741  1.00  0.00     0.209 HD
ENDBRANCH  32  33
ENDBRANCH  31  32
ENDBRANCH  30  31
ENDBRANCH   7  30
TORSDOF 7
ENDMDL
MODEL 10
REMARK VINA RESULT:      -7.6      2.761      4.433
REMARK  7 active torsions:
REMARK  status: ('A' for Active; 'I' for Inactive)
REMARK    1  A    between atoms: C_3  and  N_4 
REMARK       I    between atoms: N_4  and  C_5 
REMARK    2  A    between atoms: C_5  and  C_6 
REMARK    3  A    between atoms: C_7  and  C_8 
REMARK    4  A    between atoms: C_19  and  C_20 
REMARK    5  A    between atoms: C_20  and  C_21 
REMARK    6  A    between atoms: C_21  and  C_22 
REMARK    7  A    between atoms: C_22  and  O_23 
ROOT
HETATM    1  C   UNL     1      -6.755   2.252 -32.379  1.00  0.00     0.062 A 
HETATM    2  C   UNL     1      -7.809   3.051 -33.143  1.00  0.00     0.202 A 
HETATM    3  N   UNL     1      -9.020   2.257 -33.385  1.00  0.00    -0.083 N 
HETATM    4  C   UNL     1      -9.166   0.950 -33.010  1.00  0.00     0.726 A 
HETATM    5  N   UNL     1      -8.162   0.334 -32.360  1.00  0.00    -0.192 N 
HETATM    6  N   UNL     1     -10.072   2.676 -34.122  1.00  0.00    -0.140 NA
HETATM    7  C   UNL     1     -10.864   1.595 -34.062  1.00  0.00     0.166 A 
HETATM    8  N   UNL     1     -10.335   0.512 -33.400  1.00  0.00    -0.046 NA
HETATM    9  C   UNL     1      -6.967   0.960 -32.025  1.00  0.00     0.037 A 
HETATM   10  C   UNL     1      -5.969   0.103 -31.283  1.00  0.00     0.070 C 
HETATM   11  H   UNL     1      -8.290  -0.630 -32.066  1.00  0.00     0.184 HD
ENDROOT
BRANCH   1  12
HETATM   12  C   UNL     1      -5.542   2.988 -31.916  1.00  0.00     0.256 C 
HETATM   13  N   UNL     1      -4.624   3.210 -32.918  1.00  0.00    -0.323 N 
HETATM   14  H   UNL     1      -4.676   2.589 -33.713  1.00  0.00     0.169 HD
HETATM   15  O   UNL     1      -5.435   3.294 -30.737  1.00  0.00    -0.267 OA
BRANCH  13  16
HETATM   16  C   UNL     1      -3.478   4.041 -32.884  1.00  0.00     0.041 A 
HETATM   17  C   UNL     1      -3.087   4.972 -33.864  1.00  0.00    -0.035 A 
HETATM   18  C   UNL     1      -3.784   5.195 -35.179  1.00  0.00     0.050 C 
HETATM   19  C   UNL     1      -1.926   5.745 -33.642  1.00  0.00     0.009 A 
HETATM   20  C   UNL     1      -1.133   5.562 -32.513  1.00  0.00     0.001 A 
HETATM   21  C   UNL     1      -1.483   4.597 -31.580  1.00  0.00     0.002 A 
HETATM   22  C   UNL     1      -2.642   3.842 -31.768  1.00  0.00     0.030 A 
ENDBRANCH  13  16
ENDBRANCH   1  12
BRANCH   2  23
HETATM   23  C   UNL     1      -8.167   4.382 -32.487  1.00  0.00    -0.028 A 
HETATM   24  C   UNL     1      -8.838   4.391 -31.250  1.00  0.00     0.011 A 
HETATM   25  C   UNL     1      -9.202   5.596 -30.647  1.00  0.00     0.024 A 
HETATM   26  C   UNL     1      -8.897   6.802 -31.270  1.00  0.00     0.034 A 
HETATM   27 CL   UNL     1      -9.355   8.285 -30.529  1.00  0.00    -0.084 Cl
HETATM   28  C   UNL     1      -8.224   6.814 -32.490  1.00  0.00     0.024 A 
HETATM   29  C   UNL     1      -7.857   5.610 -33.096  1.00  0.00     0.011 A 
ENDBRANCH   2  23
BRANCH   7  30
HETATM   30  C   UNL     1     -12.207   1.545 -34.693  1.00  0.00     0.085 C 
BRANCH  30  31
HETATM   31  C   UNL     1     -13.340   1.354 -33.688  1.00  0.00     0.034 C 
BRANCH  31  32
HETATM   32  C   UNL     1     -13.986  -0.025 -33.770  1.00  0.00     0.164 C 
BRANCH  32  33
HETATM   33  O   UNL     1     -13.131  -0.987 -33.161  1.00  0.00    -0.401 OA
HETATM   34  H   UNL     1     -13.597  -1.344 -32.386  1.00  0.00     0.209 HD
ENDBRANCH  32  33
ENDBRANCH  31  32
ENDBRANCH  30  31
ENDBRANCH   7  30
TORSDOF 7
ENDMDL
