MODEL 1
REMARK VINA RESULT:     -10.5      0.000      0.000
REMARK  9 active torsions:
REMARK  status: ('A' for Active; 'I' for Inactive)
REMARK    1  A    between atoms: C_6  and  N_7 
REMARK    2  A    between atoms: C_6  and  C_31 
REMARK       I    between atoms: N_7  and  C_8 
REMARK    3  A    between atoms: N_7  and  C_23 
REMARK    4  A    between atoms: C_8  and  C_9 
REMARK    5  A    between atoms: C_9  and  N_10 
REMARK    6  A    between atoms: C_14  and  C_15 
REMARK    7  A    between atoms: C_23  and  C_24 
REMARK       I    between atoms: C_31  and  N_32 
REMARK    8  A    between atoms: N_32  and  C_33 
REMARK    9  A    between atoms: C_36  and  O_37 
ROOT
HETATM    1  N   UNL     1      -9.643   2.860 -33.105  1.00  0.00    -0.328 N 
HETATM    2  C   UNL     1      -8.826   2.482 -32.022  1.00  0.00     0.239 C 
HETATM    3  O   UNL     1      -8.183   3.321 -31.382  1.00  0.00    -0.271 OA
ENDROOT
BRANCH   1   4
HETATM    4  C   UNL     1      -9.792   4.337 -33.451  1.00  0.00     0.120 C 
HETATM    5  C   UNL     1     -10.109   4.527 -34.963  1.00  0.00     0.069 C 
HETATM    6  C   UNL     1     -10.405   5.978 -35.314  1.00  0.00     0.237 C 
HETATM    7  N   UNL     1     -11.570   6.455 -34.494  1.00  0.00    -0.075 N 
HETATM    8  C   UNL     1     -12.004   7.837 -34.914  1.00  0.00     0.269 C 
HETATM    9  H   UNL     1     -12.369   5.830 -34.686  1.00  0.00     0.279 HD
HETATM   10  C   UNL     1     -11.298   6.393 -33.011  1.00  0.00     0.237 C 
HETATM   11  C   UNL     1     -10.937   4.966 -32.603  1.00  0.00     0.069 C 
BRANCH   4  12
HETATM   12  C   UNL     1      -8.475   5.161 -33.148  1.00  0.00     0.251 C 
HETATM   13  N   UNL     1      -7.355   4.767 -33.852  1.00  0.00    -0.325 N 
HETATM   14  H   UNL     1      -7.433   3.969 -34.473  1.00  0.00     0.169 HD
HETATM   15  O   UNL     1      -8.516   6.129 -32.392  1.00  0.00    -0.270 OA
BRANCH  13  16
HETATM   16  C   UNL     1      -6.030   5.226 -33.679  1.00  0.00     0.035 A 
HETATM   17  C   UNL     1      -5.615   6.038 -32.622  1.00  0.00     0.032 A 
HETATM   18  C   UNL     1      -4.260   6.355 -32.460  1.00  0.00     0.039 A 
HETATM   19  C   UNL     1      -3.312   5.868 -33.358  1.00  0.00     0.068 A 
HETATM   20  C   UNL     1      -3.729   5.105 -34.445  1.00  0.00     0.039 A 
HETATM   21  C   UNL     1      -5.075   4.771 -34.597  1.00  0.00     0.032 A 
BRANCH  19  22
HETATM   22  O   UNL     1      -1.969   6.103 -33.282  1.00  0.00    -0.356 OA
HETATM   23  C   UNL     1      -1.230   5.740 -34.444  1.00  0.00     0.210 C 
ENDBRANCH  19  22
ENDBRANCH  13  16
ENDBRANCH   4  12
ENDBRANCH   1   4
BRANCH   1  24
HETATM   24  C   UNL     1      -9.984   1.857 -34.140  1.00  0.00     0.169 C 
BRANCH  24  25
HETATM   25  C   UNL     1     -11.426   1.421 -34.157  1.00  0.00    -0.002 A 
HETATM   26  C   UNL     1     -11.756   0.214 -33.527  1.00  0.00     0.124 A 
HETATM   27  F   UNL     1     -10.789  -0.521 -32.960  1.00  0.00    -0.205 F 
HETATM   28  C   UNL     1     -13.064  -0.258 -33.489  1.00  0.00     0.043 A 
HETATM   29  C   UNL     1     -14.081   0.491 -34.074  1.00  0.00     0.003 A 
HETATM   30  C   UNL     1     -13.783   1.707 -34.686  1.00  0.00     0.001 A 
HETATM   31  C   UNL     1     -12.465   2.173 -34.726  1.00  0.00     0.012 A 
ENDBRANCH  24  25
ENDBRANCH   1  24
BRANCH   2  32
HETATM   32  C   UNL     1      -8.748   1.001 -31.601  1.00  0.00     0.228 C 
BRANCH  32  33
HETATM   33  N   UNL     1      -7.589   0.251 -32.074  1.00  0.00    -0.347 N 
HETATM   34  C   UNL     1      -6.339   0.209 -31.456  1.00  0.00     0.171 A 
HETATM   35  S   UNL     1      -5.901   0.736 -29.951  1.00  0.00    -0.041 SA
HETATM   36  N   UNL     1      -5.444  -0.375 -32.325  1.00  0.00    -0.357 N 
HETATM   37  C   UNL     1      -6.019  -0.634 -33.621  1.00  0.00     0.135 A 
HETATM   38  H   UNL     1      -4.460  -0.472 -32.103  1.00  0.00     0.162 HD
HETATM   39  C   UNL     1      -7.495  -0.223 -33.452  1.00  0.00     0.155 A 
BRANCH  37  40
HETATM   40  C   UNL     1      -5.791  -2.064 -34.048  1.00  0.00    -0.034 A 
HETATM   41  C   UNL     1      -6.830  -2.847 -34.577  1.00  0.00     0.009 A 
HETATM   42  C   UNL     1      -6.607  -4.178 -34.938  1.00  0.00     0.001 A 
HETATM   43  C   UNL     1      -5.344  -4.741 -34.776  1.00  0.00     0.000 A 
HETATM   44  C   UNL     1      -4.303  -3.978 -34.251  1.00  0.00     0.001 A 
HETATM   45  C   UNL     1      -4.525  -2.648 -33.890  1.00  0.00     0.009 A 
ENDBRANCH  37  40
ENDBRANCH  32  33
ENDBRANCH   2  32
TORSDOF 9
ENDMDL
MODEL 2
REMARK VINA RESULT:     -10.2      3.368      8.179
REMARK  9 active torsions:
REMARK  status: ('A' for Active; 'I' for Inactive)
REMARK    1  A    between atoms: C_6  and  N_7 
REMARK    2  A    between atoms: C_6  and  C_31 
REMARK       I    between atoms: N_7  and  C_8 
REMARK    3  A    between atoms: N_7  and  C_23 
REMARK    4  A    between atoms: C_8  and  C_9 
REMARK    5  A    between atoms: C_9  and  N_10 
REMARK    6  A    between atoms: C_14  and  C_15 
REMARK    7  A    between atoms: C_23  and  C_24 
REMARK       I    between atoms: C_31  and  N_32 
REMARK    8  A    between atoms: N_32  and  C_33 
REMARK    9  A    between atoms: C_36  and  O_37 
ROOT
HETATM    1  N   UNL     1      -6.785   4.932 -31.986  1.00  0.00    -0.328 N 
HETATM    2  C   UNL     1      -7.340   5.805 -31.031  1.00  0.00     0.239 C 
HETATM    3  O   UNL     1      -8.353   5.497 -30.395  1.00  0.00    -0.271 OA
ENDROOT
BRANCH   1   4
HETATM    4  C   UNL     1      -7.404   3.554 -32.190  1.00  0.00     0.120 C 
HETATM    5  C   UNL     1      -8.763   3.434 -31.441  1.00  0.00     0.069 C 
HETATM    6  C   UNL     1      -9.475   2.123 -31.740  1.00  0.00     0.237 C 
HETATM    7  N   UNL     1      -9.709   2.017 -33.220  1.00  0.00    -0.075 N 
HETATM    8  C   UNL     1     -10.549   0.811 -33.555  1.00  0.00     0.269 C 
HETATM    9  H   UNL     1     -10.256   2.842 -33.514  1.00  0.00     0.279 HD
HETATM   10  C   UNL     1      -8.424   2.027 -34.011  1.00  0.00     0.237 C 
HETATM   11  C   UNL     1      -7.631   3.298 -33.710  1.00  0.00     0.069 C 
BRANCH   4  12
HETATM   12  C   UNL     1      -6.474   2.393 -31.650  1.00  0.00     0.251 C 
HETATM   13  N   UNL     1      -5.645   1.813 -32.590  1.00  0.00    -0.325 N 
HETATM   14  H   UNL     1      -5.710   2.131 -33.550  1.00  0.00     0.169 HD
HETATM   15  O   UNL     1      -6.467   2.118 -30.452  1.00  0.00    -0.270 OA
BRANCH  13  16
HETATM   16  C   UNL     1      -4.824   0.675 -32.421  1.00  0.00     0.035 A 
HETATM   17  C   UNL     1      -3.662   0.656 -31.647  1.00  0.00     0.032 A 
HETATM   18  C   UNL     1      -2.968  -0.542 -31.438  1.00  0.00     0.039 A 
HETATM   19  C   UNL     1      -3.426  -1.728 -32.009  1.00  0.00     0.068 A 
HETATM   20  C   UNL     1      -4.552  -1.703 -32.828  1.00  0.00     0.039 A 
HETATM   21  C   UNL     1      -5.257  -0.514 -33.019  1.00  0.00     0.032 A 
BRANCH  19  22
HETATM   22  O   UNL     1      -2.835  -2.949 -31.856  1.00  0.00    -0.356 OA
HETATM   23  C   UNL     1      -3.341  -3.972 -32.710  1.00  0.00     0.210 C 
ENDBRANCH  19  22
ENDBRANCH  13  16
ENDBRANCH   4  12
ENDBRANCH   1   4
BRANCH   1  24
HETATM   24  C   UNL     1      -5.926   5.484 -33.059  1.00  0.00     0.169 C 
BRANCH  24  25
HETATM   25  C   UNL     1      -4.484   5.050 -33.010  1.00  0.00    -0.002 A 
HETATM   26  C   UNL     1      -3.742   5.095 -34.198  1.00  0.00     0.124 A 
HETATM   27  F   UNL     1      -4.338   5.490 -35.333  1.00  0.00    -0.205 F 
HETATM   28  C   UNL     1      -2.404   4.720 -34.240  1.00  0.00     0.043 A 
HETATM   29  C   UNL     1      -1.770   4.307 -33.072  1.00  0.00     0.003 A 
HETATM   30  C   UNL     1      -2.478   4.276 -31.872  1.00  0.00     0.001 A 
HETATM   31  C   UNL     1      -3.826   4.648 -31.838  1.00  0.00     0.012 A 
ENDBRANCH  24  25
ENDBRANCH   1  24
BRANCH   2  32
HETATM   32  C   UNL     1      -6.661   7.161 -30.745  1.00  0.00     0.228 C 
BRANCH  32  33
HETATM   33  N   UNL     1      -5.323   7.108 -30.167  1.00  0.00    -0.347 N 
HETATM   34  C   UNL     1      -4.997   6.589 -28.914  1.00  0.00     0.171 A 
HETATM   35  S   UNL     1      -5.923   5.682 -27.887  1.00  0.00    -0.041 SA
HETATM   36  N   UNL     1      -3.702   6.953 -28.616  1.00  0.00    -0.357 N 
HETATM   37  C   UNL     1      -3.139   7.847 -29.597  1.00  0.00     0.135 A 
HETATM   38  H   UNL     1      -3.265   6.720 -27.733  1.00  0.00     0.162 HD
HETATM   39  C   UNL     1      -4.238   7.945 -30.672  1.00  0.00     0.155 A 
BRANCH  37  40
HETATM   40  C   UNL     1      -1.799   7.354 -30.085  1.00  0.00    -0.034 A 
HETATM   41  C   UNL     1      -1.330   7.656 -31.374  1.00  0.00     0.009 A 
HETATM   42  C   UNL     1      -0.100   7.165 -31.819  1.00  0.00     0.001 A 
HETATM   43  C   UNL     1       0.676   6.367 -30.982  1.00  0.00     0.000 A 
HETATM   44  C   UNL     1       0.224   6.057 -29.702  1.00  0.00     0.001 A 
HETATM   45  C   UNL     1      -1.005   6.547 -29.255  1.00  0.00     0.009 A 
ENDBRANCH  37  40
ENDBRANCH  32  33
ENDBRANCH   2  32
TORSDOF 9
ENDMDL
MODEL 3
REMARK VINA RESULT:     -10.2      2.607      6.714
REMARK  9 active torsions:
REMARK  status: ('A' for Active; 'I' for Inactive)
REMARK    1  A    between atoms: C_6  and  N_7 
REMARK    2  A    between atoms: C_6  and  C_31 
REMARK       I    between atoms: N_7  and  C_8 
REMARK    3  A    between atoms: N_7  and  C_23 
REMARK    4  A    between atoms: C_8  and  C_9 
REMARK    5  A    between atoms: C_9  and  N_10 
REMARK    6  A    between atoms: C_14  and  C_15 
REMARK    7  A    between atoms: C_23  and  C_24 
REMARK       I    between atoms: C_31  and  N_32 
REMARK    8  A    between atoms: N_32  and  C_33 
REMARK    9  A    between atoms: C_36  and  O_37 
ROOT
HETATM    1  N   UNL     1      -8.066   3.498 -31.970  1.00  0.00    -0.328 N 
HETATM    2  C   UNL     1      -8.232   2.120 -31.735  1.00  0.00     0.239 C 
HETATM    3  O   UNL     1      -9.276   1.539 -32.050  1.00  0.00    -0.271 OA
ENDROOT
BRANCH   1   4
HETATM    4  C   UNL     1      -9.164   4.274 -32.688  1.00  0.00     0.120 C 
HETATM    5  C   UNL     1      -8.942   5.809 -32.555  1.00  0.00     0.069 C 
HETATM    6  C   UNL     1      -9.939   6.611 -33.379  1.00  0.00     0.237 C 
HETATM    7  N   UNL     1      -9.818   6.211 -34.823  1.00  0.00    -0.075 N 
HETATM    8  C   UNL     1     -10.672   7.085 -35.705  1.00  0.00     0.269 C 
HETATM    9  H   UNL     1      -8.840   6.372 -35.115  1.00  0.00     0.279 HD
HETATM   10  C   UNL     1     -10.116   4.749 -35.045  1.00  0.00     0.237 C 
HETATM   11  C   UNL     1      -9.183   3.887 -34.197  1.00  0.00     0.069 C 
BRANCH   4  12
HETATM   12  C   UNL     1     -10.601   3.962 -32.103  1.00  0.00     0.251 C 
HETATM   13  N   UNL     1     -11.434   3.241 -32.935  1.00  0.00    -0.325 N 
HETATM   14  H   UNL     1     -11.098   2.997 -33.859  1.00  0.00     0.169 HD
HETATM   15  O   UNL     1     -10.879   4.288 -30.952  1.00  0.00    -0.270 OA
BRANCH  13  16
HETATM   16  C   UNL     1     -12.801   2.947 -32.730  1.00  0.00     0.035 A 
HETATM   17  C   UNL     1     -13.683   3.772 -32.030  1.00  0.00     0.032 A 
HETATM   18  C   UNL     1     -15.048   3.465 -31.971  1.00  0.00     0.039 A 
HETATM   19  C   UNL     1     -15.539   2.324 -32.604  1.00  0.00     0.068 A 
HETATM   20  C   UNL     1     -14.654   1.469 -33.255  1.00  0.00     0.039 A 
HETATM   21  C   UNL     1     -13.298   1.785 -33.333  1.00  0.00     0.032 A 
BRANCH  19  22
HETATM   22  O   UNL     1     -16.850   1.943 -32.621  1.00  0.00    -0.356 OA
HETATM   23  C   UNL     1     -17.775   2.957 -32.240  1.00  0.00     0.210 C 
ENDBRANCH  19  22
ENDBRANCH  13  16
ENDBRANCH   4  12
ENDBRANCH   1   4
BRANCH   1  24
HETATM   24  C   UNL     1      -7.081   4.256 -31.165  1.00  0.00     0.169 C 
BRANCH  24  25
HETATM   25  C   UNL     1      -5.747   4.479 -31.830  1.00  0.00    -0.002 A 
HETATM   26  C   UNL     1      -4.676   4.905 -31.033  1.00  0.00     0.124 A 
HETATM   27  F   UNL     1      -4.874   5.125 -29.726  1.00  0.00    -0.205 F 
HETATM   28  C   UNL     1      -3.411   5.126 -31.565  1.00  0.00     0.043 A 
HETATM   29  C   UNL     1      -3.187   4.903 -32.921  1.00  0.00     0.003 A 
HETATM   30  C   UNL     1      -4.229   4.457 -33.731  1.00  0.00     0.001 A 
HETATM   31  C   UNL     1      -5.501   4.242 -33.191  1.00  0.00     0.012 A 
ENDBRANCH  24  25
ENDBRANCH   1  24
BRANCH   2  32
HETATM   32  C   UNL     1      -7.086   1.307 -31.099  1.00  0.00     0.228 C 
BRANCH  32  33
HETATM   33  N   UNL     1      -6.298   0.479 -32.005  1.00  0.00    -0.347 N 
HETATM   34  C   UNL     1      -4.912   0.530 -32.158  1.00  0.00     0.171 A 
HETATM   35  S   UNL     1      -3.787   1.299 -31.221  1.00  0.00    -0.041 SA
HETATM   36  N   UNL     1      -4.570  -0.199 -33.276  1.00  0.00    -0.357 N 
HETATM   37  C   UNL     1      -5.722  -0.667 -34.005  1.00  0.00     0.135 A 
HETATM   38  H   UNL     1      -3.615  -0.267 -33.606  1.00  0.00     0.162 HD
HETATM   39  C   UNL     1      -6.911  -0.221 -33.131  1.00  0.00     0.155 A 
BRANCH  37  40
HETATM   40  C   UNL     1      -5.638  -2.150 -34.273  1.00  0.00    -0.034 A 
HETATM   41  C   UNL     1      -6.741  -2.873 -34.757  1.00  0.00     0.009 A 
HETATM   42  C   UNL     1      -6.652  -4.251 -34.971  1.00  0.00     0.001 A 
HETATM   43  C   UNL     1      -5.461  -4.922 -34.703  1.00  0.00     0.000 A 
HETATM   44  C   UNL     1      -4.359  -4.220 -34.221  1.00  0.00     0.001 A 
HETATM   45  C   UNL     1      -4.446  -2.843 -34.008  1.00  0.00     0.009 A 
ENDBRANCH  37  40
ENDBRANCH  32  33
ENDBRANCH   2  32
TORSDOF 9
ENDMDL
MODEL 4
REMARK VINA RESULT:     -10.2      3.077      8.910
REMARK  9 active torsions:
REMARK  status: ('A' for Active; 'I' for Inactive)
REMARK    1  A    between atoms: C_6  and  N_7 
REMARK    2  A    between atoms: C_6  and  C_31 
REMARK       I    between atoms: N_7  and  C_8 
REMARK    3  A    between atoms: N_7  and  C_23 
REMARK    4  A    between atoms: C_8  and  C_9 
REMARK    5  A    between atoms: C_9  and  N_10 
REMARK    6  A    between atoms: C_14  and  C_15 
REMARK    7  A    between atoms: C_23  and  C_24 
REMARK       I    between atoms: C_31  and  N_32 
REMARK    8  A    between atoms: N_32  and  C_33 
REMARK    9  A    between atoms: C_36  and  O_37 
ROOT
HETATM    1  N   UNL     1      -6.997   4.564 -32.853  1.00  0.00    -0.328 N 
HETATM    2  C   UNL     1      -7.807   5.372 -32.033  1.00  0.00     0.239 C 
HETATM    3  O   UNL     1      -8.894   4.966 -31.609  1.00  0.00    -0.271 OA
ENDROOT
BRANCH   1   4
HETATM    4  C   UNL     1      -7.435   3.139 -33.168  1.00  0.00     0.120 C 
HETATM    5  C   UNL     1      -6.541   2.511 -34.277  1.00  0.00     0.069 C 
HETATM    6  C   UNL     1      -6.859   1.042 -34.515  1.00  0.00     0.237 C 
HETATM    7  N   UNL     1      -6.670   0.284 -33.231  1.00  0.00    -0.075 N 
HETATM    8  C   UNL     1      -6.822  -1.200 -33.447  1.00  0.00     0.269 C 
HETATM    9  H   UNL     1      -5.698   0.434 -32.916  1.00  0.00     0.279 HD
HETATM   10  C   UNL     1      -7.579   0.774 -32.131  1.00  0.00     0.237 C 
HETATM   11  C   UNL     1      -7.348   2.263 -31.882  1.00  0.00     0.069 C 
BRANCH   4  12
HETATM   12  C   UNL     1      -8.929   3.070 -33.684  1.00  0.00     0.251 C 
HETATM   13  N   UNL     1      -9.824   2.465 -32.826  1.00  0.00    -0.325 N 
HETATM   14  H   UNL     1      -9.472   2.076 -31.959  1.00  0.00     0.169 HD
HETATM   15  O   UNL     1      -9.237   3.606 -34.747  1.00  0.00    -0.270 OA
BRANCH  13  16
HETATM   16  C   UNL     1     -11.176   2.143 -33.086  1.00  0.00     0.035 A 
HETATM   17  C   UNL     1     -11.604   0.915 -33.594  1.00  0.00     0.032 A 
HETATM   18  C   UNL     1     -12.972   0.635 -33.715  1.00  0.00     0.039 A 
HETATM   19  C   UNL     1     -13.919   1.586 -33.339  1.00  0.00     0.068 A 
HETATM   20  C   UNL     1     -13.495   2.832 -32.887  1.00  0.00     0.039 A 
HETATM   21  C   UNL     1     -12.134   3.105 -32.744  1.00  0.00     0.032 A 
BRANCH  19  22
HETATM   22  O   UNL     1     -15.272   1.409 -33.402  1.00  0.00    -0.356 OA
HETATM   23  C   UNL     1     -16.018   2.140 -32.433  1.00  0.00     0.210 C 
ENDBRANCH  19  22
ENDBRANCH  13  16
ENDBRANCH   4  12
ENDBRANCH   1   4
BRANCH   1  24
HETATM   24  C   UNL     1      -5.996   5.204 -33.738  1.00  0.00     0.169 C 
BRANCH  24  25
HETATM   25  C   UNL     1      -4.561   4.855 -33.437  1.00  0.00    -0.002 A 
HETATM   26  C   UNL     1      -3.607   5.067 -34.442  1.00  0.00     0.124 A 
HETATM   27  F   UNL     1      -3.999   5.541 -35.633  1.00  0.00    -0.205 F 
HETATM   28  C   UNL     1      -2.261   4.780 -34.246  1.00  0.00     0.043 A 
HETATM   29  C   UNL     1      -1.837   4.286 -33.016  1.00  0.00     0.003 A 
HETATM   30  C   UNL     1      -2.761   4.088 -31.991  1.00  0.00     0.001 A 
HETATM   31  C   UNL     1      -4.115   4.373 -32.197  1.00  0.00     0.012 A 
ENDBRANCH  24  25
ENDBRANCH   1  24
BRANCH   2  32
HETATM   32  C   UNL     1      -7.324   6.780 -31.627  1.00  0.00     0.228 C 
BRANCH  32  33
HETATM   33  N   UNL     1      -6.042   6.852 -30.935  1.00  0.00    -0.347 N 
HETATM   34  C   UNL     1      -5.770   6.336 -29.667  1.00  0.00     0.171 A 
HETATM   35  S   UNL     1      -6.677   5.310 -28.741  1.00  0.00    -0.041 SA
HETATM   36  N   UNL     1      -4.551   6.826 -29.251  1.00  0.00    -0.357 N 
HETATM   37  C   UNL     1      -4.005   7.801 -30.162  1.00  0.00     0.135 A 
HETATM   38  H   UNL     1      -4.168   6.616 -28.337  1.00  0.00     0.162 HD
HETATM   39  C   UNL     1      -5.013   7.811 -31.328  1.00  0.00     0.155 A 
BRANCH  37  40
HETATM   40  C   UNL     1      -2.584   7.464 -30.541  1.00  0.00    -0.034 A 
HETATM   41  C   UNL     1      -1.709   6.844 -29.633  1.00  0.00     0.009 A 
HETATM   42  C   UNL     1      -0.388   6.567 -29.992  1.00  0.00     0.001 A 
HETATM   43  C   UNL     1       0.075   6.906 -31.260  1.00  0.00     0.000 A 
HETATM   44  C   UNL     1      -0.779   7.522 -32.172  1.00  0.00     0.001 A 
HETATM   45  C   UNL     1      -2.100   7.799 -31.815  1.00  0.00     0.009 A 
ENDBRANCH  37  40
ENDBRANCH  32  33
ENDBRANCH   2  32
TORSDOF 9
ENDMDL
MODEL 5
REMARK VINA RESULT:     -10.1      2.672      7.069
REMARK  9 active torsions:
REMARK  status: ('A' for Active; 'I' for Inactive)
REMARK    1  A    between atoms: C_6  and  N_7 
REMARK    2  A    between atoms: C_6  and  C_31 
REMARK       I    between atoms: N_7  and  C_8 
REMARK    3  A    between atoms: N_7  and  C_23 
REMARK    4  A    between atoms: C_8  and  C_9 
REMARK    5  A    between atoms: C_9  and  N_10 
REMARK    6  A    between atoms: C_14  and  C_15 
REMARK    7  A    between atoms: C_23  and  C_24 
REMARK       I    between atoms: C_31  and  N_32 
REMARK    8  A    between atoms: N_32  and  C_33 
REMARK    9  A    between atoms: C_36  and  O_37 
ROOT
HETATM    1  N   UNL     1      -7.011   3.728 -31.110  1.00  0.00    -0.328 N 
HETATM    2  C   UNL     1      -7.349   4.932 -30.463  1.00  0.00     0.239 C 
HETATM    3  O   UNL     1      -6.511   5.824 -30.293  1.00  0.00    -0.271 OA
ENDROOT
BRANCH   1   4
HETATM    4  C   UNL     1      -5.606   3.548 -31.672  1.00  0.00     0.120 C 
HETATM    5  C   UNL     1      -5.467   4.234 -33.062  1.00  0.00     0.069 C 
HETATM    6  C   UNL     1      -4.039   4.196 -33.586  1.00  0.00     0.237 C 
HETATM    7  N   UNL     1      -3.134   4.878 -32.599  1.00  0.00    -0.075 N 
HETATM    8  C   UNL     1      -1.733   5.006 -33.141  1.00  0.00     0.269 C 
HETATM    9  H   UNL     1      -3.482   5.841 -32.464  1.00  0.00     0.279 HD
HETATM   10  C   UNL     1      -3.141   4.206 -31.249  1.00  0.00     0.237 C 
HETATM   11  C   UNL     1      -4.562   4.160 -30.691  1.00  0.00     0.069 C 
BRANCH   4  12
HETATM   12  C   UNL     1      -5.229   2.024 -31.869  1.00  0.00     0.251 C 
HETATM   13  N   UNL     1      -5.428   1.524 -33.140  1.00  0.00    -0.325 N 
HETATM   14  H   UNL     1      -5.831   2.137 -33.840  1.00  0.00     0.169 HD
HETATM   15  O   UNL     1      -4.720   1.393 -30.945  1.00  0.00    -0.270 OA
BRANCH  13  16
HETATM   16  C   UNL     1      -5.313   0.180 -33.559  1.00  0.00     0.035 A 
HETATM   17  C   UNL     1      -4.191  -0.619 -33.327  1.00  0.00     0.032 A 
HETATM   18  C   UNL     1      -4.202  -1.976 -33.674  1.00  0.00     0.039 A 
HETATM   19  C   UNL     1      -5.332  -2.541 -34.264  1.00  0.00     0.068 A 
HETATM   20  C   UNL     1      -6.430  -1.735 -34.549  1.00  0.00     0.039 A 
HETATM   21  C   UNL     1      -6.429  -0.388 -34.184  1.00  0.00     0.032 A 
BRANCH  19  22
HETATM   22  O   UNL     1      -5.452  -3.853 -34.625  1.00  0.00    -0.356 OA
HETATM   23  C   UNL     1      -6.751  -4.237 -35.065  1.00  0.00     0.210 C 
ENDBRANCH  19  22
ENDBRANCH  13  16
ENDBRANCH   4  12
ENDBRANCH   1   4
BRANCH   1  24
HETATM   24  C   UNL     1      -7.830   2.519 -30.864  1.00  0.00     0.169 C 
BRANCH  24  25
HETATM   25  C   UNL     1      -8.575   1.996 -32.065  1.00  0.00    -0.002 A 
HETATM   26  C   UNL     1      -9.219   0.757 -31.952  1.00  0.00     0.124 A 
HETATM   27  F   UNL     1      -9.131   0.070 -30.804  1.00  0.00    -0.205 F 
HETATM   28  C   UNL     1      -9.934   0.205 -33.009  1.00  0.00     0.043 A 
HETATM   29  C   UNL     1     -10.035   0.903 -34.209  1.00  0.00     0.003 A 
HETATM   30  C   UNL     1      -9.425   2.149 -34.340  1.00  0.00     0.001 A 
HETATM   31  C   UNL     1      -8.701   2.696 -33.275  1.00  0.00     0.012 A 
ENDBRANCH  24  25
ENDBRANCH   1  24
BRANCH   2  32
HETATM   32  C   UNL     1      -8.795   5.164 -29.981  1.00  0.00     0.228 C 
BRANCH  32  33
HETATM   33  N   UNL     1      -9.829   5.178 -31.010  1.00  0.00    -0.347 N 
HETATM   34  C   UNL     1     -10.013   6.178 -31.965  1.00  0.00     0.171 A 
HETATM   35  S   UNL     1      -9.013   7.430 -32.372  1.00  0.00    -0.041 SA
HETATM   36  N   UNL     1     -11.230   5.975 -32.579  1.00  0.00    -0.357 N 
HETATM   37  C   UNL     1     -11.983   4.904 -31.974  1.00  0.00     0.135 A 
HETATM   38  H   UNL     1     -11.594   6.607 -33.281  1.00  0.00     0.162 HD
HETATM   39  C   UNL     1     -11.022   4.342 -30.908  1.00  0.00     0.155 A 
BRANCH  37  40
HETATM   40  C   UNL     1     -12.454   3.911 -33.008  1.00  0.00    -0.034 A 
HETATM   41  C   UNL     1     -12.325   4.165 -34.383  1.00  0.00     0.009 A 
HETATM   42  C   UNL     1     -12.794   3.246 -35.325  1.00  0.00     0.001 A 
HETATM   43  C   UNL     1     -13.397   2.064 -34.905  1.00  0.00     0.000 A 
HETATM   44  C   UNL     1     -13.534   1.797 -33.545  1.00  0.00     0.001 A 
HETATM   45  C   UNL     1     -13.065   2.714 -32.602  1.00  0.00     0.009 A 
ENDBRANCH  37  40
ENDBRANCH  32  33
ENDBRANCH   2  32
TORSDOF 9
ENDMDL
MODEL 6
REMARK VINA RESULT:      -9.9      2.043      2.622
REMARK  9 active torsions:
REMARK  status: ('A' for Active; 'I' for Inactive)
REMARK    1  A    between atoms: C_6  and  N_7 
REMARK    2  A    between atoms: C_6  and  C_31 
REMARK       I    between atoms: N_7  and  C_8 
REMARK    3  A    between atoms: N_7  and  C_23 
REMARK    4  A    between atoms: C_8  and  C_9 
REMARK    5  A    between atoms: C_9  and  N_10 
REMARK    6  A    between atoms: C_14  and  C_15 
REMARK    7  A    between atoms: C_23  and  C_24 
REMARK       I    between atoms: C_31  and  N_32 
REMARK    8  A    between atoms: N_32  and  C_33 
REMARK    9  A    between atoms: C_36  and  O_37 
ROOT
HETATM    1  N   UNL     1      -8.696   3.296 -32.307  1.00  0.00    -0.328 N 
HETATM    2  C   UNL     1      -7.896   2.716 -33.310  1.00  0.00     0.239 C 
HETATM    3  O   UNL     1      -6.926   3.318 -33.781  1.00  0.00    -0.271 OA
ENDROOT
BRANCH   1   4
HETATM    4  C   UNL     1      -8.319   4.660 -31.742  1.00  0.00     0.120 C 
HETATM    5  C   UNL     1      -8.372   5.756 -32.845  1.00  0.00     0.069 C 
HETATM    6  C   UNL     1      -8.139   7.152 -32.285  1.00  0.00     0.237 C 
HETATM    7  N   UNL     1      -9.180   7.443 -31.241  1.00  0.00    -0.075 N 
HETATM    8  C   UNL     1      -9.091   8.870 -30.764  1.00  0.00     0.269 C 
HETATM    9  H   UNL     1     -10.108   7.341 -31.682  1.00  0.00     0.279 HD
HETATM   10  C   UNL     1      -9.125   6.474 -30.085  1.00  0.00     0.237 C 
HETATM   11  C   UNL     1      -9.295   5.043 -30.590  1.00  0.00     0.069 C 
BRANCH   4  12
HETATM   12  C   UNL     1      -6.854   4.677 -31.143  1.00  0.00     0.251 C 
HETATM   13  N   UNL     1      -5.885   5.215 -31.965  1.00  0.00    -0.325 N 
HETATM   14  H   UNL     1      -6.156   5.521 -32.892  1.00  0.00     0.169 HD
HETATM   15  O   UNL     1      -6.658   4.302 -29.989  1.00  0.00    -0.270 OA
BRANCH  13  16
HETATM   16  C   UNL     1      -4.488   5.229 -31.746  1.00  0.00     0.035 A 
HETATM   17  C   UNL     1      -3.822   6.203 -31.001  1.00  0.00     0.032 A 
HETATM   18  C   UNL     1      -2.452   6.080 -30.736  1.00  0.00     0.039 A 
HETATM   19  C   UNL     1      -1.737   4.986 -31.223  1.00  0.00     0.068 A 
HETATM   20  C   UNL     1      -2.386   4.043 -32.015  1.00  0.00     0.039 A 
HETATM   21  C   UNL     1      -3.756   4.152 -32.261  1.00  0.00     0.032 A 
BRANCH  19  22
HETATM   22  O   UNL     1      -0.407   4.764 -31.010  1.00  0.00    -0.356 OA
HETATM   23  C   UNL     1       0.183   5.578 -30.000  1.00  0.00     0.210 C 
ENDBRANCH  19  22
ENDBRANCH  13  16
ENDBRANCH   4  12
ENDBRANCH   1   4
BRANCH   1  24
HETATM   24  C   UNL     1     -10.086   2.819 -32.124  1.00  0.00     0.169 C 
BRANCH  24  25
HETATM   25  C   UNL     1     -10.963   2.922 -33.345  1.00  0.00    -0.002 A 
HETATM   26  C   UNL     1     -11.583   1.754 -33.811  1.00  0.00     0.124 A 
HETATM   27  F   UNL     1     -11.358   0.592 -33.181  1.00  0.00    -0.205 F 
HETATM   28  C   UNL     1     -12.414   1.761 -34.925  1.00  0.00     0.043 A 
HETATM   29  C   UNL     1     -12.658   2.959 -35.592  1.00  0.00     0.003 A 
HETATM   30  C   UNL     1     -12.073   4.139 -35.136  1.00  0.00     0.001 A 
HETATM   31  C   UNL     1     -11.233   4.123 -34.018  1.00  0.00     0.012 A 
ENDBRANCH  24  25
ENDBRANCH   1  24
BRANCH   2  32
HETATM   32  C   UNL     1      -8.212   1.294 -33.817  1.00  0.00     0.228 C 
BRANCH  32  33
HETATM   33  N   UNL     1      -7.209   0.270 -33.544  1.00  0.00    -0.347 N 
HETATM   34  C   UNL     1      -6.602   0.033 -32.310  1.00  0.00     0.171 A 
HETATM   35  S   UNL     1      -7.008   0.617 -30.818  1.00  0.00    -0.041 SA
HETATM   36  N   UNL     1      -5.536  -0.818 -32.506  1.00  0.00    -0.357 N 
HETATM   37  C   UNL     1      -5.295  -1.090 -33.902  1.00  0.00     0.135 A 
HETATM   38  H   UNL     1      -4.921  -1.096 -31.752  1.00  0.00     0.162 HD
HETATM   39  C   UNL     1      -6.448  -0.362 -34.618  1.00  0.00     0.155 A 
BRANCH  37  40
HETATM   40  C   UNL     1      -5.205  -2.574 -34.165  1.00  0.00    -0.034 A 
HETATM   41  C   UNL     1      -4.093  -3.327 -33.754  1.00  0.00     0.009 A 
HETATM   42  C   UNL     1      -4.015  -4.694 -34.032  1.00  0.00     0.001 A 
HETATM   43  C   UNL     1      -5.046  -5.323 -34.725  1.00  0.00     0.000 A 
HETATM   44  C   UNL     1      -6.155  -4.591 -35.141  1.00  0.00     0.001 A 
HETATM   45  C   UNL     1      -6.235  -3.225 -34.862  1.00  0.00     0.009 A 
ENDBRANCH  37  40
ENDBRANCH  32  33
ENDBRANCH   2  32
TORSDOF 9
ENDMDL
MODEL 7
REMARK VINA RESULT:      -9.8      3.708      6.306
REMARK  9 active torsions:
REMARK  status: ('A' for Active; 'I' for Inactive)
REMARK    1  A    between atoms: C_6  and  N_7 
REMARK    2  A    between atoms: C_6  and  C_31 
REMARK       I    between atoms: N_7  and  C_8 
REMARK    3  A    between atoms: N_7  and  C_23 
REMARK    4  A    between atoms: C_8  and  C_9 
REMARK    5  A    between atoms: C_9  and  N_10 
REMARK    6  A    between atoms: C_14  and  C_15 
REMARK    7  A    between atoms: C_23  and  C_24 
REMARK       I    between atoms: C_31  and  N_32 
REMARK    8  A    between atoms: N_32  and  C_33 
REMARK    9  A    between atoms: C_36  and  O_37 
ROOT
HETATM    1  N   UNL     1      -5.878   4.414 -32.190  1.00  0.00    -0.328 N 
HETATM    2  C   UNL     1      -6.942   3.874 -32.937  1.00  0.00     0.239 C 
HETATM    3  O   UNL     1      -8.117   4.135 -32.657  1.00  0.00    -0.271 OA
ENDROOT
BRANCH   1   4
HETATM    4  C   UNL     1      -6.175   5.393 -31.060  1.00  0.00     0.120 C 
HETATM    5  C   UNL     1      -7.434   6.250 -31.380  1.00  0.00     0.069 C 
HETATM    6  C   UNL     1      -7.842   7.137 -30.213  1.00  0.00     0.237 C 
HETATM    7  N   UNL     1      -8.116   6.276 -29.013  1.00  0.00    -0.075 N 
HETATM    8  C   UNL     1      -8.674   7.089 -27.873  1.00  0.00     0.269 C 
HETATM    9  H   UNL     1      -8.850   5.597 -29.271  1.00  0.00     0.279 HD
HETATM   10  C   UNL     1      -6.906   5.484 -28.581  1.00  0.00     0.237 C 
HETATM   11  C   UNL     1      -6.410   4.612 -29.733  1.00  0.00     0.069 C 
BRANCH   4  12
HETATM   12  C   UNL     1      -4.981   6.400 -30.809  1.00  0.00     0.251 C 
HETATM   13  N   UNL     1      -4.148   6.081 -29.756  1.00  0.00    -0.325 N 
HETATM   14  H   UNL     1      -4.370   5.264 -29.198  1.00  0.00     0.169 HD
HETATM   15  O   UNL     1      -4.801   7.343 -31.577  1.00  0.00    -0.270 OA
BRANCH  13  16
HETATM   16  C   UNL     1      -3.101   6.866 -29.224  1.00  0.00     0.035 A 
HETATM   17  C   UNL     1      -1.875   7.071 -29.859  1.00  0.00     0.032 A 
HETATM   18  C   UNL     1      -0.934   7.957 -29.318  1.00  0.00     0.039 A 
HETATM   19  C   UNL     1      -1.210   8.637 -28.134  1.00  0.00     0.068 A 
HETATM   20  C   UNL     1      -2.407   8.392 -27.468  1.00  0.00     0.039 A 
HETATM   21  C   UNL     1      -3.355   7.527 -28.016  1.00  0.00     0.032 A 
BRANCH  19  22
HETATM   22  O   UNL     1      -0.371   9.531 -27.532  1.00  0.00    -0.356 OA
HETATM   23  C   UNL     1       0.964   9.070 -27.347  1.00  0.00     0.210 C 
ENDBRANCH  19  22
ENDBRANCH  13  16
ENDBRANCH   4  12
ENDBRANCH   1   4
BRANCH   1  24
HETATM   24  C   UNL     1      -4.566   3.726 -32.197  1.00  0.00     0.169 C 
BRANCH  24  25
HETATM   25  C   UNL     1      -3.478   4.433 -32.964  1.00  0.00    -0.002 A 
HETATM   26  C   UNL     1      -2.204   4.505 -32.385  1.00  0.00     0.124 A 
HETATM   27  F   UNL     1      -2.001   3.976 -31.170  1.00  0.00    -0.205 F 
HETATM   28  C   UNL     1      -1.142   5.132 -33.028  1.00  0.00     0.043 A 
HETATM   29  C   UNL     1      -1.335   5.688 -34.289  1.00  0.00     0.003 A 
HETATM   30  C   UNL     1      -2.586   5.610 -34.898  1.00  0.00     0.001 A 
HETATM   31  C   UNL     1      -3.652   4.984 -34.244  1.00  0.00     0.012 A 
ENDBRANCH  24  25
ENDBRANCH   1  24
BRANCH   2  32
HETATM   32  C   UNL     1      -6.646   2.962 -34.144  1.00  0.00     0.228 C 
BRANCH  32  33
HETATM   33  N   UNL     1      -6.917   1.539 -33.966  1.00  0.00    -0.347 N 
HETATM   34  C   UNL     1      -8.181   0.953 -33.893  1.00  0.00     0.171 A 
HETATM   35  S   UNL     1      -9.658   1.611 -34.243  1.00  0.00    -0.041 SA
HETATM   36  N   UNL     1      -8.034  -0.346 -33.460  1.00  0.00    -0.357 N 
HETATM   37  C   UNL     1      -6.675  -0.657 -33.094  1.00  0.00     0.135 A 
HETATM   38  H   UNL     1      -8.828  -0.953 -33.293  1.00  0.00     0.162 HD
HETATM   39  C   UNL     1      -5.900   0.625 -33.453  1.00  0.00     0.155 A 
BRANCH  37  40
HETATM   40  C   UNL     1      -6.196  -1.915 -33.777  1.00  0.00    -0.034 A 
HETATM   41  C   UNL     1      -7.095  -2.824 -34.357  1.00  0.00     0.009 A 
HETATM   42  C   UNL     1      -6.634  -3.998 -34.959  1.00  0.00     0.001 A 
HETATM   43  C   UNL     1      -5.271  -4.277 -34.987  1.00  0.00     0.000 A 
HETATM   44  C   UNL     1      -4.366  -3.387 -34.414  1.00  0.00     0.001 A 
HETATM   45  C   UNL     1      -4.824  -2.213 -33.813  1.00  0.00     0.009 A 
ENDBRANCH  37  40
ENDBRANCH  32  33
ENDBRANCH   2  32
TORSDOF 9
ENDMDL
MODEL 8
REMARK VINA RESULT:      -9.7      2.893      8.053
REMARK  9 active torsions:
REMARK  status: ('A' for Active; 'I' for Inactive)
REMARK    1  A    between atoms: C_6  and  N_7 
REMARK    2  A    between atoms: C_6  and  C_31 
REMARK       I    between atoms: N_7  and  C_8 
REMARK    3  A    between atoms: N_7  and  C_23 
REMARK    4  A    between atoms: C_8  and  C_9 
REMARK    5  A    between atoms: C_9  and  N_10 
REMARK    6  A    between atoms: C_14  and  C_15 
REMARK    7  A    between atoms: C_23  and  C_24 
REMARK       I    between atoms: C_31  and  N_32 
REMARK    8  A    between atoms: N_32  and  C_33 
REMARK    9  A    between atoms: C_36  and  O_37 
ROOT
HETATM    1  N   UNL     1      -8.936   2.332 -31.864  1.00  0.00    -0.328 N 
HETATM    2  C   UNL     1      -9.588   2.019 -33.072  1.00  0.00     0.239 C 
HETATM    3  O   UNL     1      -8.948   1.795 -34.105  1.00  0.00    -0.271 OA
ENDROOT
BRANCH   1   4
HETATM    4  C   UNL     1      -7.413   2.326 -31.811  1.00  0.00     0.120 C 
HETATM    5  C   UNL     1      -6.810   3.205 -32.945  1.00  0.00     0.069 C 
HETATM    6  C   UNL     1      -5.298   3.336 -32.834  1.00  0.00     0.237 C 
HETATM    7  N   UNL     1      -4.953   3.936 -31.500  1.00  0.00    -0.075 N 
HETATM    8  C   UNL     1      -3.478   4.232 -31.400  1.00  0.00     0.269 C 
HETATM    9  H   UNL     1      -5.437   4.845 -31.427  1.00  0.00     0.279 HD
HETATM   10  C   UNL     1      -5.421   3.085 -30.345  1.00  0.00     0.237 C 
HETATM   11  C   UNL     1      -6.931   2.867 -30.431  1.00  0.00     0.069 C 
BRANCH   4  12
HETATM   12  C   UNL     1      -6.811   0.873 -31.983  1.00  0.00     0.251 C 
HETATM   13  N   UNL     1      -6.476   0.520 -33.275  1.00  0.00    -0.325 N 
HETATM   14  H   UNL     1      -6.669   1.180 -34.019  1.00  0.00     0.169 HD
HETATM   15  O   UNL     1      -6.599   0.175 -30.994  1.00  0.00    -0.270 OA
BRANCH  13  16
HETATM   16  C   UNL     1      -6.058  -0.749 -33.734  1.00  0.00     0.035 A 
HETATM   17  C   UNL     1      -4.745  -1.216 -33.655  1.00  0.00     0.032 A 
HETATM   18  C   UNL     1      -4.435  -2.531 -34.028  1.00  0.00     0.039 A 
HETATM   19  C   UNL     1      -5.435  -3.384 -34.491  1.00  0.00     0.068 A 
HETATM   20  C   UNL     1      -6.735  -2.904 -34.625  1.00  0.00     0.039 A 
HETATM   21  C   UNL     1      -7.050  -1.602 -34.233  1.00  0.00     0.032 A 
BRANCH  19  22
HETATM   22  O   UNL     1      -5.244  -4.683 -34.864  1.00  0.00    -0.356 OA
HETATM   23  C   UNL     1      -4.237  -5.375 -34.130  1.00  0.00     0.210 C 
ENDBRANCH  19  22
ENDBRANCH  13  16
ENDBRANCH   4  12
ENDBRANCH   1   4
BRANCH   1  24
HETATM   24  C   UNL     1      -9.674   3.071 -30.814  1.00  0.00     0.169 C 
BRANCH  24  25
HETATM   25  C   UNL     1     -10.098   4.466 -31.191  1.00  0.00    -0.002 A 
HETATM   26  C   UNL     1     -11.401   4.868 -30.869  1.00  0.00     0.124 A 
HETATM   27  F   UNL     1     -12.229   4.002 -30.268  1.00  0.00    -0.205 F 
HETATM   28  C   UNL     1     -11.871   6.141 -31.174  1.00  0.00     0.043 A 
HETATM   29  C   UNL     1     -11.026   7.053 -31.800  1.00  0.00     0.003 A 
HETATM   30  C   UNL     1      -9.717   6.687 -32.110  1.00  0.00     0.001 A 
HETATM   31  C   UNL     1      -9.253   5.403 -31.806  1.00  0.00     0.012 A 
ENDBRANCH  24  25
ENDBRANCH   1  24
BRANCH   2  32
HETATM   32  C   UNL     1     -11.126   1.924 -33.111  1.00  0.00     0.228 C 
BRANCH  32  33
HETATM   33  N   UNL     1     -11.833   3.062 -33.688  1.00  0.00    -0.347 N 
HETATM   34  C   UNL     1     -13.209   3.284 -33.625  1.00  0.00     0.171 A 
HETATM   35  S   UNL     1     -14.348   2.521 -32.700  1.00  0.00    -0.041 SA
HETATM   36  N   UNL     1     -13.526   4.302 -34.499  1.00  0.00    -0.357 N 
HETATM   37  C   UNL     1     -12.396   4.724 -35.289  1.00  0.00     0.135 A 
HETATM   38  H   UNL     1     -14.479   4.606 -34.650  1.00  0.00     0.162 HD
HETATM   39  C   UNL     1     -11.228   3.891 -34.728  1.00  0.00     0.155 A 
BRANCH  37  40
HETATM   40  C   UNL     1     -12.211   6.221 -35.227  1.00  0.00    -0.034 A 
HETATM   41  C   UNL     1     -10.992   6.825 -35.573  1.00  0.00     0.009 A 
HETATM   42  C   UNL     1     -10.830   8.210 -35.481  1.00  0.00     0.001 A 
HETATM   43  C   UNL     1     -11.884   9.006 -35.042  1.00  0.00     0.000 A 
HETATM   44  C   UNL     1     -13.100   8.423 -34.693  1.00  0.00     0.001 A 
HETATM   45  C   UNL     1     -13.263   7.039 -34.785  1.00  0.00     0.009 A 
ENDBRANCH  37  40
ENDBRANCH  32  33
ENDBRANCH   2  32
TORSDOF 9
ENDMDL
MODEL 9
REMARK VINA RESULT:      -9.5      3.781      8.428
REMARK  9 active torsions:
REMARK  status: ('A' for Active; 'I' for Inactive)
REMARK    1  A    between atoms: C_6  and  N_7 
REMARK    2  A    between atoms: C_6  and  C_31 
REMARK       I    between atoms: N_7  and  C_8 
REMARK    3  A    between atoms: N_7  and  C_23 
REMARK    4  A    between atoms: C_8  and  C_9 
REMARK    5  A    between atoms: C_9  and  N_10 
REMARK    6  A    between atoms: C_14  and  C_15 
REMARK    7  A    between atoms: C_23  and  C_24 
REMARK       I    between atoms: C_31  and  N_32 
REMARK    8  A    between atoms: N_32  and  C_33 
REMARK    9  A    between atoms: C_36  and  O_37 
ROOT
HETATM    1  N   UNL     1      -5.806   4.023 -32.304  1.00  0.00    -0.328 N 
HETATM    2  C   UNL     1      -4.714   4.871 -32.040  1.00  0.00     0.239 C 
HETATM    3  O   UNL     1      -4.859   5.921 -31.406  1.00  0.00    -0.271 OA
ENDROOT
BRANCH   1   4
HETATM    4  C   UNL     1      -7.178   4.369 -31.739  1.00  0.00     0.120 C 
HETATM    5  C   UNL     1      -7.075   4.807 -30.250  1.00  0.00     0.069 C 
HETATM    6  C   UNL     1      -8.406   5.295 -29.697  1.00  0.00     0.237 C 
HETATM    7  N   UNL     1      -8.889   6.452 -30.526  1.00  0.00    -0.075 N 
HETATM    8  C   UNL     1     -10.126   7.073 -29.929  1.00  0.00     0.269 C 
HETATM    9  H   UNL     1      -8.159   7.182 -30.507  1.00  0.00     0.279 HD
HETATM   10  C   UNL     1      -9.107   6.076 -31.971  1.00  0.00     0.237 C 
HETATM   11  C   UNL     1      -7.816   5.521 -32.571  1.00  0.00     0.069 C 
BRANCH   4  12
HETATM   12  C   UNL     1      -8.176   3.142 -31.792  1.00  0.00     0.251 C 
HETATM   13  N   UNL     1      -8.897   3.015 -32.962  1.00  0.00    -0.325 N 
HETATM   14  H   UNL     1      -8.777   3.720 -33.680  1.00  0.00     0.169 HD
HETATM   15  O   UNL     1      -8.210   2.337 -30.863  1.00  0.00    -0.270 OA
BRANCH  13  16
HETATM   16  C   UNL     1      -9.949   2.108 -33.225  1.00  0.00     0.035 A 
HETATM   17  C   UNL     1      -9.871   0.733 -33.002  1.00  0.00     0.032 A 
HETATM   18  C   UNL     1     -10.997  -0.081 -33.181  1.00  0.00     0.039 A 
HETATM   19  C   UNL     1     -12.206   0.475 -33.594  1.00  0.00     0.068 A 
HETATM   20  C   UNL     1     -12.273   1.837 -33.873  1.00  0.00     0.039 A 
HETATM   21  C   UNL     1     -11.159   2.653 -33.674  1.00  0.00     0.032 A 
BRANCH  19  22
HETATM   22  O   UNL     1     -13.364  -0.224 -33.783  1.00  0.00    -0.356 OA
HETATM   23  C   UNL     1     -14.530   0.579 -33.942  1.00  0.00     0.210 C 
ENDBRANCH  19  22
ENDBRANCH  13  16
ENDBRANCH   4  12
ENDBRANCH   1   4
BRANCH   1  24
HETATM   24  C   UNL     1      -5.732   3.082 -33.446  1.00  0.00     0.169 C 
BRANCH  24  25
HETATM   25  C   UNL     1      -5.625   1.627 -33.070  1.00  0.00    -0.002 A 
HETATM   26  C   UNL     1      -6.194   0.680 -33.932  1.00  0.00     0.124 A 
HETATM   27  F   UNL     1      -6.833   1.093 -35.035  1.00  0.00    -0.205 F 
HETATM   28  C   UNL     1      -6.134  -0.683 -33.665  1.00  0.00     0.043 A 
HETATM   29  C   UNL     1      -5.475  -1.130 -32.523  1.00  0.00     0.003 A 
HETATM   30  C   UNL     1      -4.879  -0.211 -31.661  1.00  0.00     0.001 A 
HETATM   31  C   UNL     1      -4.949   1.159 -31.932  1.00  0.00     0.012 A 
ENDBRANCH  24  25
ENDBRANCH   1  24
BRANCH   2  32
HETATM   32  C   UNL     1      -3.303   4.478 -32.523  1.00  0.00     0.228 C 
BRANCH  32  33
HETATM   33  N   UNL     1      -2.193   5.260 -31.989  1.00  0.00    -0.347 N 
HETATM   34  C   UNL     1      -1.481   6.241 -32.680  1.00  0.00     0.171 A 
HETATM   35  S   UNL     1      -1.834   6.964 -34.125  1.00  0.00    -0.041 SA
HETATM   36  N   UNL     1      -0.358   6.560 -31.949  1.00  0.00    -0.357 N 
HETATM   37  C   UNL     1      -0.191   5.714 -30.794  1.00  0.00     0.135 A 
HETATM   38  H   UNL     1       0.332   7.224 -32.280  1.00  0.00     0.162 HD
HETATM   39  C   UNL     1      -1.454   4.831 -30.805  1.00  0.00     0.155 A 
BRANCH  37  40
HETATM   40  C   UNL     1       0.017   6.529 -29.541  1.00  0.00    -0.034 A 
HETATM   41  C   UNL     1      -0.465   7.844 -29.431  1.00  0.00     0.009 A 
HETATM   42  C   UNL     1      -0.237   8.593 -28.274  1.00  0.00     0.001 A 
HETATM   43  C   UNL     1       0.475   8.038 -27.214  1.00  0.00     0.000 A 
HETATM   44  C   UNL     1       0.962   6.737 -27.308  1.00  0.00     0.001 A 
HETATM   45  C   UNL     1       0.734   5.986 -28.463  1.00  0.00     0.009 A 
ENDBRANCH  37  40
ENDBRANCH  32  33
ENDBRANCH   2  32
TORSDOF 9
ENDMDL
MODEL 10
REMARK VINA RESULT:      -9.4      2.973      7.486
REMARK  9 active torsions:
REMARK  status: ('A' for Active; 'I' for Inactive)
REMARK    1  A    between atoms: C_6  and  N_7 
REMARK    2  A    between atoms: C_6  and  C_31 
REMARK       I    between atoms: N_7  and  C_8 
REMARK    3  A    between atoms: N_7  and  C_23 
REMARK    4  A    between atoms: C_8  and  C_9 
REMARK    5  A    between atoms: C_9  and  N_10 
REMARK    6  A    between atoms: C_14  and  C_15 
REMARK    7  A    between atoms: C_23  and  C_24 
REMARK       I    between atoms: C_31  and  N_32 
REMARK    8  A    between atoms: N_32  and  C_33 
REMARK    9  A    between atoms: C_36  and  O_37 
ROOT
HETATM    1  N   UNL     1      -8.039   4.177 -30.835  1.00  0.00    -0.328 N 
HETATM    2  C   UNL     1      -8.040   5.581 -30.736  1.00  0.00     0.239 C 
HETATM    3  O   UNL     1      -8.612   6.281 -31.578  1.00  0.00    -0.271 OA
ENDROOT
BRANCH   1   4
HETATM    4  C   UNL     1      -8.814   3.504 -31.962  1.00  0.00     0.120 C 
HETATM    5  C   UNL     1     -10.347   3.570 -31.704  1.00  0.00     0.069 C 
HETATM    6  C   UNL     1     -11.155   3.035 -32.876  1.00  0.00     0.237 C 
HETATM    7  N   UNL     1     -10.821   3.830 -34.108  1.00  0.00    -0.075 N 
HETATM    8  C   UNL     1     -11.708   3.443 -35.264  1.00  0.00     0.269 C 
HETATM    9  H   UNL     1     -11.021   4.823 -33.907  1.00  0.00     0.279 HD
HETATM   10  C   UNL     1      -9.362   3.733 -34.479  1.00  0.00     0.237 C 
HETATM   11  C   UNL     1      -8.491   4.204 -33.316  1.00  0.00     0.069 C 
BRANCH   4  12
HETATM   12  C   UNL     1      -8.437   1.976 -32.121  1.00  0.00     0.251 C 
HETATM   13  N   UNL     1      -7.525   1.691 -33.117  1.00  0.00    -0.325 N 
HETATM   14  H   UNL     1      -7.193   2.453 -33.697  1.00  0.00     0.169 HD
HETATM   15  O   UNL     1      -8.888   1.147 -31.333  1.00  0.00    -0.270 OA
BRANCH  13  16
HETATM   16  C   UNL     1      -7.122   0.414 -33.569  1.00  0.00     0.035 A 
HETATM   17  C   UNL     1      -7.589  -0.186 -34.739  1.00  0.00     0.032 A 
HETATM   18  C   UNL     1      -7.052  -1.405 -35.175  1.00  0.00     0.039 A 
HETATM   19  C   UNL     1      -6.052  -2.035 -34.438  1.00  0.00     0.068 A 
HETATM   20  C   UNL     1      -5.624  -1.469 -33.241  1.00  0.00     0.039 A 
HETATM   21  C   UNL     1      -6.141  -0.244 -32.816  1.00  0.00     0.032 A 
BRANCH  19  22
HETATM   22  O   UNL     1      -5.452  -3.213 -34.782  1.00  0.00    -0.356 OA
HETATM   23  C   UNL     1      -6.350  -4.274 -35.097  1.00  0.00     0.210 C 
ENDBRANCH  19  22
ENDBRANCH  13  16
ENDBRANCH   4  12
ENDBRANCH   1   4
BRANCH   1  24
HETATM   24  C   UNL     1      -6.974   3.404 -30.155  1.00  0.00     0.169 C 
BRANCH  24  25
HETATM   25  C   UNL     1      -5.698   3.245 -30.941  1.00  0.00    -0.002 A 
HETATM   26  C   UNL     1      -4.860   2.167 -30.625  1.00  0.00     0.124 A 
HETATM   27  F   UNL     1      -5.200   1.338 -29.628  1.00  0.00    -0.205 F 
HETATM   28  C   UNL     1      -3.668   1.943 -31.305  1.00  0.00     0.043 A 
HETATM   29  C   UNL     1      -3.298   2.795 -32.342  1.00  0.00     0.003 A 
HETATM   30  C   UNL     1      -4.125   3.861 -32.692  1.00  0.00     0.001 A 
HETATM   31  C   UNL     1      -5.319   4.085 -32.000  1.00  0.00     0.012 A 
ENDBRANCH  24  25
ENDBRANCH   1  24
BRANCH   2  32
HETATM   32  C   UNL     1      -7.343   6.266 -29.543  1.00  0.00     0.228 C 
BRANCH  32  33
HETATM   33  N   UNL     1      -5.904   6.471 -29.662  1.00  0.00    -0.347 N 
HETATM   34  C   UNL     1      -4.973   6.334 -28.632  1.00  0.00     0.171 A 
HETATM   35  S   UNL     1      -5.169   5.670 -27.130  1.00  0.00    -0.041 SA
HETATM   36  N   UNL     1      -3.773   6.861 -29.057  1.00  0.00    -0.357 N 
HETATM   37  C   UNL     1      -3.873   7.498 -30.346  1.00  0.00     0.135 A 
HETATM   38  H   UNL     1      -2.960   6.907 -28.455  1.00  0.00     0.162 HD
HETATM   39  C   UNL     1      -5.327   7.220 -30.776  1.00  0.00     0.155 A 
BRANCH  37  40
HETATM   40  C   UNL     1      -2.812   6.993 -31.294  1.00  0.00    -0.034 A 
HETATM   41  C   UNL     1      -1.880   6.019 -30.900  1.00  0.00     0.009 A 
HETATM   42  C   UNL     1      -0.887   5.585 -31.782  1.00  0.00     0.001 A 
HETATM   43  C   UNL     1      -0.813   6.120 -33.065  1.00  0.00     0.000 A 
HETATM   44  C   UNL     1      -1.729   7.088 -33.470  1.00  0.00     0.001 A 
HETATM   45  C   UNL     1      -2.723   7.522 -32.591  1.00  0.00     0.009 A 
ENDBRANCH  37  40
ENDBRANCH  32  33
ENDBRANCH   2  32
TORSDOF 9
ENDMDL
