MODEL 1
REMARK VINA RESULT:      -8.5      0.000      0.000
REMARK  4 active torsions:
REMARK  status: ('A' for Active; 'I' for Inactive)
REMARK    1  A    between atoms: C_9  and  C_10 
REMARK    2  A    between atoms: C_20  and  C_21 
REMARK       I    between atoms: C_21  and  N_22 
REMARK    3  A    between atoms: N_22  and  C_23 
REMARK    4  A    between atoms: C_26  and  O_27 
ROOT
HETATM    1  C   UNL     1      -2.444 -13.232 -37.227  1.00  0.00     0.070 C 
HETATM    2  C   UNL     1      -3.863 -13.375 -36.738  1.00  0.00     0.037 A 
HETATM    3  N   UNL     1      -4.013 -13.486 -35.362  1.00  0.00    -0.192 N 
HETATM    4  C   UNL     1      -5.208 -13.546 -34.747  1.00  0.00     0.725 A 
HETATM    5  N   UNL     1      -6.356 -13.478 -35.491  1.00  0.00    -0.084 N 
HETATM    6  N   UNL     1      -7.446 -13.453 -34.693  1.00  0.00    -0.149 NA
HETATM    7  C   UNL     1      -6.879 -13.591 -33.490  1.00  0.00     0.275 A 
HETATM    8  N   UNL     1      -5.510 -13.640 -33.478  1.00  0.00    -0.054 NA
HETATM    9  C   UNL     1      -6.382 -13.318 -36.951  1.00  0.00     0.203 A 
HETATM   10  C   UNL     1      -4.962 -13.353 -37.532  1.00  0.00     0.062 A 
HETATM   11  H   UNL     1      -3.174 -13.475 -34.787  1.00  0.00     0.184 HD
ENDROOT
BRANCH  10  12
HETATM   12  C   UNL     1      -4.906 -13.307 -39.020  1.00  0.00     0.256 C 
HETATM   13  N   UNL     1      -4.616 -14.542 -39.568  1.00  0.00    -0.323 N 
HETATM   14  H   UNL     1      -4.359 -15.282 -38.930  1.00  0.00     0.169 HD
HETATM   15  O   UNL     1      -5.162 -12.266 -39.602  1.00  0.00    -0.267 OA
BRANCH  13  16
HETATM   16  C   UNL     1      -4.689 -14.918 -40.923  1.00  0.00     0.035 A 
HETATM   17  C   UNL     1      -3.649 -14.755 -41.833  1.00  0.00     0.032 A 
HETATM   18  C   UNL     1      -3.834 -15.098 -43.178  1.00  0.00     0.039 A 
HETATM   19  C   UNL     1      -5.050 -15.620 -43.627  1.00  0.00     0.068 A 
HETATM   20  C   UNL     1      -6.085 -15.800 -42.714  1.00  0.00     0.039 A 
HETATM   21  C   UNL     1      -5.908 -15.442 -41.372  1.00  0.00     0.032 A 
BRANCH  19  22
HETATM   22  O   UNL     1      -5.097 -15.903 -44.963  1.00  0.00    -0.356 OA
HETATM   23  C   UNL     1      -3.852 -16.064 -45.632  1.00  0.00     0.210 C 
ENDBRANCH  19  22
ENDBRANCH  13  16
ENDBRANCH  10  12
BRANCH   9  24
HETATM   24  C   UNL     1      -7.363 -14.318 -37.578  1.00  0.00    -0.017 A 
HETATM   25  C   UNL     1      -8.378 -13.898 -38.500  1.00  0.00    -0.017 A 
HETATM   26  C   UNL     1      -9.199 -14.885 -39.104  1.00  0.00    -0.025 A 
HETATM   27  C   UNL     1      -8.640 -12.549 -38.853  1.00  0.00     0.013 A 
HETATM   28  C   UNL     1     -10.194 -14.517 -40.028  1.00  0.00     0.012 A 
HETATM   29  C   UNL     1      -9.030 -16.236 -38.776  1.00  0.00     0.012 A 
HETATM   30  C   UNL     1     -10.412 -13.183 -40.358  1.00  0.00     0.001 A 
HETATM   31  C   UNL     1      -9.638 -12.198 -39.766  1.00  0.00     0.001 A 
HETATM   32  C   UNL     1      -8.082 -16.633 -37.841  1.00  0.00     0.002 A 
HETATM   33  C   UNL     1      -7.266 -15.684 -37.237  1.00  0.00     0.010 A 
ENDBRANCH   9  24
TORSDOF 4
ENDMDL
MODEL 2
REMARK VINA RESULT:      -8.5     15.247     17.681
REMARK  4 active torsions:
REMARK  status: ('A' for Active; 'I' for Inactive)
REMARK    1  A    between atoms: C_9  and  C_10 
REMARK    2  A    between atoms: C_20  and  C_21 
REMARK       I    between atoms: C_21  and  N_22 
REMARK    3  A    between atoms: N_22  and  C_23 
REMARK    4  A    between atoms: C_26  and  O_27 
ROOT
HETATM    1  C   UNL     1      -6.755  -2.705 -34.787  1.00  0.00     0.070 C 
HETATM    2  C   UNL     1      -5.912  -1.750 -33.978  1.00  0.00     0.037 A 
HETATM    3  N   UNL     1      -4.828  -2.318 -33.323  1.00  0.00    -0.192 N 
HETATM    4  C   UNL     1      -3.928  -1.607 -32.619  1.00  0.00     0.725 A 
HETATM    5  N   UNL     1      -4.054  -0.244 -32.542  1.00  0.00    -0.084 N 
HETATM    6  N   UNL     1      -3.008   0.298 -31.882  1.00  0.00    -0.149 NA
HETATM    7  C   UNL     1      -2.339  -0.802 -31.523  1.00  0.00     0.275 A 
HETATM    8  N   UNL     1      -2.863  -1.989 -31.963  1.00  0.00    -0.054 NA
HETATM    9  C   UNL     1      -5.116   0.522 -33.208  1.00  0.00     0.203 A 
HETATM   10  C   UNL     1      -6.118  -0.413 -33.898  1.00  0.00     0.062 A 
HETATM   11  H   UNL     1      -4.682  -3.320 -33.419  1.00  0.00     0.184 HD
ENDROOT
BRANCH  10  12
HETATM   12  C   UNL     1      -7.288   0.282 -34.505  1.00  0.00     0.256 C 
HETATM   13  N   UNL     1      -8.325   0.438 -33.606  1.00  0.00    -0.323 N 
HETATM   14  H   UNL     1      -8.235  -0.025 -32.712  1.00  0.00     0.169 HD
HETATM   15  O   UNL     1      -7.221   0.684 -35.655  1.00  0.00    -0.267 OA
BRANCH  13  16
HETATM   16  C   UNL     1      -9.485   1.220 -33.761  1.00  0.00     0.035 A 
HETATM   17  C   UNL     1     -10.780   0.721 -33.657  1.00  0.00     0.032 A 
HETATM   18  C   UNL     1     -11.876   1.560 -33.892  1.00  0.00     0.039 A 
HETATM   19  C   UNL     1     -11.694   2.907 -34.216  1.00  0.00     0.068 A 
HETATM   20  C   UNL     1     -10.400   3.413 -34.302  1.00  0.00     0.039 A 
HETATM   21  C   UNL     1      -9.302   2.571 -34.085  1.00  0.00     0.032 A 
BRANCH  19  22
HETATM   22  O   UNL     1     -12.847   3.610 -34.428  1.00  0.00    -0.356 OA
HETATM   23  C   UNL     1     -12.764   4.739 -35.290  1.00  0.00     0.210 C 
ENDBRANCH  19  22
ENDBRANCH  13  16
ENDBRANCH  10  12
BRANCH   9  24
HETATM   24  C   UNL     1      -5.736   1.530 -32.230  1.00  0.00    -0.017 A 
HETATM   25  C   UNL     1      -5.918   2.907 -32.586  1.00  0.00    -0.017 A 
HETATM   26  C   UNL     1      -6.572   3.767 -31.665  1.00  0.00    -0.025 A 
HETATM   27  C   UNL     1      -5.479   3.493 -33.802  1.00  0.00     0.013 A 
HETATM   28  C   UNL     1      -6.788   5.120 -31.983  1.00  0.00     0.012 A 
HETATM   29  C   UNL     1      -7.000   3.273 -30.426  1.00  0.00     0.012 A 
HETATM   30  C   UNL     1      -6.353   5.654 -33.192  1.00  0.00     0.001 A 
HETATM   31  C   UNL     1      -5.692   4.842 -34.099  1.00  0.00     0.001 A 
HETATM   32  C   UNL     1      -6.773   1.951 -30.064  1.00  0.00     0.002 A 
HETATM   33  C   UNL     1      -6.134   1.091 -30.950  1.00  0.00     0.010 A 
ENDBRANCH   9  24
TORSDOF 4
ENDMDL
MODEL 3
REMARK VINA RESULT:      -8.4     16.287     18.698
REMARK  4 active torsions:
REMARK  status: ('A' for Active; 'I' for Inactive)
REMARK    1  A    between atoms: C_9  and  C_10 
REMARK    2  A    between atoms: C_20  and  C_21 
REMARK       I    between atoms: C_21  and  N_22 
REMARK    3  A    between atoms: N_22  and  C_23 
REMARK    4  A    between atoms: C_26  and  O_27 
ROOT
HETATM    1  C   UNL     1      -8.716   6.312 -32.714  1.00  0.00     0.070 C 
HETATM    2  C   UNL     1      -7.485   5.452 -32.860  1.00  0.00     0.037 A 
HETATM    3  N   UNL     1      -6.339   6.116 -33.276  1.00  0.00    -0.192 N 
HETATM    4  C   UNL     1      -5.136   5.524 -33.387  1.00  0.00     0.725 A 
HETATM    5  N   UNL     1      -5.001   4.199 -33.063  1.00  0.00    -0.084 N 
HETATM    6  N   UNL     1      -3.709   3.814 -33.143  1.00  0.00    -0.149 NA
HETATM    7  C   UNL     1      -3.140   4.934 -33.598  1.00  0.00     0.275 A 
HETATM    8  N   UNL     1      -3.976   6.008 -33.751  1.00  0.00    -0.054 NA
HETATM    9  C   UNL     1      -6.099   3.358 -32.567  1.00  0.00     0.203 A 
HETATM   10  C   UNL     1      -7.425   4.129 -32.571  1.00  0.00     0.062 A 
HETATM   11  H   UNL     1      -6.405   7.114 -33.462  1.00  0.00     0.184 HD
ENDROOT
BRANCH  10  12
HETATM   12  C   UNL     1      -8.611   3.312 -32.186  1.00  0.00     0.256 C 
HETATM   13  N   UNL     1      -9.567   3.279 -33.182  1.00  0.00    -0.323 N 
HETATM   14  H   UNL     1      -9.426   3.886 -33.978  1.00  0.00     0.169 HD
HETATM   15  O   UNL     1      -8.618   2.727 -31.115  1.00  0.00    -0.267 OA
BRANCH  13  16
HETATM   16  C   UNL     1     -10.703   2.451 -33.255  1.00  0.00     0.035 A 
HETATM   17  C   UNL     1     -10.652   1.075 -33.451  1.00  0.00     0.032 A 
HETATM   18  C   UNL     1     -11.836   0.339 -33.576  1.00  0.00     0.039 A 
HETATM   19  C   UNL     1     -13.083   0.964 -33.492  1.00  0.00     0.068 A 
HETATM   20  C   UNL     1     -13.137   2.338 -33.277  1.00  0.00     0.039 A 
HETATM   21  C   UNL     1     -11.953   3.078 -33.169  1.00  0.00     0.032 A 
BRANCH  19  22
HETATM   22  O   UNL     1     -14.157   0.130 -33.640  1.00  0.00    -0.356 OA
HETATM   23  C   UNL     1     -15.265   0.633 -34.376  1.00  0.00     0.210 C 
ENDBRANCH  19  22
ENDBRANCH  13  16
ENDBRANCH  10  12
BRANCH   9  24
HETATM   24  C   UNL     1      -6.123   2.019 -33.318  1.00  0.00    -0.017 A 
HETATM   25  C   UNL     1      -5.401   0.877 -32.840  1.00  0.00    -0.017 A 
HETATM   26  C   UNL     1      -5.533  -0.352 -33.538  1.00  0.00    -0.025 A 
HETATM   27  C   UNL     1      -4.541   0.878 -31.712  1.00  0.00     0.013 A 
HETATM   28  C   UNL     1      -4.857  -1.501 -33.091  1.00  0.00     0.012 A 
HETATM   29  C   UNL     1      -6.333  -0.426 -34.685  1.00  0.00     0.012 A 
HETATM   30  C   UNL     1      -4.031  -1.463 -31.972  1.00  0.00     0.001 A 
HETATM   31  C   UNL     1      -3.867  -0.270 -31.286  1.00  0.00     0.001 A 
HETATM   32  C   UNL     1      -6.988   0.698 -35.176  1.00  0.00     0.002 A 
HETATM   33  C   UNL     1      -6.873   1.912 -34.509  1.00  0.00     0.010 A 
ENDBRANCH   9  24
TORSDOF 4
ENDMDL
MODEL 4
REMARK VINA RESULT:      -8.3     16.425     18.847
REMARK  4 active torsions:
REMARK  status: ('A' for Active; 'I' for Inactive)
REMARK    1  A    between atoms: C_9  and  C_10 
REMARK    2  A    between atoms: C_20  and  C_21 
REMARK       I    between atoms: C_21  and  N_22 
REMARK    3  A    between atoms: N_22  and  C_23 
REMARK    4  A    between atoms: C_26  and  O_27 
ROOT
HETATM    1  C   UNL     1      -9.034   6.189 -33.407  1.00  0.00     0.070 C 
HETATM    2  C   UNL     1      -9.253   4.697 -33.403  1.00  0.00     0.037 A 
HETATM    3  N   UNL     1     -10.576   4.288 -33.300  1.00  0.00    -0.192 N 
HETATM    4  C   UNL     1     -10.962   3.000 -33.356  1.00  0.00     0.725 A 
HETATM    5  N   UNL     1     -10.023   2.020 -33.541  1.00  0.00    -0.084 N 
HETATM    6  N   UNL     1     -10.611   0.810 -33.670  1.00  0.00    -0.149 NA
HETATM    7  C   UNL     1     -11.893   1.130 -33.470  1.00  0.00     0.275 A 
HETATM    8  N   UNL     1     -12.153   2.463 -33.285  1.00  0.00    -0.054 NA
HETATM    9  C   UNL     1      -8.587   2.278 -33.711  1.00  0.00     0.203 A 
HETATM   10  C   UNL     1      -8.274   3.770 -33.539  1.00  0.00     0.062 A 
HETATM   11  H   UNL     1     -11.294   5.004 -33.225  1.00  0.00     0.184 HD
ENDROOT
BRANCH  10  12
HETATM   12  C   UNL     1      -6.822   4.101 -33.586  1.00  0.00     0.256 C 
HETATM   13  N   UNL     1      -6.289   4.289 -32.326  1.00  0.00    -0.323 N 
HETATM   14  H   UNL     1      -6.934   4.306 -31.549  1.00  0.00     0.169 HD
HETATM   15  O   UNL     1      -6.242   4.122 -34.660  1.00  0.00    -0.267 OA
BRANCH  13  16
HETATM   16  C   UNL     1      -4.930   4.405 -31.977  1.00  0.00     0.035 A 
HETATM   17  C   UNL     1      -4.285   5.617 -31.751  1.00  0.00     0.032 A 
HETATM   18  C   UNL     1      -2.913   5.641 -31.473  1.00  0.00     0.039 A 
HETATM   19  C   UNL     1      -2.173   4.458 -31.402  1.00  0.00     0.068 A 
HETATM   20  C   UNL     1      -2.820   3.243 -31.610  1.00  0.00     0.039 A 
HETATM   21  C   UNL     1      -4.188   3.219 -31.905  1.00  0.00     0.032 A 
BRANCH  19  22
HETATM   22  O   UNL     1      -0.843   4.625 -31.132  1.00  0.00    -0.356 OA
HETATM   23  C   UNL     1      -0.472   5.807 -30.433  1.00  0.00     0.210 C 
ENDBRANCH  19  22
ENDBRANCH  13  16
ENDBRANCH  10  12
BRANCH   9  24
HETATM   24  C   UNL     1      -7.769   1.336 -32.816  1.00  0.00    -0.017 A 
HETATM   25  C   UNL     1      -7.034   0.232 -33.362  1.00  0.00    -0.017 A 
HETATM   26  C   UNL     1      -6.233  -0.550 -32.488  1.00  0.00    -0.025 A 
HETATM   27  C   UNL     1      -7.052  -0.156 -34.727  1.00  0.00     0.013 A 
HETATM   28  C   UNL     1      -5.482  -1.630 -32.986  1.00  0.00     0.012 A 
HETATM   29  C   UNL     1      -6.194  -0.256 -31.120  1.00  0.00     0.012 A 
HETATM   30  C   UNL     1      -5.517  -1.971 -34.335  1.00  0.00     0.001 A 
HETATM   31  C   UNL     1      -6.308  -1.238 -35.204  1.00  0.00     0.001 A 
HETATM   32  C   UNL     1      -6.950   0.781 -30.587  1.00  0.00     0.002 A 
HETATM   33  C   UNL     1      -7.742   1.561 -31.423  1.00  0.00     0.010 A 
ENDBRANCH   9  24
TORSDOF 4
ENDMDL
MODEL 5
REMARK VINA RESULT:      -8.3     15.535     17.322
REMARK  4 active torsions:
REMARK  status: ('A' for Active; 'I' for Inactive)
REMARK    1  A    between atoms: C_9  and  C_10 
REMARK    2  A    between atoms: C_20  and  C_21 
REMARK       I    between atoms: C_21  and  N_22 
REMARK    3  A    between atoms: N_22  and  C_23 
REMARK    4  A    between atoms: C_26  and  O_27 
ROOT
HETATM    1  C   UNL     1      -4.673   3.132 -30.851  1.00  0.00     0.070 C 
HETATM    2  C   UNL     1      -6.118   3.476 -31.115  1.00  0.00     0.037 A 
HETATM    3  N   UNL     1      -6.703   4.340 -30.200  1.00  0.00    -0.192 N 
HETATM    4  C   UNL     1      -7.957   4.812 -30.321  1.00  0.00     0.725 A 
HETATM    5  N   UNL     1      -8.714   4.452 -31.405  1.00  0.00    -0.084 N 
HETATM    6  N   UNL     1      -9.899   5.102 -31.401  1.00  0.00    -0.149 NA
HETATM    7  C   UNL     1      -9.816   5.769 -30.246  1.00  0.00     0.275 A 
HETATM    8  N   UNL     1      -8.639   5.628 -29.559  1.00  0.00    -0.054 NA
HETATM    9  C   UNL     1      -8.238   3.582 -32.488  1.00  0.00     0.203 A 
HETATM   10  C   UNL     1      -6.833   3.046 -32.184  1.00  0.00     0.062 A 
HETATM   11  H   UNL     1      -6.137   4.667 -29.421  1.00  0.00     0.184 HD
ENDROOT
BRANCH  10  12
HETATM   12  C   UNL     1      -6.320   2.066 -33.182  1.00  0.00     0.256 C 
HETATM   13  N   UNL     1      -6.217   0.793 -32.657  1.00  0.00    -0.323 N 
HETATM   14  H   UNL     1      -6.371   0.689 -31.664  1.00  0.00     0.169 HD
HETATM   15  O   UNL     1      -6.102   2.429 -34.327  1.00  0.00    -0.267 OA
BRANCH  13  16
HETATM   16  C   UNL     1      -5.974  -0.406 -33.354  1.00  0.00     0.035 A 
HETATM   17  C   UNL     1      -6.955  -1.126 -34.029  1.00  0.00     0.032 A 
HETATM   18  C   UNL     1      -6.636  -2.344 -34.640  1.00  0.00     0.039 A 
HETATM   19  C   UNL     1      -5.334  -2.850 -34.598  1.00  0.00     0.068 A 
HETATM   20  C   UNL     1      -4.347  -2.123 -33.939  1.00  0.00     0.039 A 
HETATM   21  C   UNL     1      -4.669  -0.912 -33.313  1.00  0.00     0.032 A 
BRANCH  19  22
HETATM   22  O   UNL     1      -5.162  -4.052 -35.227  1.00  0.00    -0.356 OA
HETATM   23  C   UNL     1      -6.338  -4.787 -35.544  1.00  0.00     0.210 C 
ENDBRANCH  19  22
ENDBRANCH  13  16
ENDBRANCH  10  12
BRANCH   9  24
HETATM   24  C   UNL     1      -9.287   2.508 -32.807  1.00  0.00    -0.017 A 
HETATM   25  C   UNL     1     -10.267   2.697 -33.837  1.00  0.00    -0.017 A 
HETATM   26  C   UNL     1     -11.155   1.630 -34.135  1.00  0.00    -0.025 A 
HETATM   27  C   UNL     1     -10.430   3.890 -34.588  1.00  0.00     0.013 A 
HETATM   28  C   UNL     1     -12.118   1.768 -35.151  1.00  0.00     0.012 A 
HETATM   29  C   UNL     1     -11.084   0.434 -33.410  1.00  0.00     0.012 A 
HETATM   30  C   UNL     1     -12.239   2.951 -35.874  1.00  0.00     0.001 A 
HETATM   31  C   UNL     1     -11.398   4.014 -35.588  1.00  0.00     0.001 A 
HETATM   32  C   UNL     1     -10.169   0.276 -32.376  1.00  0.00     0.002 A 
HETATM   33  C   UNL     1      -9.289   1.306 -32.067  1.00  0.00     0.010 A 
ENDBRANCH   9  24
TORSDOF 4
ENDMDL
MODEL 6
REMARK VINA RESULT:      -8.0     15.747     17.913
REMARK  4 active torsions:
REMARK  status: ('A' for Active; 'I' for Inactive)
REMARK    1  A    between atoms: C_9  and  C_10 
REMARK    2  A    between atoms: C_20  and  C_21 
REMARK       I    between atoms: C_21  and  N_22 
REMARK    3  A    between atoms: N_22  and  C_23 
REMARK    4  A    between atoms: C_26  and  O_27 
ROOT
HETATM    1  C   UNL     1     -11.114   1.842 -34.484  1.00  0.00     0.070 C 
HETATM    2  C   UNL     1     -10.390   2.490 -33.330  1.00  0.00     0.037 A 
HETATM    3  N   UNL     1     -10.798   3.780 -33.017  1.00  0.00    -0.192 N 
HETATM    4  C   UNL     1     -10.316   4.479 -31.974  1.00  0.00     0.725 A 
HETATM    5  N   UNL     1      -9.383   3.907 -31.149  1.00  0.00    -0.084 N 
HETATM    6  N   UNL     1      -9.098   4.721 -30.109  1.00  0.00    -0.149 NA
HETATM    7  C   UNL     1      -9.834   5.794 -30.420  1.00  0.00     0.275 A 
HETATM    8  N   UNL     1     -10.603   5.682 -31.548  1.00  0.00    -0.054 NA
HETATM    9  C   UNL     1      -8.872   2.540 -31.309  1.00  0.00     0.203 A 
HETATM   10  C   UNL     1      -9.434   1.889 -32.579  1.00  0.00     0.062 A 
HETATM   11  H   UNL     1     -11.534   4.198 -33.580  1.00  0.00     0.184 HD
ENDROOT
BRANCH  10  12
HETATM   12  C   UNL     1      -8.878   0.538 -32.875  1.00  0.00     0.256 C 
HETATM   13  N   UNL     1      -7.697   0.606 -33.587  1.00  0.00    -0.323 N 
HETATM   14  H   UNL     1      -7.413   1.514 -33.926  1.00  0.00     0.169 HD
HETATM   15  O   UNL     1      -9.443  -0.454 -32.443  1.00  0.00    -0.267 OA
BRANCH  13  16
HETATM   16  C   UNL     1      -6.795  -0.442 -33.855  1.00  0.00     0.035 A 
HETATM   17  C   UNL     1      -7.106  -1.559 -34.624  1.00  0.00     0.032 A 
HETATM   18  C   UNL     1      -6.167  -2.585 -34.783  1.00  0.00     0.039 A 
HETATM   19  C   UNL     1      -4.904  -2.501 -34.192  1.00  0.00     0.068 A 
HETATM   20  C   UNL     1      -4.584  -1.376 -33.437  1.00  0.00     0.039 A 
HETATM   21  C   UNL     1      -5.528  -0.357 -33.263  1.00  0.00     0.032 A 
BRANCH  19  22
HETATM   22  O   UNL     1      -4.088  -3.575 -34.420  1.00  0.00    -0.356 OA
HETATM   23  C   UNL     1      -4.668  -4.866 -34.276  1.00  0.00     0.210 C 
ENDBRANCH  19  22
ENDBRANCH  13  16
ENDBRANCH  10  12
BRANCH   9  24
HETATM   24  C   UNL     1      -7.341   2.529 -31.197  1.00  0.00    -0.017 A 
HETATM   25  C   UNL     1      -6.518   3.305 -32.078  1.00  0.00    -0.017 A 
HETATM   26  C   UNL     1      -5.114   3.312 -31.867  1.00  0.00    -0.025 A 
HETATM   27  C   UNL     1      -7.001   4.071 -33.170  1.00  0.00     0.013 A 
HETATM   28  C   UNL     1      -4.273   4.075 -32.696  1.00  0.00     0.012 A 
HETATM   29  C   UNL     1      -4.555   2.549 -30.834  1.00  0.00     0.012 A 
HETATM   30  C   UNL     1      -4.786   4.824 -33.750  1.00  0.00     0.001 A 
HETATM   31  C   UNL     1      -6.151   4.817 -33.992  1.00  0.00     0.001 A 
HETATM   32  C   UNL     1      -5.352   1.756 -30.017  1.00  0.00     0.002 A 
HETATM   33  C   UNL     1      -6.729   1.733 -30.205  1.00  0.00     0.010 A 
ENDBRANCH   9  24
TORSDOF 4
ENDMDL
MODEL 7
REMARK VINA RESULT:      -7.9      3.089      5.178
REMARK  4 active torsions:
REMARK  status: ('A' for Active; 'I' for Inactive)
REMARK    1  A    between atoms: C_9  and  C_10 
REMARK    2  A    between atoms: C_20  and  C_21 
REMARK       I    between atoms: C_21  and  N_22 
REMARK    3  A    between atoms: N_22  and  C_23 
REMARK    4  A    between atoms: C_26  and  O_27 
ROOT
HETATM    1  C   UNL     1      -0.741 -13.545 -39.781  1.00  0.00     0.070 C 
HETATM    2  C   UNL     1      -1.093 -14.168 -38.453  1.00  0.00     0.037 A 
HETATM    3  N   UNL     1      -0.140 -15.029 -37.927  1.00  0.00    -0.192 N 
HETATM    4  C   UNL     1      -0.252 -15.614 -36.720  1.00  0.00     0.725 A 
HETATM    5  N   UNL     1      -1.347 -15.348 -35.939  1.00  0.00    -0.084 N 
HETATM    6  N   UNL     1      -1.231 -15.944 -34.732  1.00  0.00    -0.149 NA
HETATM    7  C   UNL     1      -0.085 -16.614 -34.890  1.00  0.00     0.275 A 
HETATM    8  N   UNL     1       0.552 -16.430 -36.089  1.00  0.00    -0.054 NA
HETATM    9  C   UNL     1      -2.427 -14.430 -36.322  1.00  0.00     0.203 A 
HETATM   10  C   UNL     1      -2.220 -13.904 -37.748  1.00  0.00     0.062 A 
HETATM   11  H   UNL     1       0.708 -15.191 -38.464  1.00  0.00     0.184 HD
ENDROOT
BRANCH  10  12
HETATM   12  C   UNL     1      -3.332 -13.051 -38.255  1.00  0.00     0.256 C 
HETATM   13  N   UNL     1      -4.285 -13.785 -38.932  1.00  0.00    -0.323 N 
HETATM   14  H   UNL     1      -4.077 -14.757 -39.114  1.00  0.00     0.169 HD
HETATM   15  O   UNL     1      -3.342 -11.857 -37.998  1.00  0.00    -0.267 OA
BRANCH  13  16
HETATM   16  C   UNL     1      -5.557 -13.356 -39.358  1.00  0.00     0.035 A 
HETATM   17  C   UNL     1      -5.842 -12.935 -40.653  1.00  0.00     0.032 A 
HETATM   18  C   UNL     1      -7.121 -12.462 -40.971  1.00  0.00     0.039 A 
HETATM   19  C   UNL     1      -8.132 -12.419 -40.007  1.00  0.00     0.068 A 
HETATM   20  C   UNL     1      -7.853 -12.857 -38.716  1.00  0.00     0.039 A 
HETATM   21  C   UNL     1      -6.570 -13.314 -38.392  1.00  0.00     0.032 A 
BRANCH  19  22
HETATM   22  O   UNL     1      -9.329 -11.927 -40.449  1.00  0.00    -0.356 OA
HETATM   23  C   UNL     1     -10.501 -12.619 -40.034  1.00  0.00     0.210 C 
ENDBRANCH  19  22
ENDBRANCH  13  16
ENDBRANCH  10  12
BRANCH   9  24
HETATM   24  C   UNL     1      -3.793 -15.079 -36.061  1.00  0.00    -0.017 A 
HETATM   25  C   UNL     1      -4.806 -14.415 -35.294  1.00  0.00    -0.017 A 
HETATM   26  C   UNL     1      -6.075 -15.037 -35.160  1.00  0.00    -0.025 A 
HETATM   27  C   UNL     1      -4.635 -13.169 -34.636  1.00  0.00     0.013 A 
HETATM   28  C   UNL     1      -7.102 -14.410 -34.432  1.00  0.00     0.012 A 
HETATM   29  C   UNL     1      -6.310 -16.286 -35.747  1.00  0.00     0.012 A 
HETATM   30  C   UNL     1      -6.900 -13.182 -33.810  1.00  0.00     0.001 A 
HETATM   31  C   UNL     1      -5.663 -12.564 -33.907  1.00  0.00     0.001 A 
HETATM   32  C   UNL     1      -5.308 -16.951 -36.443  1.00  0.00     0.002 A 
HETATM   33  C   UNL     1      -4.057 -16.361 -36.588  1.00  0.00     0.010 A 
ENDBRANCH   9  24
TORSDOF 4
ENDMDL
MODEL 8
REMARK VINA RESULT:      -7.6     16.647     18.626
REMARK  4 active torsions:
REMARK  status: ('A' for Active; 'I' for Inactive)
REMARK    1  A    between atoms: C_9  and  C_10 
REMARK    2  A    between atoms: C_20  and  C_21 
REMARK       I    between atoms: C_21  and  N_22 
REMARK    3  A    between atoms: N_22  and  C_23 
REMARK    4  A    between atoms: C_26  and  O_27 
ROOT
HETATM    1  C   UNL     1      -7.224   5.049 -32.751  1.00  0.00     0.070 C 
HETATM    2  C   UNL     1      -8.538   5.037 -33.492  1.00  0.00     0.037 A 
HETATM    3  N   UNL     1      -9.039   6.285 -33.840  1.00  0.00    -0.192 N 
HETATM    4  C   UNL     1     -10.157   6.461 -34.566  1.00  0.00     0.725 A 
HETATM    5  N   UNL     1     -10.850   5.367 -35.017  1.00  0.00    -0.084 N 
HETATM    6  N   UNL     1     -11.880   5.743 -35.807  1.00  0.00    -0.149 NA
HETATM    7  C   UNL     1     -11.792   7.074 -35.719  1.00  0.00     0.275 A 
HETATM    8  N   UNL     1     -10.745   7.555 -34.978  1.00  0.00    -0.054 NA
HETATM    9  C   UNL     1     -10.439   3.978 -34.778  1.00  0.00     0.203 A 
HETATM   10  C   UNL     1      -9.206   3.919 -33.868  1.00  0.00     0.062 A 
HETATM   11  H   UNL     1      -8.506   7.107 -33.568  1.00  0.00     0.184 HD
ENDROOT
BRANCH  10  12
HETATM   12  C   UNL     1      -8.790   2.540 -33.486  1.00  0.00     0.256 C 
HETATM   13  N   UNL     1      -7.938   1.976 -34.416  1.00  0.00    -0.323 N 
HETATM   14  H   UNL     1      -7.793   2.484 -35.278  1.00  0.00     0.169 HD
HETATM   15  O   UNL     1      -9.163   2.069 -32.424  1.00  0.00    -0.267 OA
BRANCH  13  16
HETATM   16  C   UNL     1      -7.189   0.791 -34.287  1.00  0.00     0.035 A 
HETATM   17  C   UNL     1      -6.065   0.665 -33.477  1.00  0.00     0.032 A 
HETATM   18  C   UNL     1      -5.343  -0.534 -33.461  1.00  0.00     0.039 A 
HETATM   19  C   UNL     1      -5.742  -1.625 -34.239  1.00  0.00     0.068 A 
HETATM   20  C   UNL     1      -6.877  -1.507 -35.036  1.00  0.00     0.039 A 
HETATM   21  C   UNL     1      -7.590  -0.302 -35.066  1.00  0.00     0.032 A 
BRANCH  19  22
HETATM   22  O   UNL     1      -4.943  -2.730 -34.136  1.00  0.00    -0.356 OA
HETATM   23  C   UNL     1      -5.418  -3.926 -34.741  1.00  0.00     0.210 C 
ENDBRANCH  19  22
ENDBRANCH  13  16
ENDBRANCH  10  12
BRANCH   9  24
HETATM   24  C   UNL     1     -11.637   3.144 -34.302  1.00  0.00    -0.017 A 
HETATM   25  C   UNL     1     -12.359   3.478 -33.109  1.00  0.00    -0.017 A 
HETATM   26  C   UNL     1     -13.506   2.714 -32.771  1.00  0.00    -0.025 A 
HETATM   27  C   UNL     1     -12.005   4.523 -32.217  1.00  0.00     0.013 A 
HETATM   28  C   UNL     1     -14.252   3.021 -31.619  1.00  0.00     0.012 A 
HETATM   29  C   UNL     1     -13.897   1.640 -33.579  1.00  0.00     0.012 A 
HETATM   30  C   UNL     1     -13.880   4.062 -30.775  1.00  0.00     0.001 A 
HETATM   31  C   UNL     1     -12.752   4.810 -31.070  1.00  0.00     0.001 A 
HETATM   32  C   UNL     1     -13.163   1.285 -34.705  1.00  0.00     0.002 A 
HETATM   33  C   UNL     1     -12.036   2.020 -35.056  1.00  0.00     0.010 A 
ENDBRANCH   9  24
TORSDOF 4
ENDMDL
MODEL 9
REMARK VINA RESULT:      -7.5     16.904     18.668
REMARK  4 active torsions:
REMARK  status: ('A' for Active; 'I' for Inactive)
REMARK    1  A    between atoms: C_9  and  C_10 
REMARK    2  A    between atoms: C_20  and  C_21 
REMARK       I    between atoms: C_21  and  N_22 
REMARK    3  A    between atoms: N_22  and  C_23 
REMARK    4  A    between atoms: C_26  and  O_27 
ROOT
HETATM    1  C   UNL     1      -2.960   3.323 -31.596  1.00  0.00     0.070 C 
HETATM    2  C   UNL     1      -4.208   4.143 -31.386  1.00  0.00     0.037 A 
HETATM    3  N   UNL     1      -4.119   5.128 -30.412  1.00  0.00    -0.192 N 
HETATM    4  C   UNL     1      -5.108   6.000 -30.144  1.00  0.00     0.725 A 
HETATM    5  N   UNL     1      -6.271   5.947 -30.867  1.00  0.00    -0.084 N 
HETATM    6  N   UNL     1      -7.098   6.958 -30.522  1.00  0.00    -0.149 NA
HETATM    7  C   UNL     1      -6.401   7.527 -29.533  1.00  0.00     0.275 A 
HETATM    8  N   UNL     1      -5.173   6.977 -29.277  1.00  0.00    -0.054 NA
HETATM    9  C   UNL     1      -6.517   4.997 -31.960  1.00  0.00     0.203 A 
HETATM   10  C   UNL     1      -5.352   4.009 -32.102  1.00  0.00     0.062 A 
HETATM   11  H   UNL     1      -3.242   5.223 -29.907  1.00  0.00     0.184 HD
ENDROOT
BRANCH  10  12
HETATM   12  C   UNL     1      -5.572   2.942 -33.117  1.00  0.00     0.256 C 
HETATM   13  N   UNL     1      -5.530   1.678 -32.562  1.00  0.00    -0.323 N 
HETATM   14  H   UNL     1      -5.242   1.607 -31.596  1.00  0.00     0.169 HD
HETATM   15  O   UNL     1      -5.815   3.249 -34.273  1.00  0.00    -0.267 OA
BRANCH  13  16
HETATM   16  C   UNL     1      -5.898   0.461 -33.167  1.00  0.00     0.035 A 
HETATM   17  C   UNL     1      -7.201   0.136 -33.531  1.00  0.00     0.032 A 
HETATM   18  C   UNL     1      -7.485  -1.125 -34.069  1.00  0.00     0.039 A 
HETATM   19  C   UNL     1      -6.473  -2.069 -34.263  1.00  0.00     0.068 A 
HETATM   20  C   UNL     1      -5.166  -1.739 -33.917  1.00  0.00     0.039 A 
HETATM   21  C   UNL     1      -4.882  -0.484 -33.364  1.00  0.00     0.032 A 
BRANCH  19  22
HETATM   22  O   UNL     1      -6.889  -3.262 -34.787  1.00  0.00    -0.356 OA
HETATM   23  C   UNL     1      -5.899  -4.267 -34.965  1.00  0.00     0.210 C 
ENDBRANCH  19  22
ENDBRANCH  13  16
ENDBRANCH  10  12
BRANCH   9  24
HETATM   24  C   UNL     1      -7.900   4.350 -31.800  1.00  0.00    -0.017 A 
HETATM   25  C   UNL     1      -8.905   4.463 -32.817  1.00  0.00    -0.017 A 
HETATM   26  C   UNL     1     -10.132   3.772 -32.640  1.00  0.00    -0.025 A 
HETATM   27  C   UNL     1      -8.772   5.232 -34.002  1.00  0.00     0.013 A 
HETATM   28  C   UNL     1     -11.136   3.841 -33.623  1.00  0.00     0.012 A 
HETATM   29  C   UNL     1     -10.355   3.023 -31.479  1.00  0.00     0.012 A 
HETATM   30  C   UNL     1     -10.963   4.597 -34.778  1.00  0.00     0.001 A 
HETATM   31  C   UNL     1      -9.783   5.299 -34.965  1.00  0.00     0.001 A 
HETATM   32  C   UNL     1      -9.400   2.961 -30.471  1.00  0.00     0.002 A 
HETATM   33  C   UNL     1      -8.191   3.629 -30.622  1.00  0.00     0.010 A 
ENDBRANCH   9  24
TORSDOF 4
ENDMDL
MODEL 10
REMARK VINA RESULT:      -7.4     17.389     19.544
REMARK  4 active torsions:
REMARK  status: ('A' for Active; 'I' for Inactive)
REMARK    1  A    between atoms: C_9  and  C_10 
REMARK    2  A    between atoms: C_20  and  C_21 
REMARK       I    between atoms: C_21  and  N_22 
REMARK    3  A    between atoms: N_22  and  C_23 
REMARK    4  A    between atoms: C_26  and  O_27 
ROOT
HETATM    1  C   UNL     1      -8.959   2.674 -30.860  1.00  0.00     0.070 C 
HETATM    2  C   UNL     1      -8.052   3.853 -31.107  1.00  0.00     0.037 A 
HETATM    3  N   UNL     1      -8.664   5.098 -31.058  1.00  0.00    -0.192 N 
HETATM    4  C   UNL     1      -7.997   6.260 -31.180  1.00  0.00     0.725 A 
HETATM    5  N   UNL     1      -6.637   6.245 -31.344  1.00  0.00    -0.084 N 
HETATM    6  N   UNL     1      -6.139   7.501 -31.347  1.00  0.00    -0.149 NA
HETATM    7  C   UNL     1      -7.264   8.218 -31.262  1.00  0.00     0.275 A 
HETATM    8  N   UNL     1      -8.423   7.496 -31.147  1.00  0.00    -0.054 NA
HETATM    9  C   UNL     1      -5.826   5.021 -31.376  1.00  0.00     0.203 A 
HETATM   10  C   UNL     1      -6.714   3.772 -31.316  1.00  0.00     0.062 A 
HETATM   11  H   UNL     1      -9.664   5.132 -30.875  1.00  0.00     0.184 HD
ENDROOT
BRANCH  10  12
HETATM   12  C   UNL     1      -5.976   2.485 -31.454  1.00  0.00     0.256 C 
HETATM   13  N   UNL     1      -6.567   1.641 -32.374  1.00  0.00    -0.323 N 
HETATM   14  H   UNL     1      -7.466   1.918 -32.744  1.00  0.00     0.169 HD
HETATM   15  O   UNL     1      -4.942   2.313 -30.829  1.00  0.00    -0.267 OA
BRANCH  13  16
HETATM   16  C   UNL     1      -6.040   0.451 -32.910  1.00  0.00     0.035 A 
HETATM   17  C   UNL     1      -4.850  -0.133 -32.487  1.00  0.00     0.032 A 
HETATM   18  C   UNL     1      -4.368  -1.283 -33.123  1.00  0.00     0.039 A 
HETATM   19  C   UNL     1      -5.074  -1.872 -34.176  1.00  0.00     0.068 A 
HETATM   20  C   UNL     1      -6.273  -1.299 -34.589  1.00  0.00     0.039 A 
HETATM   21  C   UNL     1      -6.748  -0.139 -33.965  1.00  0.00     0.032 A 
BRANCH  19  22
HETATM   22  O   UNL     1      -4.487  -2.984 -34.713  1.00  0.00    -0.356 OA
HETATM   23  C   UNL     1      -3.908  -3.910 -33.801  1.00  0.00     0.210 C 
ENDBRANCH  19  22
ENDBRANCH  13  16
ENDBRANCH  10  12
BRANCH   9  24
HETATM   24  C   UNL     1      -4.846   5.064 -32.557  1.00  0.00    -0.017 A 
HETATM   25  C   UNL     1      -3.432   5.193 -32.356  1.00  0.00    -0.017 A 
HETATM   26  C   UNL     1      -2.577   5.143 -33.487  1.00  0.00    -0.025 A 
HETATM   27  C   UNL     1      -2.809   5.381 -31.095  1.00  0.00     0.013 A 
HETATM   28  C   UNL     1      -1.183   5.247 -33.332  1.00  0.00     0.012 A 
HETATM   29  C   UNL     1      -3.118   5.000 -34.771  1.00  0.00     0.012 A 
HETATM   30  C   UNL     1      -0.608   5.419 -32.076  1.00  0.00     0.001 A 
HETATM   31  C   UNL     1      -1.423   5.493 -30.957  1.00  0.00     0.001 A 
HETATM   32  C   UNL     1      -4.492   4.930 -34.966  1.00  0.00     0.002 A 
HETATM   33  C   UNL     1      -5.349   4.976 -33.872  1.00  0.00     0.010 A 
ENDBRANCH   9  24
TORSDOF 4
ENDMDL
