MODEL 1
REMARK VINA RESULT:      -7.5      0.000      0.000
REMARK  5 active torsions:
REMARK  status: ('A' for Active; 'I' for Inactive)
REMARK    1  A    between atoms: C_4  and  C_5 
REMARK    2  A    between atoms: C_5  and  N_6 
REMARK    3  A    between atoms: N_6  and  C_9 
REMARK    4  A    between atoms: C_12  and  O_13 
REMARK    5  A    between atoms: O_13  and  C_14 
ROOT
HETATM    1  C   UNL     1      -6.456  -0.526 -33.943  1.00  0.00     0.164 A 
HETATM    2  N   UNL     1      -5.265  -0.458 -33.313  1.00  0.00    -0.236 NA
HETATM    3  C   UNL     1      -4.489  -1.571 -33.364  1.00  0.00     0.142 A 
HETATM    4  C   UNL     1      -4.856  -2.746 -34.007  1.00  0.00     0.062 A 
HETATM    5  C   UNL     1      -3.981  -3.874 -34.018  1.00  0.00     0.101 C 
HETATM    6  N   UNL     1      -3.269  -4.789 -34.024  1.00  0.00    -0.191 NA
HETATM    7  C   UNL     1      -6.101  -2.785 -34.636  1.00  0.00     0.028 A 
HETATM    8  C   UNL     1      -6.917  -1.655 -34.602  1.00  0.00     0.059 A 
ENDROOT
BRANCH   1   9
HETATM    9  O   UNL     1      -7.304   0.561 -33.928  1.00  0.00    -0.329 OA
BRANCH   9  10
HETATM   10  C   UNL     1      -8.657   0.277 -33.549  1.00  0.00     0.130 C 
HETATM   11  C   UNL     1      -8.728   0.459 -32.025  1.00  0.00     0.034 C 
HETATM   12  C   UNL     1      -8.409   1.897 -31.605  1.00  0.00     0.035 C 
HETATM   13  C   UNL     1      -9.281   2.939 -32.314  1.00  0.00     0.186 C 
HETATM   14  C   UNL     1      -9.321   2.717 -33.830  1.00  0.00     0.035 C 
HETATM   15  C   UNL     1      -9.615   1.267 -34.227  1.00  0.00     0.034 C 
BRANCH  13  16
HETATM   16  N   UNL     1     -10.678   2.902 -31.782  1.00  0.00    -0.065 N 
HETATM   17  H   UNL     1     -10.735   3.089 -30.773  1.00  0.00     0.278 HD
HETATM   18  H   UNL     1     -11.073   1.949 -31.860  1.00  0.00     0.278 HD
BRANCH  16  19
HETATM   19  C   UNL     1     -11.686   3.789 -32.471  1.00  0.00     0.299 C 
BRANCH  19  20
HETATM   20  C   UNL     1     -12.994   3.078 -32.607  1.00  0.00     0.101 A 
HETATM   21  N   UNL     1     -13.204   2.140 -33.510  1.00  0.00    -0.249 NA
HETATM   22  C   UNL     1     -14.509   1.675 -33.396  1.00  0.00     0.038 A 
HETATM   23  C   UNL     1     -14.985   0.604 -34.312  1.00  0.00     0.071 C 
HETATM   24  C   UNL     1     -15.256   2.284 -32.403  1.00  0.00     0.078 A 
HETATM   25  S   UNL     1     -14.314   3.460 -31.589  1.00  0.00    -0.083 SA
ENDBRANCH  19  20
ENDBRANCH  16  19
ENDBRANCH  13  16
ENDBRANCH   9  10
ENDBRANCH   1   9
TORSDOF 5
ENDMDL
MODEL 2
REMARK VINA RESULT:      -7.4      6.132      8.537
REMARK  5 active torsions:
REMARK  status: ('A' for Active; 'I' for Inactive)
REMARK    1  A    between atoms: C_4  and  C_5 
REMARK    2  A    between atoms: C_5  and  N_6 
REMARK    3  A    between atoms: N_6  and  C_9 
REMARK    4  A    between atoms: C_12  and  O_13 
REMARK    5  A    between atoms: O_13  and  C_14 
ROOT
HETATM    1  C   UNL     1      -5.535   0.028 -33.582  1.00  0.00     0.164 A 
HETATM    2  N   UNL     1      -4.532  -0.866 -33.456  1.00  0.00    -0.236 NA
HETATM    3  C   UNL     1      -4.771  -2.114 -33.936  1.00  0.00     0.142 A 
HETATM    4  C   UNL     1      -5.966  -2.505 -34.524  1.00  0.00     0.062 A 
HETATM    5  C   UNL     1      -6.138  -3.837 -35.008  1.00  0.00     0.101 C 
HETATM    6  N   UNL     1      -6.275  -4.921 -35.397  1.00  0.00    -0.191 NA
HETATM    7  C   UNL     1      -6.985  -1.559 -34.624  1.00  0.00     0.028 A 
HETATM    8  C   UNL     1      -6.768  -0.269 -34.142  1.00  0.00     0.059 A 
ENDROOT
BRANCH   1   9
HETATM    9  O   UNL     1      -5.372   1.313 -33.109  1.00  0.00    -0.329 OA
BRANCH   9  10
HETATM   10  C   UNL     1      -4.551   1.437 -31.941  1.00  0.00     0.130 C 
HETATM   11  C   UNL     1      -3.348   2.301 -32.346  1.00  0.00     0.034 C 
HETATM   12  C   UNL     1      -3.774   3.708 -32.777  1.00  0.00     0.035 C 
HETATM   13  C   UNL     1      -4.627   4.428 -31.728  1.00  0.00     0.186 C 
HETATM   14  C   UNL     1      -5.775   3.547 -31.221  1.00  0.00     0.035 C 
HETATM   15  C   UNL     1      -5.331   2.137 -30.819  1.00  0.00     0.034 C 
BRANCH  13  16
HETATM   16  N   UNL     1      -3.785   4.845 -30.565  1.00  0.00    -0.065 N 
HETATM   17  H   UNL     1      -2.902   4.324 -30.494  1.00  0.00     0.278 HD
HETATM   18  H   UNL     1      -4.257   4.617 -29.673  1.00  0.00     0.278 HD
BRANCH  16  19
HETATM   19  C   UNL     1      -3.461   6.315 -30.459  1.00  0.00     0.299 C 
BRANCH  19  20
HETATM   20  C   UNL     1      -1.981   6.515 -30.382  1.00  0.00     0.101 A 
HETATM   21  N   UNL     1      -1.401   7.163 -29.392  1.00  0.00    -0.249 NA
HETATM   22  C   UNL     1      -0.027   7.191 -29.601  1.00  0.00     0.038 A 
HETATM   23  C   UNL     1       0.849   7.869 -28.609  1.00  0.00     0.071 C 
HETATM   24  C   UNL     1       0.394   6.559 -30.757  1.00  0.00     0.078 A 
HETATM   25  S   UNL     1      -0.947   5.913 -31.604  1.00  0.00    -0.083 SA
ENDBRANCH  19  20
ENDBRANCH  16  19
ENDBRANCH  13  16
ENDBRANCH   9  10
ENDBRANCH   1   9
TORSDOF 5
ENDMDL
MODEL 3
REMARK VINA RESULT:      -7.0      5.114      7.312
REMARK  5 active torsions:
REMARK  status: ('A' for Active; 'I' for Inactive)
REMARK    1  A    between atoms: C_4  and  C_5 
REMARK    2  A    between atoms: C_5  and  N_6 
REMARK    3  A    between atoms: N_6  and  C_9 
REMARK    4  A    between atoms: C_12  and  O_13 
REMARK    5  A    between atoms: O_13  and  C_14 
ROOT
HETATM    1  C   UNL     1      -5.787  -0.534 -32.956  1.00  0.00     0.164 A 
HETATM    2  N   UNL     1      -4.675  -1.266 -33.178  1.00  0.00    -0.236 NA
HETATM    3  C   UNL     1      -4.834  -2.406 -33.897  1.00  0.00     0.142 A 
HETATM    4  C   UNL     1      -6.053  -2.849 -34.393  1.00  0.00     0.062 A 
HETATM    5  C   UNL     1      -6.138  -4.060 -35.145  1.00  0.00     0.101 C 
HETATM    6  N   UNL     1      -6.203  -5.045 -35.753  1.00  0.00    -0.191 NA
HETATM    7  C   UNL     1      -7.184  -2.075 -34.133  1.00  0.00     0.028 A 
HETATM    8  C   UNL     1      -7.050  -0.897 -33.399  1.00  0.00     0.059 A 
ENDROOT
BRANCH   1   9
HETATM    9  O   UNL     1      -5.708   0.632 -32.225  1.00  0.00    -0.329 OA
BRANCH   9  10
HETATM   10  C   UNL     1      -5.022   1.713 -32.870  1.00  0.00     0.130 C 
HETATM   11  C   UNL     1      -6.105   2.704 -33.325  1.00  0.00     0.034 C 
HETATM   12  C   UNL     1      -6.888   3.278 -32.141  1.00  0.00     0.035 C 
HETATM   13  C   UNL     1      -5.990   3.912 -31.074  1.00  0.00     0.186 C 
HETATM   14  C   UNL     1      -4.831   2.990 -30.678  1.00  0.00     0.035 C 
HETATM   15  C   UNL     1      -4.077   2.407 -31.877  1.00  0.00     0.034 C 
BRANCH  13  16
HETATM   16  N   UNL     1      -5.431   5.209 -31.565  1.00  0.00    -0.065 N 
HETATM   17  H   UNL     1      -6.105   5.985 -31.526  1.00  0.00     0.278 HD
HETATM   18  H   UNL     1      -5.207   5.152 -32.572  1.00  0.00     0.278 HD
BRANCH  16  19
HETATM   19  C   UNL     1      -4.151   5.680 -30.917  1.00  0.00     0.299 C 
BRANCH  19  20
HETATM   20  C   UNL     1      -3.190   6.161 -31.957  1.00  0.00     0.101 A 
HETATM   21  N   UNL     1      -2.729   5.381 -32.914  1.00  0.00    -0.249 NA
HETATM   22  C   UNL     1      -1.855   6.105 -33.718  1.00  0.00     0.038 A 
HETATM   23  C   UNL     1      -1.203   5.435 -34.876  1.00  0.00     0.071 C 
HETATM   24  C   UNL     1      -1.678   7.423 -33.338  1.00  0.00     0.078 A 
HETATM   25  S   UNL     1      -2.621   7.773 -31.951  1.00  0.00    -0.083 SA
ENDBRANCH  19  20
ENDBRANCH  16  19
ENDBRANCH  13  16
ENDBRANCH   9  10
ENDBRANCH   1   9
TORSDOF 5
ENDMDL
MODEL 4
REMARK VINA RESULT:      -7.0      5.283      7.318
REMARK  5 active torsions:
REMARK  status: ('A' for Active; 'I' for Inactive)
REMARK    1  A    between atoms: C_4  and  C_5 
REMARK    2  A    between atoms: C_5  and  N_6 
REMARK    3  A    between atoms: N_6  and  C_9 
REMARK    4  A    between atoms: C_12  and  O_13 
REMARK    5  A    between atoms: O_13  and  C_14 
ROOT
HETATM    1  C   UNL     1      -5.454  -0.127 -33.288  1.00  0.00     0.164 A 
HETATM    2  N   UNL     1      -4.422  -0.993 -33.366  1.00  0.00    -0.236 NA
HETATM    3  C   UNL     1      -4.686  -2.199 -33.931  1.00  0.00     0.142 A 
HETATM    4  C   UNL     1      -5.933  -2.578 -34.409  1.00  0.00     0.062 A 
HETATM    5  C   UNL     1      -6.128  -3.866 -34.993  1.00  0.00     0.101 C 
HETATM    6  N   UNL     1      -6.285  -4.913 -35.465  1.00  0.00    -0.191 NA
HETATM    7  C   UNL     1      -6.980  -1.662 -34.300  1.00  0.00     0.028 A 
HETATM    8  C   UNL     1      -6.737  -0.415 -33.727  1.00  0.00     0.059 A 
ENDROOT
BRANCH   1   9
HETATM    9  O   UNL     1      -5.268   1.115 -32.719  1.00  0.00    -0.329 OA
BRANCH   9  10
HETATM   10  C   UNL     1      -4.778   1.103 -31.372  1.00  0.00     0.130 C 
HETATM   11  C   UNL     1      -3.857   2.326 -31.235  1.00  0.00     0.034 C 
HETATM   12  C   UNL     1      -4.614   3.640 -31.454  1.00  0.00     0.035 C 
HETATM   13  C   UNL     1      -5.843   3.785 -30.550  1.00  0.00     0.186 C 
HETATM   14  C   UNL     1      -6.727   2.532 -30.579  1.00  0.00     0.035 C 
HETATM   15  C   UNL     1      -5.947   1.229 -30.384  1.00  0.00     0.034 C 
BRANCH  13  16
HETATM   16  N   UNL     1      -5.426   4.051 -29.139  1.00  0.00    -0.065 N 
HETATM   17  H   UNL     1      -4.419   4.232 -29.039  1.00  0.00     0.278 HD
HETATM   18  H   UNL     1      -5.567   3.211 -28.553  1.00  0.00     0.278 HD
BRANCH  16  19
HETATM   19  C   UNL     1      -6.164   5.149 -28.413  1.00  0.00     0.299 C 
BRANCH  19  20
HETATM   20  C   UNL     1      -5.205   6.194 -27.941  1.00  0.00     0.101 A 
HETATM   21  N   UNL     1      -5.161   6.608 -26.690  1.00  0.00    -0.249 NA
HETATM   22  C   UNL     1      -4.179   7.583 -26.561  1.00  0.00     0.038 A 
HETATM   23  C   UNL     1      -3.938   8.205 -25.231  1.00  0.00     0.071 C 
HETATM   24  C   UNL     1      -3.504   7.883 -27.731  1.00  0.00     0.078 A 
HETATM   25  S   UNL     1      -4.102   6.929 -29.022  1.00  0.00    -0.083 SA
ENDBRANCH  19  20
ENDBRANCH  16  19
ENDBRANCH  13  16
ENDBRANCH   9  10
ENDBRANCH   1   9
TORSDOF 5
ENDMDL
MODEL 5
REMARK VINA RESULT:      -6.8      5.139      7.870
REMARK  5 active torsions:
REMARK  status: ('A' for Active; 'I' for Inactive)
REMARK    1  A    between atoms: C_4  and  C_5 
REMARK    2  A    between atoms: C_5  and  N_6 
REMARK    3  A    between atoms: N_6  and  C_9 
REMARK    4  A    between atoms: C_12  and  O_13 
REMARK    5  A    between atoms: O_13  and  C_14 
ROOT
HETATM    1  C   UNL     1      -3.919   3.986 -31.262  1.00  0.00     0.164 A 
HETATM    2  N   UNL     1      -4.630   5.115 -31.460  1.00  0.00    -0.236 NA
HETATM    3  C   UNL     1      -4.002   6.117 -32.127  1.00  0.00     0.142 A 
HETATM    4  C   UNL     1      -2.696   6.042 -32.591  1.00  0.00     0.062 A 
HETATM    5  C   UNL     1      -2.106   7.140 -33.287  1.00  0.00     0.101 C 
HETATM    6  N   UNL     1      -1.629   8.035 -33.850  1.00  0.00    -0.191 NA
HETATM    7  C   UNL     1      -1.986   4.865 -32.356  1.00  0.00     0.028 A 
HETATM    8  C   UNL     1      -2.607   3.818 -31.677  1.00  0.00     0.059 A 
ENDROOT
BRANCH   1   9
HETATM    9  O   UNL     1      -4.486   2.927 -30.585  1.00  0.00    -0.329 OA
BRANCH   9  10
HETATM   10  C   UNL     1      -4.343   1.649 -31.217  1.00  0.00     0.130 C 
HETATM   11  C   UNL     1      -5.075   0.637 -30.321  1.00  0.00     0.034 C 
HETATM   12  C   UNL     1      -6.571   0.948 -30.211  1.00  0.00     0.035 C 
HETATM   13  C   UNL     1      -7.264   1.064 -31.573  1.00  0.00     0.186 C 
HETATM   14  C   UNL     1      -6.496   1.982 -32.531  1.00  0.00     0.035 C 
HETATM   15  C   UNL     1      -4.998   1.670 -32.606  1.00  0.00     0.034 C 
BRANCH  13  16
HETATM   16  N   UNL     1      -7.407  -0.285 -32.203  1.00  0.00    -0.065 N 
HETATM   17  H   UNL     1      -8.289  -0.755 -31.965  1.00  0.00     0.278 HD
HETATM   18  H   UNL     1      -6.693  -0.936 -31.836  1.00  0.00     0.278 HD
BRANCH  16  19
HETATM   19  C   UNL     1      -7.244  -0.348 -33.702  1.00  0.00     0.299 C 
BRANCH  19  20
HETATM   20  C   UNL     1      -6.432  -1.544 -34.085  1.00  0.00     0.101 A 
HETATM   21  N   UNL     1      -6.952  -2.592 -34.694  1.00  0.00    -0.249 NA
HETATM   22  C   UNL     1      -5.958  -3.539 -34.910  1.00  0.00     0.038 A 
HETATM   23  C   UNL     1      -6.303  -4.817 -35.589  1.00  0.00     0.071 C 
HETATM   24  C   UNL     1      -4.704  -3.177 -34.452  1.00  0.00     0.078 A 
HETATM   25  S   UNL     1      -4.760  -1.622 -33.737  1.00  0.00    -0.083 SA
ENDBRANCH  19  20
ENDBRANCH  16  19
ENDBRANCH  13  16
ENDBRANCH   9  10
ENDBRANCH   1   9
TORSDOF 5
ENDMDL
MODEL 6
REMARK VINA RESULT:      -6.7      7.236      9.461
REMARK  5 active torsions:
REMARK  status: ('A' for Active; 'I' for Inactive)
REMARK    1  A    between atoms: C_4  and  C_5 
REMARK    2  A    between atoms: C_5  and  N_6 
REMARK    3  A    between atoms: N_6  and  C_9 
REMARK    4  A    between atoms: C_12  and  O_13 
REMARK    5  A    between atoms: O_13  and  C_14 
ROOT
HETATM    1  C   UNL     1      -1.914   6.475 -30.758  1.00  0.00     0.164 A 
HETATM    2  N   UNL     1      -2.298   7.128 -29.641  1.00  0.00    -0.236 NA
HETATM    3  C   UNL     1      -1.308   7.666 -28.884  1.00  0.00     0.142 A 
HETATM    4  C   UNL     1       0.043   7.570 -29.189  1.00  0.00     0.062 A 
HETATM    5  C   UNL     1       1.025   8.167 -28.342  1.00  0.00     0.101 C 
HETATM    6  N   UNL     1       1.821   8.651 -27.651  1.00  0.00    -0.191 NA
HETATM    7  C   UNL     1       0.405   6.876 -30.344  1.00  0.00     0.028 A 
HETATM    8  C   UNL     1      -0.591   6.316 -31.142  1.00  0.00     0.059 A 
ENDROOT
BRANCH   1   9
HETATM    9  O   UNL     1      -2.861   5.893 -31.574  1.00  0.00    -0.329 OA
BRANCH   9  10
HETATM   10  C   UNL     1      -2.489   4.630 -32.141  1.00  0.00     0.130 C 
HETATM   11  C   UNL     1      -3.124   3.551 -31.250  1.00  0.00     0.034 C 
HETATM   12  C   UNL     1      -4.653   3.638 -31.248  1.00  0.00     0.035 C 
HETATM   13  C   UNL     1      -5.261   3.605 -32.654  1.00  0.00     0.186 C 
HETATM   14  C   UNL     1      -4.572   4.595 -33.601  1.00  0.00     0.035 C 
HETATM   15  C   UNL     1      -3.043   4.508 -33.568  1.00  0.00     0.034 C 
BRANCH  13  16
HETATM   16  N   UNL     1      -5.160   2.230 -33.235  1.00  0.00    -0.065 N 
HETATM   17  H   UNL     1      -4.209   1.986 -33.540  1.00  0.00     0.278 HD
HETATM   18  H   UNL     1      -5.706   2.163 -34.110  1.00  0.00     0.278 HD
BRANCH  16  19
HETATM   19  C   UNL     1      -5.673   1.098 -32.379  1.00  0.00     0.299 C 
BRANCH  19  20
HETATM   20  C   UNL     1      -5.421  -0.215 -33.051  1.00  0.00     0.101 A 
HETATM   21  N   UNL     1      -6.390  -0.958 -33.547  1.00  0.00    -0.249 NA
HETATM   22  C   UNL     1      -5.849  -2.114 -34.097  1.00  0.00     0.038 A 
HETATM   23  C   UNL     1      -6.752  -3.116 -34.725  1.00  0.00     0.071 C 
HETATM   24  C   UNL     1      -4.473  -2.213 -33.997  1.00  0.00     0.078 A 
HETATM   25  S   UNL     1      -3.835  -0.836 -33.202  1.00  0.00    -0.083 SA
ENDBRANCH  19  20
ENDBRANCH  16  19
ENDBRANCH  13  16
ENDBRANCH   9  10
ENDBRANCH   1   9
TORSDOF 5
ENDMDL
MODEL 7
REMARK VINA RESULT:      -6.6     15.432     16.621
REMARK  5 active torsions:
REMARK  status: ('A' for Active; 'I' for Inactive)
REMARK    1  A    between atoms: C_4  and  C_5 
REMARK    2  A    between atoms: C_5  and  N_6 
REMARK    3  A    between atoms: N_6  and  C_9 
REMARK    4  A    between atoms: C_12  and  O_13 
REMARK    5  A    between atoms: O_13  and  C_14 
ROOT
HETATM    1  C   UNL     1      -2.798 -13.395 -39.453  1.00  0.00     0.164 A 
HETATM    2  N   UNL     1      -2.165 -14.066 -40.439  1.00  0.00    -0.236 NA
HETATM    3  C   UNL     1      -0.866 -14.391 -40.213  1.00  0.00     0.142 A 
HETATM    4  C   UNL     1      -0.175 -14.066 -39.054  1.00  0.00     0.062 A 
HETATM    5  C   UNL     1       1.192 -14.447 -38.890  1.00  0.00     0.101 C 
HETATM    6  N   UNL     1       2.302 -14.755 -38.761  1.00  0.00    -0.191 NA
HETATM    7  C   UNL     1      -0.856 -13.360 -38.062  1.00  0.00     0.028 A 
HETATM    8  C   UNL     1      -2.191 -13.016 -38.266  1.00  0.00     0.059 A 
ENDROOT
BRANCH   1   9
HETATM    9  O   UNL     1      -4.115 -13.022 -39.613  1.00  0.00    -0.329 OA
BRANCH   9  10
HETATM   10  C   UNL     1      -5.030 -14.097 -39.866  1.00  0.00     0.130 C 
HETATM   11  C   UNL     1      -5.630 -14.484 -38.505  1.00  0.00     0.034 C 
HETATM   12  C   UNL     1      -6.416 -13.330 -37.877  1.00  0.00     0.035 C 
HETATM   13  C   UNL     1      -7.498 -12.763 -38.802  1.00  0.00     0.186 C 
HETATM   14  C   UNL     1      -6.955 -12.469 -40.206  1.00  0.00     0.035 C 
HETATM   15  C   UNL     1      -6.151 -13.627 -40.805  1.00  0.00     0.034 C 
BRANCH  13  16
HETATM   16  N   UNL     1      -8.643 -13.719 -38.916  1.00  0.00    -0.065 N 
HETATM   17  H   UNL     1      -8.923 -14.128 -38.016  1.00  0.00     0.278 HD
HETATM   18  H   UNL     1      -8.371 -14.548 -39.470  1.00  0.00     0.278 HD
BRANCH  16  19
HETATM   19  C   UNL     1      -9.888 -13.201 -39.593  1.00  0.00     0.299 C 
BRANCH  19  20
HETATM   20  C   UNL     1     -10.436 -14.231 -40.528  1.00  0.00     0.101 A 
HETATM   21  N   UNL     1     -11.688 -14.223 -40.941  1.00  0.00    -0.249 NA
HETATM   22  C   UNL     1     -11.900 -15.303 -41.791  1.00  0.00     0.038 A 
HETATM   23  C   UNL     1     -13.246 -15.507 -42.391  1.00  0.00     0.071 C 
HETATM   24  C   UNL     1     -10.791 -16.105 -41.994  1.00  0.00     0.078 A 
HETATM   25  S   UNL     1      -9.453 -15.502 -41.112  1.00  0.00    -0.083 SA
ENDBRANCH  19  20
ENDBRANCH  16  19
ENDBRANCH  13  16
ENDBRANCH   9  10
ENDBRANCH   1   9
TORSDOF 5
ENDMDL
MODEL 8
REMARK VINA RESULT:      -6.5     15.125     17.128
REMARK  5 active torsions:
REMARK  status: ('A' for Active; 'I' for Inactive)
REMARK    1  A    between atoms: C_4  and  C_5 
REMARK    2  A    between atoms: C_5  and  N_6 
REMARK    3  A    between atoms: N_6  and  C_9 
REMARK    4  A    between atoms: C_12  and  O_13 
REMARK    5  A    between atoms: O_13  and  C_14 
ROOT
HETATM    1  C   UNL     1      -6.908 -14.010 -34.456  1.00  0.00     0.164 A 
HETATM    2  N   UNL     1      -7.176 -15.270 -34.055  1.00  0.00    -0.236 NA
HETATM    3  C   UNL     1      -6.650 -15.652 -32.864  1.00  0.00     0.142 A 
HETATM    4  C   UNL     1      -5.861 -14.834 -32.065  1.00  0.00     0.062 A 
HETATM    5  C   UNL     1      -5.346 -15.310 -30.821  1.00  0.00     0.101 C 
HETATM    6  N   UNL     1      -4.928 -15.700 -29.812  1.00  0.00    -0.191 NA
HETATM    7  C   UNL     1      -5.592 -13.543 -32.517  1.00  0.00     0.028 A 
HETATM    8  C   UNL     1      -6.122 -13.123 -33.735  1.00  0.00     0.059 A 
ENDROOT
BRANCH   1   9
HETATM    9  O   UNL     1      -7.400 -13.552 -35.660  1.00  0.00    -0.329 OA
BRANCH   9  10
HETATM   10  C   UNL     1      -7.294 -14.472 -36.754  1.00  0.00     0.130 C 
HETATM   11  C   UNL     1      -8.265 -13.972 -37.835  1.00  0.00     0.034 C 
HETATM   12  C   UNL     1      -7.884 -12.580 -38.347  1.00  0.00     0.035 C 
HETATM   13  C   UNL     1      -6.436 -12.494 -38.840  1.00  0.00     0.186 C 
HETATM   14  C   UNL     1      -5.449 -13.089 -37.828  1.00  0.00     0.035 C 
HETATM   15  C   UNL     1      -5.863 -14.470 -37.310  1.00  0.00     0.034 C 
BRANCH  13  16
HETATM   16  N   UNL     1      -6.284 -13.213 -40.143  1.00  0.00    -0.065 N 
HETATM   17  H   UNL     1      -7.177 -13.375 -40.626  1.00  0.00     0.278 HD
HETATM   18  H   UNL     1      -5.928 -14.172 -39.992  1.00  0.00     0.278 HD
BRANCH  16  19
HETATM   19  C   UNL     1      -5.327 -12.606 -41.140  1.00  0.00     0.299 C 
BRANCH  19  20
HETATM   20  C   UNL     1      -4.404 -13.653 -41.677  1.00  0.00     0.101 A 
HETATM   21  N   UNL     1      -4.496 -14.121 -42.906  1.00  0.00    -0.249 NA
HETATM   22  C   UNL     1      -3.512 -15.082 -43.108  1.00  0.00     0.038 A 
HETATM   23  C   UNL     1      -3.412 -15.758 -44.430  1.00  0.00     0.071 C 
HETATM   24  C   UNL     1      -2.701 -15.318 -42.013  1.00  0.00     0.078 A 
HETATM   25  S   UNL     1      -3.167 -14.320 -40.702  1.00  0.00    -0.083 SA
ENDBRANCH  19  20
ENDBRANCH  16  19
ENDBRANCH  13  16
ENDBRANCH   9  10
ENDBRANCH   1   9
TORSDOF 5
ENDMDL
MODEL 9
REMARK VINA RESULT:      -6.5      5.234      9.068
REMARK  5 active torsions:
REMARK  status: ('A' for Active; 'I' for Inactive)
REMARK    1  A    between atoms: C_4  and  C_5 
REMARK    2  A    between atoms: C_5  and  N_6 
REMARK    3  A    between atoms: N_6  and  C_9 
REMARK    4  A    between atoms: C_12  and  O_13 
REMARK    5  A    between atoms: O_13  and  C_14 
ROOT
HETATM    1  C   UNL     1      -9.073   1.696 -32.069  1.00  0.00     0.164 A 
HETATM    2  N   UNL     1      -9.491   0.482 -32.484  1.00  0.00    -0.236 NA
HETATM    3  C   UNL     1     -10.613   0.456 -33.247  1.00  0.00     0.142 A 
HETATM    4  C   UNL     1     -11.338   1.585 -33.602  1.00  0.00     0.062 A 
HETATM    5  C   UNL     1     -12.508   1.474 -34.412  1.00  0.00     0.101 C 
HETATM    6  N   UNL     1     -13.460   1.381 -35.068  1.00  0.00    -0.191 NA
HETATM    7  C   UNL     1     -10.885   2.823 -33.144  1.00  0.00     0.028 A 
HETATM    8  C   UNL     1      -9.734   2.880 -32.361  1.00  0.00     0.059 A 
ENDROOT
BRANCH   1   9
HETATM    9  O   UNL     1      -7.946   1.804 -31.282  1.00  0.00    -0.329 OA
BRANCH   9  10
HETATM   10  C   UNL     1      -6.792   1.105 -31.767  1.00  0.00     0.130 C 
HETATM   11  C   UNL     1      -6.266   1.915 -32.962  1.00  0.00     0.034 C 
HETATM   12  C   UNL     1      -5.829   3.324 -32.549  1.00  0.00     0.035 C 
HETATM   13  C   UNL     1      -4.812   3.329 -31.403  1.00  0.00     0.186 C 
HETATM   14  C   UNL     1      -5.258   2.438 -30.237  1.00  0.00     0.035 C 
HETATM   15  C   UNL     1      -5.714   1.043 -30.675  1.00  0.00     0.034 C 
BRANCH  13  16
HETATM   16  N   UNL     1      -3.476   2.862 -31.886  1.00  0.00    -0.065 N 
HETATM   17  H   UNL     1      -3.517   1.971 -32.398  1.00  0.00     0.278 HD
HETATM   18  H   UNL     1      -2.857   2.639 -31.089  1.00  0.00     0.278 HD
BRANCH  16  19
HETATM   19  C   UNL     1      -2.684   3.835 -32.724  1.00  0.00     0.299 C 
BRANCH  19  20
HETATM   20  C   UNL     1      -1.941   4.790 -31.844  1.00  0.00     0.101 A 
HETATM   21  N   UNL     1      -0.976   4.407 -31.032  1.00  0.00    -0.249 NA
HETATM   22  C   UNL     1      -0.486   5.511 -30.345  1.00  0.00     0.038 A 
HETATM   23  C   UNL     1       0.619   5.330 -29.365  1.00  0.00     0.071 C 
HETATM   24  C   UNL     1      -1.104   6.708 -30.657  1.00  0.00     0.078 A 
HETATM   25  S   UNL     1      -2.321   6.458 -31.836  1.00  0.00    -0.083 SA
ENDBRANCH  19  20
ENDBRANCH  16  19
ENDBRANCH  13  16
ENDBRANCH   9  10
ENDBRANCH   1   9
TORSDOF 5
ENDMDL
MODEL 10
REMARK VINA RESULT:      -6.4      6.024      9.273
REMARK  5 active torsions:
REMARK  status: ('A' for Active; 'I' for Inactive)
REMARK    1  A    between atoms: C_4  and  C_5 
REMARK    2  A    between atoms: C_5  and  N_6 
REMARK    3  A    between atoms: N_6  and  C_9 
REMARK    4  A    between atoms: C_12  and  O_13 
REMARK    5  A    between atoms: O_13  and  C_14 
ROOT
HETATM    1  C   UNL     1      -7.938   1.353 -33.167  1.00  0.00     0.164 A 
HETATM    2  N   UNL     1      -8.620   2.200 -33.966  1.00  0.00    -0.236 NA
HETATM    3  C   UNL     1      -9.949   1.961 -34.107  1.00  0.00     0.142 A 
HETATM    4  C   UNL     1     -10.619   0.911 -33.494  1.00  0.00     0.062 A 
HETATM    5  C   UNL     1     -12.021   0.729 -33.690  1.00  0.00     0.101 C 
HETATM    6  N   UNL     1     -13.160   0.583 -33.853  1.00  0.00    -0.191 NA
HETATM    7  C   UNL     1      -9.880   0.047 -32.686  1.00  0.00     0.028 A 
HETATM    8  C   UNL     1      -8.514   0.270 -32.521  1.00  0.00     0.059 A 
ENDROOT
BRANCH   1   9
HETATM    9  O   UNL     1      -6.582   1.525 -32.982  1.00  0.00    -0.329 OA
BRANCH   9  10
HETATM   10  C   UNL     1      -6.182   1.837 -31.641  1.00  0.00     0.130 C 
HETATM   11  C   UNL     1      -4.709   1.416 -31.520  1.00  0.00     0.034 C 
HETATM   12  C   UNL     1      -3.809   2.202 -32.479  1.00  0.00     0.035 C 
HETATM   13  C   UNL     1      -3.951   3.720 -32.332  1.00  0.00     0.186 C 
HETATM   14  C   UNL     1      -5.420   4.162 -32.337  1.00  0.00     0.035 C 
HETATM   15  C   UNL     1      -6.306   3.347 -31.390  1.00  0.00     0.034 C 
BRANCH  13  16
HETATM   16  N   UNL     1      -3.311   4.185 -31.063  1.00  0.00    -0.065 N 
HETATM   17  H   UNL     1      -2.364   3.810 -30.923  1.00  0.00     0.278 HD
HETATM   18  H   UNL     1      -3.824   3.823 -30.241  1.00  0.00     0.278 HD
BRANCH  16  19
HETATM   19  C   UNL     1      -3.250   5.677 -30.846  1.00  0.00     0.299 C 
BRANCH  19  20
HETATM   20  C   UNL     1      -1.830   6.122 -30.698  1.00  0.00     0.101 A 
HETATM   21  N   UNL     1      -1.404   6.806 -29.655  1.00  0.00    -0.249 NA
HETATM   22  C   UNL     1      -0.048   7.078 -29.804  1.00  0.00     0.038 A 
HETATM   23  C   UNL     1       0.664   7.843 -28.746  1.00  0.00     0.071 C 
HETATM   24  C   UNL     1       0.514   6.589 -30.969  1.00  0.00     0.078 A 
HETATM   25  S   UNL     1      -0.667   5.769 -31.901  1.00  0.00    -0.083 SA
ENDBRANCH  19  20
ENDBRANCH  16  19
ENDBRANCH  13  16
ENDBRANCH   9  10
ENDBRANCH   1   9
TORSDOF 5
ENDMDL
