MODEL 1
REMARK VINA RESULT:      -8.9      0.000      0.000
REMARK  7 active torsions:
REMARK  status: ('A' for Active; 'I' for Inactive)
REMARK    1  A    between atoms: N_3  and  C_4 
REMARK    2  A    between atoms: C_7  and  O_8 
REMARK    3  A    between atoms: C_14  and  C_15 
REMARK    4  A    between atoms: C_15  and  N_16 
REMARK       I    between atoms: N_16  and  C_17 
REMARK       I    between atoms: C_17  and  N_18 
REMARK    5  A    between atoms: N_18  and  C_19 
REMARK    6  A    between atoms: C_19  and  C_20 
REMARK    7  A    between atoms: C_20  and  C_21 
ROOT
HETATM    1  C   UNL     1      -7.891   0.169 -35.068  1.00  0.00     0.068 C 
HETATM    2  C   UNL     1      -7.867   0.816 -33.726  1.00  0.00     0.014 A 
HETATM    3  N   UNL     1      -8.977   1.352 -33.076  1.00  0.00    -0.319 N 
HETATM    4  C   UNL     1      -8.564   1.796 -31.819  1.00  0.00     0.021 A 
HETATM    5  C   UNL     1      -9.440   2.554 -30.873  1.00  0.00     0.069 C 
HETATM    6  C   UNL     1      -7.218   1.485 -31.656  1.00  0.00    -0.016 A 
HETATM    7  C   UNL     1      -6.787   0.898 -32.868  1.00  0.00     0.035 A 
ENDROOT
BRANCH   6   8
HETATM    8  C   UNL     1      -6.367   1.739 -30.458  1.00  0.00     0.165 C 
BRANCH   8   9
HETATM    9  N   UNL     1      -5.019   2.017 -30.894  1.00  0.00    -0.339 N 
HETATM   10  C   UNL     1      -4.056   1.107 -31.186  1.00  0.00     0.316 C 
HETATM   11  N   UNL     1      -4.482  -0.181 -31.323  1.00  0.00    -0.343 N 
HETATM   12  O   UNL     1      -2.885   1.456 -31.288  1.00  0.00    -0.248 OA
HETATM   13  H   UNL     1      -5.404  -0.269 -31.725  1.00  0.00     0.164 HD
HETATM   14  H   UNL     1      -4.652   2.945 -30.726  1.00  0.00     0.164 HD
BRANCH  11  15
HETATM   15  C   UNL     1      -3.543  -1.218 -31.714  1.00  0.00     0.129 C 
BRANCH  15  16
HETATM   16  C   UNL     1      -3.460  -1.390 -33.233  1.00  0.00     0.058 C 
BRANCH  16  17
HETATM   17  C   UNL     1      -4.252  -2.569 -33.755  1.00  0.00    -0.057 A 
HETATM   18  C   UNL     1      -5.479  -2.378 -34.405  1.00  0.00     0.007 A 
HETATM   19  C   UNL     1      -6.212  -3.472 -34.868  1.00  0.00     0.001 A 
HETATM   20  C   UNL     1      -5.724  -4.766 -34.693  1.00  0.00     0.000 A 
HETATM   21  C   UNL     1      -4.501  -4.966 -34.058  1.00  0.00     0.001 A 
HETATM   22  C   UNL     1      -3.768  -3.874 -33.591  1.00  0.00     0.007 A 
ENDBRANCH  16  17
ENDBRANCH  15  16
ENDBRANCH  11  15
ENDBRANCH   8   9
ENDBRANCH   6   8
BRANCH   3  23
HETATM   23  C   UNL     1     -10.304   1.415 -33.595  1.00  0.00     0.039 A 
HETATM   24  C   UNL     1     -11.216   0.392 -33.313  1.00  0.00     0.033 A 
HETATM   25  C   UNL     1     -12.514   0.454 -33.826  1.00  0.00     0.039 A 
HETATM   26  C   UNL     1     -12.920   1.530 -34.619  1.00  0.00     0.068 A 
HETATM   27  C   UNL     1     -12.009   2.549 -34.899  1.00  0.00     0.039 A 
HETATM   28  C   UNL     1     -10.706   2.493 -34.392  1.00  0.00     0.033 A 
BRANCH  26  29
HETATM   29  O   UNL     1     -14.215   1.463 -35.050  1.00  0.00    -0.356 OA
HETATM   30  C   UNL     1     -15.122   0.715 -34.250  1.00  0.00     0.210 C 
ENDBRANCH  26  29
ENDBRANCH   3  23
TORSDOF 7
ENDMDL
MODEL 2
REMARK VINA RESULT:      -8.8      6.047     10.271
REMARK  7 active torsions:
REMARK  status: ('A' for Active; 'I' for Inactive)
REMARK    1  A    between atoms: N_3  and  C_4 
REMARK    2  A    between atoms: C_7  and  O_8 
REMARK    3  A    between atoms: C_14  and  C_15 
REMARK    4  A    between atoms: C_15  and  N_16 
REMARK       I    between atoms: N_16  and  C_17 
REMARK       I    between atoms: C_17  and  N_18 
REMARK    5  A    between atoms: N_18  and  C_19 
REMARK    6  A    between atoms: C_19  and  C_20 
REMARK    7  A    between atoms: C_20  and  C_21 
ROOT
HETATM    1  C   UNL     1      -3.126   7.920 -28.978  1.00  0.00     0.068 C 
HETATM    2  C   UNL     1      -2.378   6.958 -29.838  1.00  0.00     0.014 A 
HETATM    3  N   UNL     1      -1.060   6.560 -29.630  1.00  0.00    -0.319 N 
HETATM    4  C   UNL     1      -0.746   5.602 -30.597  1.00  0.00     0.021 A 
HETATM    5  C   UNL     1       0.623   5.029 -30.789  1.00  0.00     0.069 C 
HETATM    6  C   UNL     1      -1.877   5.357 -31.366  1.00  0.00    -0.016 A 
HETATM    7  C   UNL     1      -2.884   6.233 -30.899  1.00  0.00     0.035 A 
ENDROOT
BRANCH   6   8
HETATM    8  C   UNL     1      -2.019   4.386 -32.489  1.00  0.00     0.165 C 
BRANCH   8   9
HETATM    9  N   UNL     1      -3.421   4.123 -32.705  1.00  0.00    -0.339 N 
HETATM   10  C   UNL     1      -4.061   2.937 -32.537  1.00  0.00     0.316 C 
HETATM   11  N   UNL     1      -3.362   1.981 -31.859  1.00  0.00    -0.343 N 
HETATM   12  O   UNL     1      -5.183   2.768 -32.998  1.00  0.00    -0.248 OA
HETATM   13  H   UNL     1      -2.765   2.345 -31.132  1.00  0.00     0.164 HD
HETATM   14  H   UNL     1      -3.941   4.777 -33.276  1.00  0.00     0.164 HD
BRANCH  11  15
HETATM   15  C   UNL     1      -3.988   0.706 -31.557  1.00  0.00     0.129 C 
BRANCH  15  16
HETATM   16  C   UNL     1      -3.521  -0.412 -32.493  1.00  0.00     0.058 C 
BRANCH  16  17
HETATM   17  C   UNL     1      -4.650  -1.103 -33.225  1.00  0.00    -0.057 A 
HETATM   18  C   UNL     1      -4.401  -2.208 -34.051  1.00  0.00     0.007 A 
HETATM   19  C   UNL     1      -5.445  -2.830 -34.737  1.00  0.00     0.001 A 
HETATM   20  C   UNL     1      -6.750  -2.359 -34.599  1.00  0.00     0.000 A 
HETATM   21  C   UNL     1      -7.011  -1.268 -33.773  1.00  0.00     0.001 A 
HETATM   22  C   UNL     1      -5.967  -0.643 -33.089  1.00  0.00     0.007 A 
ENDBRANCH  16  17
ENDBRANCH  15  16
ENDBRANCH  11  15
ENDBRANCH   8   9
ENDBRANCH   6   8
BRANCH   3  23
HETATM   23  C   UNL     1      -0.192   7.030 -28.601  1.00  0.00     0.039 A 
HETATM   24  C   UNL     1      -0.248   6.460 -27.324  1.00  0.00     0.033 A 
HETATM   25  C   UNL     1       0.600   6.926 -26.316  1.00  0.00     0.039 A 
HETATM   26  C   UNL     1       1.511   7.954 -26.565  1.00  0.00     0.068 A 
HETATM   27  C   UNL     1       1.566   8.521 -27.838  1.00  0.00     0.039 A 
HETATM   28  C   UNL     1       0.717   8.063 -28.853  1.00  0.00     0.033 A 
BRANCH  26  29
HETATM   29  O   UNL     1       2.279   8.308 -25.490  1.00  0.00    -0.356 OA
HETATM   30  C   UNL     1       1.742   9.288 -24.610  1.00  0.00     0.210 C 
ENDBRANCH  26  29
ENDBRANCH   3  23
TORSDOF 7
ENDMDL
MODEL 3
REMARK VINA RESULT:      -8.4      6.562     10.837
REMARK  7 active torsions:
REMARK  status: ('A' for Active; 'I' for Inactive)
REMARK    1  A    between atoms: N_3  and  C_4 
REMARK    2  A    between atoms: C_7  and  O_8 
REMARK    3  A    between atoms: C_14  and  C_15 
REMARK    4  A    between atoms: C_15  and  N_16 
REMARK       I    between atoms: N_16  and  C_17 
REMARK       I    between atoms: C_17  and  N_18 
REMARK    5  A    between atoms: N_18  and  C_19 
REMARK    6  A    between atoms: C_19  and  C_20 
REMARK    7  A    between atoms: C_20  and  C_21 
ROOT
HETATM    1  C   UNL     1      -2.487   8.900 -29.464  1.00  0.00     0.068 C 
HETATM    2  C   UNL     1      -1.905   7.678 -30.088  1.00  0.00     0.014 A 
HETATM    3  N   UNL     1      -0.798   6.984 -29.605  1.00  0.00    -0.319 N 
HETATM    4  C   UNL     1      -0.610   5.862 -30.415  1.00  0.00     0.021 A 
HETATM    5  C   UNL     1       0.561   4.937 -30.299  1.00  0.00     0.069 C 
HETATM    6  C   UNL     1      -1.627   5.819 -31.361  1.00  0.00    -0.016 A 
HETATM    7  C   UNL     1      -2.415   6.978 -31.164  1.00  0.00     0.035 A 
ENDROOT
BRANCH   6   8
HETATM    8  C   UNL     1      -1.849   4.782 -32.410  1.00  0.00     0.165 C 
BRANCH   8   9
HETATM    9  N   UNL     1      -2.417   5.413 -33.577  1.00  0.00    -0.339 N 
HETATM   10  C   UNL     1      -3.571   5.071 -34.205  1.00  0.00     0.316 C 
HETATM   11  N   UNL     1      -4.388   4.223 -33.517  1.00  0.00    -0.343 N 
HETATM   12  O   UNL     1      -3.815   5.499 -35.328  1.00  0.00    -0.248 OA
HETATM   13  H   UNL     1      -4.374   4.358 -32.517  1.00  0.00     0.164 HD
HETATM   14  H   UNL     1      -1.806   5.981 -34.150  1.00  0.00     0.164 HD
BRANCH  11  15
HETATM   15  C   UNL     1      -5.682   3.859 -34.067  1.00  0.00     0.129 C 
BRANCH  15  16
HETATM   16  C   UNL     1      -6.431   2.855 -33.187  1.00  0.00     0.058 C 
BRANCH  16  17
HETATM   17  C   UNL     1      -6.464   1.454 -33.757  1.00  0.00    -0.057 A 
HETATM   18  C   UNL     1      -7.397   1.100 -34.741  1.00  0.00     0.007 A 
HETATM   19  C   UNL     1      -7.433  -0.199 -35.249  1.00  0.00     0.001 A 
HETATM   20  C   UNL     1      -6.533  -1.156 -34.785  1.00  0.00     0.000 A 
HETATM   21  C   UNL     1      -5.593  -0.814 -33.815  1.00  0.00     0.001 A 
HETATM   22  C   UNL     1      -5.558   0.484 -33.303  1.00  0.00     0.007 A 
ENDBRANCH  16  17
ENDBRANCH  15  16
ENDBRANCH  11  15
ENDBRANCH   8   9
ENDBRANCH   6   8
BRANCH   3  23
HETATM   23  C   UNL     1      -0.010   7.343 -28.471  1.00  0.00     0.039 A 
HETATM   24  C   UNL     1      -0.273   6.764 -27.224  1.00  0.00     0.033 A 
HETATM   25  C   UNL     1       0.496   7.121 -26.114  1.00  0.00     0.039 A 
HETATM   26  C   UNL     1       1.534   8.049 -26.231  1.00  0.00     0.068 A 
HETATM   27  C   UNL     1       1.795   8.624 -27.475  1.00  0.00     0.039 A 
HETATM   28  C   UNL     1       1.025   8.275 -28.591  1.00  0.00     0.033 A 
BRANCH  26  29
HETATM   29  O   UNL     1       2.205   8.302 -25.067  1.00  0.00    -0.356 OA
HETATM   30  C   UNL     1       2.349   9.666 -24.691  1.00  0.00     0.210 C 
ENDBRANCH  26  29
ENDBRANCH   3  23
TORSDOF 7
ENDMDL
MODEL 4
REMARK VINA RESULT:      -8.4      6.042     10.227
REMARK  7 active torsions:
REMARK  status: ('A' for Active; 'I' for Inactive)
REMARK    1  A    between atoms: N_3  and  C_4 
REMARK    2  A    between atoms: C_7  and  O_8 
REMARK    3  A    between atoms: C_14  and  C_15 
REMARK    4  A    between atoms: C_15  and  N_16 
REMARK       I    between atoms: N_16  and  C_17 
REMARK       I    between atoms: C_17  and  N_18 
REMARK    5  A    between atoms: N_18  and  C_19 
REMARK    6  A    between atoms: C_19  and  C_20 
REMARK    7  A    between atoms: C_20  and  C_21 
ROOT
HETATM    1  C   UNL     1       1.109   4.840 -30.794  1.00  0.00     0.068 C 
HETATM    2  C   UNL     1      -0.301   5.311 -30.688  1.00  0.00     0.014 A 
HETATM    3  N   UNL     1      -0.771   6.224 -29.747  1.00  0.00    -0.319 N 
HETATM    4  C   UNL     1      -2.120   6.463 -30.019  1.00  0.00     0.021 A 
HETATM    5  C   UNL     1      -3.013   7.286 -29.145  1.00  0.00     0.069 C 
HETATM    6  C   UNL     1      -2.478   5.753 -31.159  1.00  0.00    -0.016 A 
HETATM    7  C   UNL     1      -1.338   5.013 -31.552  1.00  0.00     0.035 A 
ENDROOT
BRANCH   6   8
HETATM    8  C   UNL     1      -3.806   5.734 -31.837  1.00  0.00     0.165 C 
BRANCH   8   9
HETATM    9  N   UNL     1      -4.735   4.986 -31.024  1.00  0.00    -0.339 N 
HETATM   10  C   UNL     1      -5.418   3.871 -31.387  1.00  0.00     0.316 C 
HETATM   11  N   UNL     1      -4.991   3.264 -32.532  1.00  0.00    -0.343 N 
HETATM   12  O   UNL     1      -6.367   3.480 -30.717  1.00  0.00    -0.248 OA
HETATM   13  H   UNL     1      -3.994   3.322 -32.681  1.00  0.00     0.164 HD
HETATM   14  H   UNL     1      -5.129   5.448 -30.215  1.00  0.00     0.164 HD
BRANCH  11  15
HETATM   15  C   UNL     1      -5.603   2.020 -32.963  1.00  0.00     0.129 C 
BRANCH  15  16
HETATM   16  C   UNL     1      -4.684   0.813 -32.756  1.00  0.00     0.058 C 
BRANCH  16  17
HETATM   17  C   UNL     1      -5.164  -0.443 -33.450  1.00  0.00    -0.057 A 
HETATM   18  C   UNL     1      -4.330  -1.564 -33.564  1.00  0.00     0.007 A 
HETATM   19  C   UNL     1      -4.774  -2.712 -34.222  1.00  0.00     0.001 A 
HETATM   20  C   UNL     1      -6.057  -2.755 -34.765  1.00  0.00     0.000 A 
HETATM   21  C   UNL     1      -6.899  -1.651 -34.647  1.00  0.00     0.001 A 
HETATM   22  C   UNL     1      -6.455  -0.500 -33.993  1.00  0.00     0.007 A 
ENDBRANCH  16  17
ENDBRANCH  15  16
ENDBRANCH  11  15
ENDBRANCH   8   9
ENDBRANCH   6   8
BRANCH   3  23
HETATM   23  C   UNL     1      -0.005   6.825 -28.705  1.00  0.00     0.039 A 
HETATM   24  C   UNL     1      -0.045   6.293 -27.411  1.00  0.00     0.033 A 
HETATM   25  C   UNL     1       0.702   6.886 -26.390  1.00  0.00     0.039 A 
HETATM   26  C   UNL     1       1.497   8.006 -26.644  1.00  0.00     0.068 A 
HETATM   27  C   UNL     1       1.537   8.535 -27.934  1.00  0.00     0.039 A 
HETATM   28  C   UNL     1       0.787   7.948 -28.961  1.00  0.00     0.033 A 
BRANCH  26  29
HETATM   29  O   UNL     1       2.175   8.481 -25.556  1.00  0.00    -0.356 OA
HETATM   30  C   UNL     1       1.523   9.473 -24.773  1.00  0.00     0.210 C 
ENDBRANCH  26  29
ENDBRANCH   3  23
TORSDOF 7
ENDMDL
MODEL 5
REMARK VINA RESULT:      -8.3      5.134      8.413
REMARK  7 active torsions:
REMARK  status: ('A' for Active; 'I' for Inactive)
REMARK    1  A    between atoms: N_3  and  C_4 
REMARK    2  A    between atoms: C_7  and  O_8 
REMARK    3  A    between atoms: C_14  and  C_15 
REMARK    4  A    between atoms: C_15  and  N_16 
REMARK       I    between atoms: N_16  and  C_17 
REMARK       I    between atoms: C_17  and  N_18 
REMARK    5  A    between atoms: N_18  and  C_19 
REMARK    6  A    between atoms: C_19  and  C_20 
REMARK    7  A    between atoms: C_20  and  C_21 
ROOT
HETATM    1  C   UNL     1      -0.441   5.450 -31.916  1.00  0.00     0.068 C 
HETATM    2  C   UNL     1      -1.876   5.121 -31.682  1.00  0.00     0.014 A 
HETATM    3  N   UNL     1      -2.783   5.935 -31.009  1.00  0.00    -0.319 N 
HETATM    4  C   UNL     1      -4.034   5.317 -31.063  1.00  0.00     0.021 A 
HETATM    5  C   UNL     1      -5.243   5.817 -30.337  1.00  0.00     0.069 C 
HETATM    6  C   UNL     1      -3.925   4.154 -31.817  1.00  0.00    -0.016 A 
HETATM    7  C   UNL     1      -2.562   4.028 -32.175  1.00  0.00     0.035 A 
ENDROOT
BRANCH   6   8
HETATM    8  C   UNL     1      -5.011   3.195 -32.169  1.00  0.00     0.165 C 
BRANCH   8   9
HETATM    9  N   UNL     1      -4.596   1.863 -31.798  1.00  0.00    -0.339 N 
HETATM   10  C   UNL     1      -5.270   0.708 -32.029  1.00  0.00     0.316 C 
HETATM   11  N   UNL     1      -6.305   0.796 -32.914  1.00  0.00    -0.343 N 
HETATM   12  O   UNL     1      -4.955  -0.321 -31.443  1.00  0.00    -0.248 OA
HETATM   13  H   UNL     1      -6.151   1.454 -33.664  1.00  0.00     0.164 HD
HETATM   14  H   UNL     1      -3.888   1.773 -31.082  1.00  0.00     0.164 HD
BRANCH  11  15
HETATM   15  C   UNL     1      -7.039  -0.400 -33.291  1.00  0.00     0.129 C 
BRANCH  15  16
HETATM   16  C   UNL     1      -6.594  -0.956 -34.646  1.00  0.00     0.058 C 
BRANCH  16  17
HETATM   17  C   UNL     1      -5.994  -2.343 -34.566  1.00  0.00    -0.057 A 
HETATM   18  C   UNL     1      -4.674  -2.530 -34.132  1.00  0.00     0.007 A 
HETATM   19  C   UNL     1      -4.121  -3.811 -34.078  1.00  0.00     0.001 A 
HETATM   20  C   UNL     1      -4.883  -4.918 -34.449  1.00  0.00     0.000 A 
HETATM   21  C   UNL     1      -6.200  -4.744 -34.871  1.00  0.00     0.001 A 
HETATM   22  C   UNL     1      -6.753  -3.464 -34.930  1.00  0.00     0.007 A 
ENDBRANCH  16  17
ENDBRANCH  15  16
ENDBRANCH  11  15
ENDBRANCH   8   9
ENDBRANCH   6   8
BRANCH   3  23
HETATM   23  C   UNL     1      -2.491   7.188 -30.393  1.00  0.00     0.039 A 
HETATM   24  C   UNL     1      -2.047   7.229 -29.066  1.00  0.00     0.033 A 
HETATM   25  C   UNL     1      -1.766   8.458 -28.463  1.00  0.00     0.039 A 
HETATM   26  C   UNL     1      -1.919   9.653 -29.169  1.00  0.00     0.068 A 
HETATM   27  C   UNL     1      -2.362   9.610 -30.491  1.00  0.00     0.039 A 
HETATM   28  C   UNL     1      -2.649   8.383 -31.102  1.00  0.00     0.033 A 
BRANCH  26  29
HETATM   29  O   UNL     1      -1.607  10.778 -28.459  1.00  0.00    -0.356 OA
HETATM   30  C   UNL     1      -1.275  10.602 -27.087  1.00  0.00     0.210 C 
ENDBRANCH  26  29
ENDBRANCH   3  23
TORSDOF 7
ENDMDL
MODEL 6
REMARK VINA RESULT:      -8.3      1.515      2.162
REMARK  7 active torsions:
REMARK  status: ('A' for Active; 'I' for Inactive)
REMARK    1  A    between atoms: N_3  and  C_4 
REMARK    2  A    between atoms: C_7  and  O_8 
REMARK    3  A    between atoms: C_14  and  C_15 
REMARK    4  A    between atoms: C_15  and  N_16 
REMARK       I    between atoms: N_16  and  C_17 
REMARK       I    between atoms: C_17  and  N_18 
REMARK    5  A    between atoms: N_18  and  C_19 
REMARK    6  A    between atoms: C_19  and  C_20 
REMARK    7  A    between atoms: C_20  and  C_21 
ROOT
HETATM    1  C   UNL     1      -9.873   5.651 -32.806  1.00  0.00     0.068 C 
HETATM    2  C   UNL     1      -9.178   4.487 -32.184  1.00  0.00     0.014 A 
HETATM    3  N   UNL     1      -9.588   3.161 -32.293  1.00  0.00    -0.319 N 
HETATM    4  C   UNL     1      -8.643   2.367 -31.639  1.00  0.00     0.021 A 
HETATM    5  C   UNL     1      -8.799   0.895 -31.421  1.00  0.00     0.069 C 
HETATM    6  C   UNL     1      -7.616   3.183 -31.178  1.00  0.00    -0.016 A 
HETATM    7  C   UNL     1      -7.978   4.512 -31.501  1.00  0.00     0.035 A 
ENDROOT
BRANCH   6   8
HETATM    8  C   UNL     1      -6.380   2.766 -30.455  1.00  0.00     0.165 C 
BRANCH   8   9
HETATM    9  N   UNL     1      -5.241   2.981 -31.315  1.00  0.00    -0.339 N 
HETATM   10  C   UNL     1      -4.603   2.048 -32.066  1.00  0.00     0.316 C 
HETATM   11  N   UNL     1      -5.257   0.860 -32.213  1.00  0.00    -0.343 N 
HETATM   12  O   UNL     1      -3.500   2.286 -32.544  1.00  0.00    -0.248 OA
HETATM   13  H   UNL     1      -6.262   0.946 -32.254  1.00  0.00     0.164 HD
HETATM   14  H   UNL     1      -4.691   3.817 -31.168  1.00  0.00     0.164 HD
BRANCH  11  15
HETATM   15  C   UNL     1      -4.697  -0.175 -33.063  1.00  0.00     0.129 C 
BRANCH  15  16
HETATM   16  C   UNL     1      -5.717  -0.729 -34.062  1.00  0.00     0.058 C 
BRANCH  16  17
HETATM   17  C   UNL     1      -5.602  -2.221 -34.285  1.00  0.00    -0.057 A 
HETATM   18  C   UNL     1      -6.706  -2.971 -34.711  1.00  0.00     0.007 A 
HETATM   19  C   UNL     1      -6.596  -4.350 -34.898  1.00  0.00     0.001 A 
HETATM   20  C   UNL     1      -5.381  -4.992 -34.667  1.00  0.00     0.000 A 
HETATM   21  C   UNL     1      -4.273  -4.255 -34.253  1.00  0.00     0.001 A 
HETATM   22  C   UNL     1      -4.382  -2.876 -34.063  1.00  0.00     0.007 A 
ENDBRANCH  16  17
ENDBRANCH  15  16
ENDBRANCH  11  15
ENDBRANCH   8   9
ENDBRANCH   6   8
BRANCH   3  23
HETATM   23  C   UNL     1     -10.753   2.694 -32.969  1.00  0.00     0.039 A 
HETATM   24  C   UNL     1     -10.631   2.010 -34.184  1.00  0.00     0.033 A 
HETATM   25  C   UNL     1     -11.775   1.558 -34.847  1.00  0.00     0.039 A 
HETATM   26  C   UNL     1     -13.046   1.776 -34.311  1.00  0.00     0.068 A 
HETATM   27  C   UNL     1     -13.166   2.458 -33.100  1.00  0.00     0.039 A 
HETATM   28  C   UNL     1     -12.025   2.917 -32.431  1.00  0.00     0.033 A 
BRANCH  26  29
HETATM   29  O   UNL     1     -14.074   1.279 -35.063  1.00  0.00    -0.356 OA
HETATM   30  C   UNL     1     -15.208   0.789 -34.359  1.00  0.00     0.210 C 
ENDBRANCH  26  29
ENDBRANCH   3  23
TORSDOF 7
ENDMDL
MODEL 7
REMARK VINA RESULT:      -8.2      3.969      7.115
REMARK  7 active torsions:
REMARK  status: ('A' for Active; 'I' for Inactive)
REMARK    1  A    between atoms: N_3  and  C_4 
REMARK    2  A    between atoms: C_7  and  O_8 
REMARK    3  A    between atoms: C_14  and  C_15 
REMARK    4  A    between atoms: C_15  and  N_16 
REMARK       I    between atoms: N_16  and  C_17 
REMARK       I    between atoms: C_17  and  N_18 
REMARK    5  A    between atoms: N_18  and  C_19 
REMARK    6  A    between atoms: C_19  and  C_20 
REMARK    7  A    between atoms: C_20  and  C_21 
ROOT
HETATM    1  C   UNL     1      -6.076   0.339 -29.687  1.00  0.00     0.068 C 
HETATM    2  C   UNL     1      -6.075   1.529 -30.586  1.00  0.00     0.014 A 
HETATM    3  N   UNL     1      -6.055   1.478 -31.978  1.00  0.00    -0.319 N 
HETATM    4  C   UNL     1      -6.136   2.788 -32.454  1.00  0.00     0.021 A 
HETATM    5  C   UNL     1      -6.008   3.159 -33.898  1.00  0.00     0.069 C 
HETATM    6  C   UNL     1      -6.269   3.650 -31.371  1.00  0.00    -0.016 A 
HETATM    7  C   UNL     1      -6.200   2.851 -30.205  1.00  0.00     0.035 A 
ENDROOT
BRANCH   6   8
HETATM    8  C   UNL     1      -6.424   5.132 -31.404  1.00  0.00     0.165 C 
BRANCH   8   9
HETATM    9  N   UNL     1      -6.219   5.653 -30.073  1.00  0.00    -0.339 N 
HETATM   10  C   UNL     1      -5.063   6.147 -29.563  1.00  0.00     0.316 C 
HETATM   11  N   UNL     1      -4.079   6.407 -30.472  1.00  0.00    -0.343 N 
HETATM   12  O   UNL     1      -4.939   6.312 -28.355  1.00  0.00    -0.248 OA
HETATM   13  H   UNL     1      -4.420   6.729 -31.366  1.00  0.00     0.164 HD
HETATM   14  H   UNL     1      -6.893   5.403 -29.361  1.00  0.00     0.164 HD
BRANCH  11  15
HETATM   15  C   UNL     1      -2.833   7.012 -30.038  1.00  0.00     0.129 C 
BRANCH  15  16
HETATM   16  C   UNL     1      -1.606   6.232 -30.517  1.00  0.00     0.058 C 
BRANCH  16  17
HETATM   17  C   UNL     1      -1.663   5.847 -31.979  1.00  0.00    -0.057 A 
HETATM   18  C   UNL     1      -2.230   4.630 -32.380  1.00  0.00     0.007 A 
HETATM   19  C   UNL     1      -2.263   4.273 -33.729  1.00  0.00     0.001 A 
HETATM   20  C   UNL     1      -1.737   5.132 -34.692  1.00  0.00     0.000 A 
HETATM   21  C   UNL     1      -1.180   6.350 -34.307  1.00  0.00     0.001 A 
HETATM   22  C   UNL     1      -1.143   6.706 -32.958  1.00  0.00     0.007 A 
ENDBRANCH  16  17
ENDBRANCH  15  16
ENDBRANCH  11  15
ENDBRANCH   8   9
ENDBRANCH   6   8
BRANCH   3  23
HETATM   23  C   UNL     1      -5.985   0.297 -32.774  1.00  0.00     0.039 A 
HETATM   24  C   UNL     1      -4.743  -0.272 -33.076  1.00  0.00     0.033 A 
HETATM   25  C   UNL     1      -4.677  -1.426 -33.861  1.00  0.00     0.039 A 
HETATM   26  C   UNL     1      -5.840  -2.027 -34.349  1.00  0.00     0.068 A 
HETATM   27  C   UNL     1      -7.077  -1.458 -34.047  1.00  0.00     0.039 A 
HETATM   28  C   UNL     1      -7.151  -0.299 -33.265  1.00  0.00     0.033 A 
BRANCH  26  29
HETATM   29  O   UNL     1      -5.628  -3.149 -35.100  1.00  0.00    -0.356 OA
HETATM   30  C   UNL     1      -6.614  -4.172 -35.020  1.00  0.00     0.210 C 
ENDBRANCH  26  29
ENDBRANCH   3  23
TORSDOF 7
ENDMDL
MODEL 8
REMARK VINA RESULT:      -8.2      4.232      7.049
REMARK  7 active torsions:
REMARK  status: ('A' for Active; 'I' for Inactive)
REMARK    1  A    between atoms: N_3  and  C_4 
REMARK    2  A    between atoms: C_7  and  O_8 
REMARK    3  A    between atoms: C_14  and  C_15 
REMARK    4  A    between atoms: C_15  and  N_16 
REMARK       I    between atoms: N_16  and  C_17 
REMARK       I    between atoms: C_17  and  N_18 
REMARK    5  A    between atoms: N_18  and  C_19 
REMARK    6  A    between atoms: C_19  and  C_20 
REMARK    7  A    between atoms: C_20  and  C_21 
ROOT
HETATM    1  C   UNL     1      -5.844   3.635 -34.356  1.00  0.00     0.068 C 
HETATM    2  C   UNL     1      -5.860   3.483 -32.873  1.00  0.00     0.014 A 
HETATM    3  N   UNL     1      -5.978   2.271 -32.196  1.00  0.00    -0.319 N 
HETATM    4  C   UNL     1      -5.879   2.535 -30.828  1.00  0.00     0.021 A 
HETATM    5  C   UNL     1      -6.092   1.505 -29.763  1.00  0.00     0.069 C 
HETATM    6  C   UNL     1      -5.638   3.893 -30.652  1.00  0.00    -0.016 A 
HETATM    7  C   UNL     1      -5.658   4.479 -31.939  1.00  0.00     0.035 A 
ENDROOT
BRANCH   6   8
HETATM    8  C   UNL     1      -5.428   4.618 -29.366  1.00  0.00     0.165 C 
BRANCH   8   9
HETATM    9  N   UNL     1      -5.379   6.036 -29.632  1.00  0.00    -0.339 N 
HETATM   10  C   UNL     1      -4.279   6.830 -29.605  1.00  0.00     0.316 C 
HETATM   11  N   UNL     1      -3.081   6.178 -29.575  1.00  0.00    -0.343 N 
HETATM   12  O   UNL     1      -4.396   8.050 -29.587  1.00  0.00    -0.248 OA
HETATM   13  H   UNL     1      -3.071   5.311 -30.092  1.00  0.00     0.164 HD
HETATM   14  H   UNL     1      -6.246   6.555 -29.577  1.00  0.00     0.164 HD
BRANCH  11  15
HETATM   15  C   UNL     1      -1.843   6.936 -29.626  1.00  0.00     0.129 C 
BRANCH  15  16
HETATM   16  C   UNL     1      -0.820   6.320 -30.585  1.00  0.00     0.058 C 
BRANCH  16  17
HETATM   17  C   UNL     1      -1.366   6.061 -31.972  1.00  0.00    -0.057 A 
HETATM   18  C   UNL     1      -1.573   7.116 -32.871  1.00  0.00     0.007 A 
HETATM   19  C   UNL     1      -2.094   6.871 -34.143  1.00  0.00     0.001 A 
HETATM   20  C   UNL     1      -2.406   5.570 -34.532  1.00  0.00     0.000 A 
HETATM   21  C   UNL     1      -2.194   4.512 -33.650  1.00  0.00     0.001 A 
HETATM   22  C   UNL     1      -1.677   4.755 -32.377  1.00  0.00     0.007 A 
ENDBRANCH  16  17
ENDBRANCH  15  16
ENDBRANCH  11  15
ENDBRANCH   8   9
ENDBRANCH   6   8
BRANCH   3  23
HETATM   23  C   UNL     1      -6.149   0.987 -32.793  1.00  0.00     0.039 A 
HETATM   24  C   UNL     1      -7.434   0.512 -33.077  1.00  0.00     0.033 A 
HETATM   25  C   UNL     1      -7.598  -0.748 -33.658  1.00  0.00     0.039 A 
HETATM   26  C   UNL     1      -6.493  -1.544 -33.966  1.00  0.00     0.068 A 
HETATM   27  C   UNL     1      -5.212  -1.068 -33.684  1.00  0.00     0.039 A 
HETATM   28  C   UNL     1      -5.039   0.192 -33.098  1.00  0.00     0.033 A 
BRANCH  26  29
HETATM   29  O   UNL     1      -6.800  -2.750 -34.533  1.00  0.00    -0.356 OA
HETATM   30  C   UNL     1      -5.716  -3.514 -35.045  1.00  0.00     0.210 C 
ENDBRANCH  26  29
ENDBRANCH   3  23
TORSDOF 7
ENDMDL
MODEL 9
REMARK VINA RESULT:      -8.1      2.570      7.060
REMARK  7 active torsions:
REMARK  status: ('A' for Active; 'I' for Inactive)
REMARK    1  A    between atoms: N_3  and  C_4 
REMARK    2  A    between atoms: C_7  and  O_8 
REMARK    3  A    between atoms: C_14  and  C_15 
REMARK    4  A    between atoms: C_15  and  N_16 
REMARK       I    between atoms: N_16  and  C_17 
REMARK       I    between atoms: C_17  and  N_18 
REMARK    5  A    between atoms: N_18  and  C_19 
REMARK    6  A    between atoms: C_19  and  C_20 
REMARK    7  A    between atoms: C_20  and  C_21 
ROOT
HETATM    1  C   UNL     1      -6.058   0.300 -29.827  1.00  0.00     0.068 C 
HETATM    2  C   UNL     1      -6.222   1.434 -30.780  1.00  0.00     0.014 A 
HETATM    3  N   UNL     1      -6.268   1.312 -32.167  1.00  0.00    -0.319 N 
HETATM    4  C   UNL     1      -6.503   2.581 -32.701  1.00  0.00     0.021 A 
HETATM    5  C   UNL     1      -6.486   2.885 -34.165  1.00  0.00     0.069 C 
HETATM    6  C   UNL     1      -6.665   3.482 -31.654  1.00  0.00    -0.016 A 
HETATM    7  C   UNL     1      -6.457   2.757 -30.458  1.00  0.00     0.035 A 
ENDROOT
BRANCH   6   8
HETATM    8  C   UNL     1      -6.967   4.939 -31.749  1.00  0.00     0.165 C 
BRANCH   8   9
HETATM    9  N   UNL     1      -8.282   5.180 -31.204  1.00  0.00    -0.339 N 
HETATM   10  C   UNL     1      -9.443   5.286 -31.899  1.00  0.00     0.316 C 
HETATM   11  N   UNL     1      -9.392   4.874 -33.199  1.00  0.00    -0.343 N 
HETATM   12  O   UNL     1     -10.444   5.749 -31.365  1.00  0.00    -0.248 OA
HETATM   13  H   UNL     1      -8.772   4.095 -33.360  1.00  0.00     0.164 HD
HETATM   14  H   UNL     1      -8.341   5.564 -30.270  1.00  0.00     0.164 HD
BRANCH  11  15
HETATM   15  C   UNL     1     -10.600   4.873 -34.005  1.00  0.00     0.129 C 
BRANCH  15  16
HETATM   16  C   UNL     1     -10.605   3.752 -35.048  1.00  0.00     0.058 C 
BRANCH  16  17
HETATM   17  C   UNL     1     -11.412   2.540 -34.635  1.00  0.00    -0.057 A 
HETATM   18  C   UNL     1     -12.750   2.401 -35.028  1.00  0.00     0.007 A 
HETATM   19  C   UNL     1     -13.494   1.289 -34.627  1.00  0.00     0.001 A 
HETATM   20  C   UNL     1     -12.906   0.303 -33.837  1.00  0.00     0.000 A 
HETATM   21  C   UNL     1     -11.574   0.426 -33.449  1.00  0.00     0.001 A 
HETATM   22  C   UNL     1     -10.830   1.539 -33.845  1.00  0.00     0.007 A 
ENDBRANCH  16  17
ENDBRANCH  15  16
ENDBRANCH  11  15
ENDBRANCH   8   9
ENDBRANCH   6   8
BRANCH   3  23
HETATM   23  C   UNL     1      -6.123   0.103 -32.909  1.00  0.00     0.039 A 
HETATM   24  C   UNL     1      -4.848  -0.414 -33.163  1.00  0.00     0.033 A 
HETATM   25  C   UNL     1      -4.708  -1.596 -33.894  1.00  0.00     0.039 A 
HETATM   26  C   UNL     1      -5.828  -2.277 -34.376  1.00  0.00     0.068 A 
HETATM   27  C   UNL     1      -7.099  -1.761 -34.121  1.00  0.00     0.039 A 
HETATM   28  C   UNL     1      -7.247  -0.574 -33.392  1.00  0.00     0.033 A 
BRANCH  26  29
HETATM   29  O   UNL     1      -5.546  -3.419 -35.072  1.00  0.00    -0.356 OA
HETATM   30  C   UNL     1      -6.501  -4.470 -35.000  1.00  0.00     0.210 C 
ENDBRANCH  26  29
ENDBRANCH   3  23
TORSDOF 7
ENDMDL
MODEL 10
REMARK VINA RESULT:      -8.1     14.393     15.853
REMARK  7 active torsions:
REMARK  status: ('A' for Active; 'I' for Inactive)
REMARK    1  A    between atoms: N_3  and  C_4 
REMARK    2  A    between atoms: C_7  and  O_8 
REMARK    3  A    between atoms: C_14  and  C_15 
REMARK    4  A    between atoms: C_15  and  N_16 
REMARK       I    between atoms: N_16  and  C_17 
REMARK       I    between atoms: C_17  and  N_18 
REMARK    5  A    between atoms: N_18  and  C_19 
REMARK    6  A    between atoms: C_19  and  C_20 
REMARK    7  A    between atoms: C_20  and  C_21 
ROOT
HETATM    1  C   UNL     1      -5.809 -12.581 -41.368  1.00  0.00     0.068 C 
HETATM    2  C   UNL     1      -5.793 -12.747 -39.887  1.00  0.00     0.014 A 
HETATM    3  N   UNL     1      -6.886 -13.133 -39.114  1.00  0.00    -0.319 N 
HETATM    4  C   UNL     1      -6.455 -13.246 -37.791  1.00  0.00     0.021 A 
HETATM    5  C   UNL     1      -7.369 -13.511 -36.636  1.00  0.00     0.069 C 
HETATM    6  C   UNL     1      -5.089 -12.992 -37.743  1.00  0.00    -0.016 A 
HETATM    7  C   UNL     1      -4.692 -12.653 -39.058  1.00  0.00     0.035 A 
ENDROOT
BRANCH   6   8
HETATM    8  C   UNL     1      -4.199 -13.034 -36.547  1.00  0.00     0.165 C 
BRANCH   8   9
HETATM    9  N   UNL     1      -3.712 -14.382 -36.375  1.00  0.00    -0.339 N 
HETATM   10  C   UNL     1      -2.576 -14.909 -36.899  1.00  0.00     0.316 C 
HETATM   11  N   UNL     1      -1.695 -14.008 -37.422  1.00  0.00    -0.343 N 
HETATM   12  O   UNL     1      -2.401 -16.122 -36.906  1.00  0.00    -0.248 OA
HETATM   13  H   UNL     1      -1.668 -13.126 -36.933  1.00  0.00     0.164 HD
HETATM   14  H   UNL     1      -4.371 -15.085 -36.067  1.00  0.00     0.164 HD
BRANCH  11  15
HETATM   15  C   UNL     1      -0.414 -14.463 -37.936  1.00  0.00     0.129 C 
BRANCH  15  16
HETATM   16  C   UNL     1      -0.158 -13.991 -39.369  1.00  0.00     0.058 C 
BRANCH  16  17
HETATM   17  C   UNL     1      -0.968 -14.736 -40.408  1.00  0.00    -0.057 A 
HETATM   18  C   UNL     1      -0.705 -16.083 -40.693  1.00  0.00     0.007 A 
HETATM   19  C   UNL     1      -1.444 -16.758 -41.665  1.00  0.00     0.001 A 
HETATM   20  C   UNL     1      -2.457 -16.097 -42.358  1.00  0.00     0.000 A 
HETATM   21  C   UNL     1      -2.734 -14.761 -42.076  1.00  0.00     0.001 A 
HETATM   22  C   UNL     1      -1.993 -14.083 -41.107  1.00  0.00     0.007 A 
ENDBRANCH  16  17
ENDBRANCH  15  16
ENDBRANCH  11  15
ENDBRANCH   8   9
ENDBRANCH   6   8
BRANCH   3  23
HETATM   23  C   UNL     1      -8.205 -13.389 -39.593  1.00  0.00     0.039 A 
HETATM   24  C   UNL     1      -8.572 -14.683 -39.977  1.00  0.00     0.033 A 
HETATM   25  C   UNL     1      -9.863 -14.930 -40.450  1.00  0.00     0.039 A 
HETATM   26  C   UNL     1     -10.801 -13.900 -40.542  1.00  0.00     0.068 A 
HETATM   27  C   UNL     1     -10.434 -12.610 -40.158  1.00  0.00     0.039 A 
HETATM   28  C   UNL     1      -9.141 -12.353 -39.687  1.00  0.00     0.033 A 
BRANCH  26  29
HETATM   29  O   UNL     1     -12.023 -14.283 -41.018  1.00  0.00    -0.356 OA
HETATM   30  C   UNL     1     -12.048 -15.390 -41.912  1.00  0.00     0.210 C 
ENDBRANCH  26  29
ENDBRANCH   3  23
TORSDOF 7
ENDMDL
