MODEL 1
REMARK VINA RESULT:      -8.0      0.000      0.000
REMARK  7 active torsions:
REMARK  status: ('A' for Active; 'I' for Inactive)
REMARK    1  A    between atoms: C_2  and  O_3 
REMARK    2  A    between atoms: O_3  and  C_4 
REMARK       I    between atoms: C_4  and  N_5 
REMARK    3  A    between atoms: C_8  and  N_9 
REMARK    4  A    between atoms: C_18  and  C_19 
REMARK    5  A    between atoms: C_19  and  N_20 
REMARK    6  A    between atoms: C_22  and  C_23 
REMARK    7  A    between atoms: C_23  and  O_24 
ROOT
HETATM    1  N   UNL     1      -5.687   4.974 -32.626  1.00  0.00    -0.061 N 
HETATM    2  H   UNL     1      -5.294   5.841 -33.017  1.00  0.00     0.280 HD
HETATM    3  C   UNL     1      -6.532   4.387 -33.765  1.00  0.00     0.276 C 
HETATM    4  C   UNL     1      -7.102   3.019 -33.497  1.00  0.00     0.002 A 
HETATM    5  C   UNL     1      -8.023   2.840 -32.466  1.00  0.00     0.076 A 
HETATM    6  O   UNL     1      -8.443   3.888 -31.699  1.00  0.00    -0.349 OA
HETATM    7  C   UNL     1      -7.402   4.356 -30.830  1.00  0.00     0.203 C 
HETATM    8  C   UNL     1      -6.602   5.474 -31.498  1.00  0.00     0.262 C 
HETATM    9  C   UNL     1      -6.730   1.893 -34.262  1.00  0.00     0.020 A 
HETATM   10  C   UNL     1      -7.250   0.604 -33.996  1.00  0.00    -0.032 A 
HETATM   11  C   UNL     1      -8.170   0.478 -32.946  1.00  0.00     0.011 A 
HETATM   12  C   UNL     1      -8.578   1.591 -32.208  1.00  0.00     0.038 A 
ENDROOT
BRANCH   1  13
HETATM   13  C   UNL     1      -4.496   4.096 -32.199  1.00  0.00     0.191 C 
HETATM   14  C   UNL     1      -3.531   3.856 -33.367  1.00  0.00     0.053 C 
HETATM   15  C   UNL     1      -2.816   5.129 -33.797  1.00  0.00     0.130 C 
HETATM   16  N   UNL     1      -2.207   5.832 -32.681  1.00  0.00    -0.328 N 
HETATM   17  C   UNL     1      -1.210   6.758 -33.010  1.00  0.00     0.362 C 
HETATM   18  C   UNL     1      -2.947   5.970 -31.432  1.00  0.00     0.130 C 
HETATM   19  O   UNL     1      -0.797   6.908 -34.153  1.00  0.00    -0.238 OA
HETATM   20  C   UNL     1      -3.688   4.698 -31.043  1.00  0.00     0.053 C 
BRANCH  17  21
HETATM   21  O   UNL     1      -0.780   7.466 -31.935  1.00  0.00    -0.304 OA
BRANCH  21  22
HETATM   22  C   UNL     1       0.404   6.971 -31.285  1.00  0.00     0.176 C 
HETATM   23  C   UNL     1       0.300   7.113 -29.776  1.00  0.00     0.034 C 
ENDBRANCH  21  22
ENDBRANCH  17  21
ENDBRANCH   1  13
BRANCH  10  24
HETATM   24  C   UNL     1      -6.699  -0.606 -34.724  1.00  0.00     0.274 C 
BRANCH  24  25
HETATM   25  N   UNL     1      -6.438  -1.910 -33.997  1.00  0.00    -0.054 N 
HETATM   26  H   UNL     1      -7.040  -1.839 -33.165  1.00  0.00     0.281 HD
HETATM   27  C   UNL     1      -5.034  -2.229 -33.451  1.00  0.00     0.287 C 
HETATM   28  C   UNL     1      -4.404  -3.007 -34.586  1.00  0.00     0.045 C 
HETATM   29  C   UNL     1      -5.549  -3.838 -35.154  1.00  0.00     0.030 C 
HETATM   30  C   UNL     1      -6.847  -3.168 -34.722  1.00  0.00     0.236 C 
BRANCH  27  31
HETATM   31  C   UNL     1      -4.185  -1.085 -32.907  1.00  0.00     0.289 C 
HETATM   32  O   UNL     1      -3.373  -0.445 -33.561  1.00  0.00    -0.263 OA
BRANCH  31  33
HETATM   33  O   UNL     1      -4.518  -0.855 -31.610  1.00  0.00    -0.325 OA
HETATM   34  C   UNL     1      -4.806   0.507 -31.270  1.00  0.00     0.213 C 
ENDBRANCH  31  33
ENDBRANCH  27  31
ENDBRANCH  24  25
ENDBRANCH  10  24
TORSDOF 7
ENDMDL
MODEL 2
REMARK VINA RESULT:      -7.8      3.006      5.498
REMARK  7 active torsions:
REMARK  status: ('A' for Active; 'I' for Inactive)
REMARK    1  A    between atoms: C_2  and  O_3 
REMARK    2  A    between atoms: O_3  and  C_4 
REMARK       I    between atoms: C_4  and  N_5 
REMARK    3  A    between atoms: C_8  and  N_9 
REMARK    4  A    between atoms: C_18  and  C_19 
REMARK    5  A    between atoms: C_19  and  N_20 
REMARK    6  A    between atoms: C_22  and  C_23 
REMARK    7  A    between atoms: C_23  and  O_24 
ROOT
HETATM    1  N   UNL     1      -4.329   1.800 -31.159  1.00  0.00    -0.061 N 
HETATM    2  H   UNL     1      -4.089   2.338 -30.316  1.00  0.00     0.280 HD
HETATM    3  C   UNL     1      -5.684   1.157 -30.832  1.00  0.00     0.276 C 
HETATM    4  C   UNL     1      -6.338   0.429 -31.977  1.00  0.00     0.002 A 
HETATM    5  C   UNL     1      -5.723  -0.696 -32.526  1.00  0.00     0.076 A 
HETATM    6  O   UNL     1      -4.542  -1.172 -32.033  1.00  0.00    -0.349 OA
HETATM    7  C   UNL     1      -3.450  -0.293 -32.341  1.00  0.00     0.203 C 
HETATM    8  C   UNL     1      -3.238   0.720 -31.217  1.00  0.00     0.262 C 
HETATM    9  C   UNL     1      -7.568   0.849 -32.524  1.00  0.00     0.020 A 
HETATM   10  C   UNL     1      -8.171   0.177 -33.614  1.00  0.00    -0.032 A 
HETATM   11  C   UNL     1      -7.510  -0.946 -34.130  1.00  0.00     0.011 A 
HETATM   12  C   UNL     1      -6.312  -1.398 -33.571  1.00  0.00     0.038 A 
ENDROOT
BRANCH   1  13
HETATM   13  C   UNL     1      -4.364   2.797 -32.332  1.00  0.00     0.191 C 
HETATM   14  C   UNL     1      -5.266   3.998 -32.019  1.00  0.00     0.053 C 
HETATM   15  C   UNL     1      -4.701   4.871 -30.909  1.00  0.00     0.130 C 
HETATM   16  N   UNL     1      -3.313   5.238 -31.137  1.00  0.00    -0.328 N 
HETATM   17  C   UNL     1      -2.843   6.340 -30.413  1.00  0.00     0.362 C 
HETATM   18  C   UNL     1      -2.378   4.230 -31.622  1.00  0.00     0.130 C 
HETATM   19  O   UNL     1      -3.568   7.022 -29.701  1.00  0.00    -0.238 OA
HETATM   20  C   UNL     1      -2.978   3.340 -32.702  1.00  0.00     0.053 C 
BRANCH  17  21
HETATM   21  O   UNL     1      -1.511   6.542 -30.577  1.00  0.00    -0.304 OA
BRANCH  21  22
HETATM   22  C   UNL     1      -0.720   6.550 -29.376  1.00  0.00     0.176 C 
HETATM   23  C   UNL     1       0.377   5.502 -29.435  1.00  0.00     0.034 C 
ENDBRANCH  21  22
ENDBRANCH  17  21
ENDBRANCH   1  13
BRANCH  10  24
HETATM   24  C   UNL     1      -9.400   0.757 -34.284  1.00  0.00     0.274 C 
BRANCH  24  25
HETATM   25  N   UNL     1     -10.170   1.903 -33.657  1.00  0.00    -0.054 N 
HETATM   26  H   UNL     1     -10.053   1.740 -32.648  1.00  0.00     0.281 HD
HETATM   27  C   UNL     1     -11.690   2.028 -33.872  1.00  0.00     0.287 C 
HETATM   28  C   UNL     1     -11.783   2.935 -35.079  1.00  0.00     0.045 C 
HETATM   29  C   UNL     1     -10.640   3.926 -34.895  1.00  0.00     0.030 C 
HETATM   30  C   UNL     1      -9.643   3.288 -33.936  1.00  0.00     0.236 C 
BRANCH  27  31
HETATM   31  C   UNL     1     -12.523   0.753 -33.959  1.00  0.00     0.289 C 
HETATM   32  O   UNL     1     -12.339  -0.249 -33.281  1.00  0.00    -0.263 OA
BRANCH  31  33
HETATM   33  O   UNL     1     -13.527   0.931 -34.856  1.00  0.00    -0.325 OA
HETATM   34  C   UNL     1     -14.857   0.787 -34.344  1.00  0.00     0.213 C 
ENDBRANCH  31  33
ENDBRANCH  27  31
ENDBRANCH  24  25
ENDBRANCH  10  24
TORSDOF 7
ENDMDL
MODEL 3
REMARK VINA RESULT:      -7.8      1.931      7.997
REMARK  7 active torsions:
REMARK  status: ('A' for Active; 'I' for Inactive)
REMARK    1  A    between atoms: C_2  and  O_3 
REMARK    2  A    between atoms: O_3  and  C_4 
REMARK       I    between atoms: C_4  and  N_5 
REMARK    3  A    between atoms: C_8  and  N_9 
REMARK    4  A    between atoms: C_18  and  C_19 
REMARK    5  A    between atoms: C_19  and  N_20 
REMARK    6  A    between atoms: C_22  and  C_23 
REMARK    7  A    between atoms: C_23  and  O_24 
ROOT
HETATM    1  N   UNL     1      -6.553   0.623 -31.581  1.00  0.00    -0.061 N 
HETATM    2  H   UNL     1      -6.359  -0.347 -31.300  1.00  0.00     0.280 HD
HETATM    3  C   UNL     1      -6.394   1.437 -30.290  1.00  0.00     0.276 C 
HETATM    4  C   UNL     1      -6.478   2.931 -30.463  1.00  0.00     0.002 A 
HETATM    5  C   UNL     1      -7.664   3.513 -30.908  1.00  0.00     0.076 A 
HETATM    6  O   UNL     1      -8.770   2.758 -31.174  1.00  0.00    -0.349 OA
HETATM    7  C   UNL     1      -8.594   1.961 -32.353  1.00  0.00     0.203 C 
HETATM    8  C   UNL     1      -8.032   0.585 -31.997  1.00  0.00     0.262 C 
HETATM    9  C   UNL     1      -5.382   3.777 -30.188  1.00  0.00     0.020 A 
HETATM   10  C   UNL     1      -5.455   5.178 -30.372  1.00  0.00    -0.032 A 
HETATM   11  C   UNL     1      -6.670   5.712 -30.824  1.00  0.00     0.011 A 
HETATM   12  C   UNL     1      -7.775   4.891 -31.060  1.00  0.00     0.038 A 
ENDROOT
BRANCH   1  13
HETATM   13  C   UNL     1      -5.543   0.978 -32.687  1.00  0.00     0.191 C 
HETATM   14  C   UNL     1      -4.131   0.496 -32.331  1.00  0.00     0.053 C 
HETATM   15  C   UNL     1      -4.026  -1.022 -32.317  1.00  0.00     0.130 C 
HETATM   16  N   UNL     1      -4.556  -1.631 -33.525  1.00  0.00    -0.328 N 
HETATM   17  C   UNL     1      -4.143  -2.944 -33.782  1.00  0.00     0.362 C 
HETATM   18  C   UNL     1      -5.807  -1.136 -34.086  1.00  0.00     0.130 C 
HETATM   19  O   UNL     1      -3.313  -3.524 -33.093  1.00  0.00    -0.238 OA
HETATM   20  C   UNL     1      -5.909   0.383 -34.052  1.00  0.00     0.053 C 
BRANCH  17  21
HETATM   21  O   UNL     1      -4.775  -3.490 -34.851  1.00  0.00    -0.304 OA
BRANCH  21  22
HETATM   22  C   UNL     1      -5.539  -4.681 -34.592  1.00  0.00     0.176 C 
HETATM   23  C   UNL     1      -6.895  -4.622 -35.275  1.00  0.00     0.034 C 
ENDBRANCH  21  22
ENDBRANCH  17  21
ENDBRANCH   1  13
BRANCH  10  24
HETATM   24  C   UNL     1      -4.211   6.032 -30.232  1.00  0.00     0.274 C 
BRANCH  24  25
HETATM   25  N   UNL     1      -3.630   6.776 -31.418  1.00  0.00    -0.054 N 
HETATM   26  H   UNL     1      -4.283   6.547 -32.180  1.00  0.00     0.281 HD
HETATM   27  C   UNL     1      -2.235   6.410 -31.959  1.00  0.00     0.287 C 
HETATM   28  C   UNL     1      -1.328   7.365 -31.214  1.00  0.00     0.045 C 
HETATM   29  C   UNL     1      -2.137   8.653 -31.115  1.00  0.00     0.030 C 
HETATM   30  C   UNL     1      -3.601   8.280 -31.309  1.00  0.00     0.236 C 
BRANCH  27  31
HETATM   31  C   UNL     1      -1.799   4.949 -31.924  1.00  0.00     0.289 C 
HETATM   32  O   UNL     1      -1.103   4.448 -31.051  1.00  0.00    -0.263 OA
BRANCH  31  33
HETATM   33  O   UNL     1      -2.353   4.288 -32.974  1.00  0.00    -0.325 OA
HETATM   34  C   UNL     1      -2.025   4.793 -34.274  1.00  0.00     0.213 C 
ENDBRANCH  31  33
ENDBRANCH  27  31
ENDBRANCH  24  25
ENDBRANCH  10  24
TORSDOF 7
ENDMDL
MODEL 4
REMARK VINA RESULT:      -7.8      3.146      8.810
REMARK  7 active torsions:
REMARK  status: ('A' for Active; 'I' for Inactive)
REMARK    1  A    between atoms: C_2  and  O_3 
REMARK    2  A    between atoms: O_3  and  C_4 
REMARK       I    between atoms: C_4  and  N_5 
REMARK    3  A    between atoms: C_8  and  N_9 
REMARK    4  A    between atoms: C_18  and  C_19 
REMARK    5  A    between atoms: C_19  and  N_20 
REMARK    6  A    between atoms: C_22  and  C_23 
REMARK    7  A    between atoms: C_23  and  O_24 
ROOT
HETATM    1  N   UNL     1      -7.868   1.001 -34.023  1.00  0.00    -0.061 N 
HETATM    2  H   UNL     1      -8.426   0.997 -34.887  1.00  0.00     0.280 HD
HETATM    3  C   UNL     1      -6.597   1.778 -34.391  1.00  0.00     0.276 C 
HETATM    4  C   UNL     1      -5.667   2.062 -33.240  1.00  0.00     0.002 A 
HETATM    5  C   UNL     1      -5.055   1.006 -32.566  1.00  0.00     0.076 A 
HETATM    6  O   UNL     1      -5.261  -0.290 -32.939  1.00  0.00    -0.349 OA
HETATM    7  C   UNL     1      -6.592  -0.724 -32.627  1.00  0.00     0.203 C 
HETATM    8  C   UNL     1      -7.531  -0.483 -33.809  1.00  0.00     0.262 C 
HETATM    9  C   UNL     1      -5.389   3.377 -32.812  1.00  0.00     0.020 A 
HETATM   10  C   UNL     1      -4.533   3.641 -31.716  1.00  0.00    -0.032 A 
HETATM   11  C   UNL     1      -3.945   2.544 -31.071  1.00  0.00     0.011 A 
HETATM   12  C   UNL     1      -4.178   1.240 -31.512  1.00  0.00     0.038 A 
ENDROOT
BRANCH   1  13
HETATM   13  C   UNL     1      -8.731   1.668 -32.936  1.00  0.00     0.191 C 
HETATM   14  C   UNL     1      -9.388   2.954 -33.454  1.00  0.00     0.053 C 
HETATM   15  C   UNL     1     -10.431   2.677 -34.526  1.00  0.00     0.130 C 
HETATM   16  N   UNL     1     -11.390   1.661 -34.126  1.00  0.00    -0.328 N 
HETATM   17  C   UNL     1     -12.590   1.632 -34.845  1.00  0.00     0.362 C 
HETATM   18  C   UNL     1     -10.918   0.460 -33.445  1.00  0.00     0.130 C 
HETATM   19  O   UNL     1     -12.871   2.465 -35.698  1.00  0.00    -0.238 OA
HETATM   20  C   UNL     1      -9.844   0.755 -32.407  1.00  0.00     0.053 C 
BRANCH  17  21
HETATM   21  O   UNL     1     -13.378   0.581 -34.505  1.00  0.00    -0.304 OA
BRANCH  21  22
HETATM   22  C   UNL     1     -14.756   0.888 -34.227  1.00  0.00     0.176 C 
HETATM   23  C   UNL     1     -14.901   1.602 -32.894  1.00  0.00     0.034 C 
ENDBRANCH  21  22
ENDBRANCH  17  21
ENDBRANCH   1  13
BRANCH  10  24
HETATM   24  C   UNL     1      -4.395   5.051 -31.178  1.00  0.00     0.274 C 
BRANCH  24  25
HETATM   25  N   UNL     1      -3.871   6.177 -32.047  1.00  0.00    -0.054 N 
HETATM   26  H   UNL     1      -4.284   5.974 -32.968  1.00  0.00     0.281 HD
HETATM   27  C   UNL     1      -2.359   6.321 -32.307  1.00  0.00     0.287 C 
HETATM   28  C   UNL     1      -1.923   7.274 -31.216  1.00  0.00     0.045 C 
HETATM   29  C   UNL     1      -3.086   8.250 -31.081  1.00  0.00     0.030 C 
HETATM   30  C   UNL     1      -4.315   7.568 -31.671  1.00  0.00     0.236 C 
BRANCH  27  31
HETATM   31  C   UNL     1      -1.516   5.055 -32.431  1.00  0.00     0.289 C 
HETATM   32  O   UNL     1      -0.781   4.618 -31.557  1.00  0.00    -0.263 OA
BRANCH  31  33
HETATM   33  O   UNL     1      -1.759   4.468 -33.632  1.00  0.00    -0.325 OA
HETATM   34  C   UNL     1      -1.584   5.303 -34.784  1.00  0.00     0.213 C 
ENDBRANCH  31  33
ENDBRANCH  27  31
ENDBRANCH  24  25
ENDBRANCH  10  24
TORSDOF 7
ENDMDL
MODEL 5
REMARK VINA RESULT:      -7.6      1.780      7.943
REMARK  7 active torsions:
REMARK  status: ('A' for Active; 'I' for Inactive)
REMARK    1  A    between atoms: C_2  and  O_3 
REMARK    2  A    between atoms: O_3  and  C_4 
REMARK       I    between atoms: C_4  and  N_5 
REMARK    3  A    between atoms: C_8  and  N_9 
REMARK    4  A    between atoms: C_18  and  C_19 
REMARK    5  A    between atoms: C_19  and  N_20 
REMARK    6  A    between atoms: C_22  and  C_23 
REMARK    7  A    between atoms: C_23  and  O_24 
ROOT
HETATM    1  N   UNL     1      -7.422   1.758 -31.504  1.00  0.00    -0.061 N 
HETATM    2  H   UNL     1      -7.437   0.733 -31.418  1.00  0.00     0.280 HD
HETATM    3  C   UNL     1      -6.573   2.232 -30.316  1.00  0.00     0.276 C 
HETATM    4  C   UNL     1      -6.267   3.706 -30.298  1.00  0.00     0.002 A 
HETATM    5  C   UNL     1      -7.304   4.629 -30.169  1.00  0.00     0.076 A 
HETATM    6  O   UNL     1      -8.601   4.226 -30.035  1.00  0.00    -0.349 OA
HETATM    7  C   UNL     1      -9.109   3.667 -31.255  1.00  0.00     0.203 C 
HETATM    8  C   UNL     1      -8.891   2.155 -31.289  1.00  0.00     0.262 C 
HETATM    9  C   UNL     1      -4.949   4.196 -30.410  1.00  0.00     0.020 A 
HETATM   10  C   UNL     1      -4.665   5.583 -30.415  1.00  0.00    -0.032 A 
HETATM   11  C   UNL     1      -5.744   6.468 -30.285  1.00  0.00     0.011 A 
HETATM   12  C   UNL     1      -7.049   5.996 -30.132  1.00  0.00     0.038 A 
ENDROOT
BRANCH   1  13
HETATM   13  C   UNL     1      -6.823   2.083 -32.884  1.00  0.00     0.191 C 
HETATM   14  C   UNL     1      -5.348   1.672 -32.965  1.00  0.00     0.053 C 
HETATM   15  C   UNL     1      -5.166   0.162 -32.916  1.00  0.00     0.130 C 
HETATM   16  N   UNL     1      -6.011  -0.535 -33.870  1.00  0.00    -0.328 N 
HETATM   17  C   UNL     1      -5.631  -1.845 -34.183  1.00  0.00     0.362 C 
HETATM   18  C   UNL     1      -7.399  -0.118 -34.035  1.00  0.00     0.130 C 
HETATM   19  O   UNL     1      -4.600  -2.355 -33.762  1.00  0.00    -0.238 OA
HETATM   20  C   UNL     1      -7.563   1.396 -34.039  1.00  0.00     0.053 C 
BRANCH  17  21
HETATM   21  O   UNL     1      -6.535  -2.475 -34.976  1.00  0.00    -0.304 OA
BRANCH  21  22
HETATM   22  C   UNL     1      -6.917  -3.801 -34.569  1.00  0.00     0.176 C 
HETATM   23  C   UNL     1      -6.255  -4.854 -35.440  1.00  0.00     0.034 C 
ENDBRANCH  21  22
ENDBRANCH  17  21
ENDBRANCH   1  13
BRANCH  10  24
HETATM   24  C   UNL     1      -3.261   6.073 -30.709  1.00  0.00     0.274 C 
BRANCH  24  25
HETATM   25  N   UNL     1      -2.524   5.642 -31.962  1.00  0.00    -0.054 N 
HETATM   26  H   UNL     1      -2.704   4.630 -32.003  1.00  0.00     0.281 HD
HETATM   27  C   UNL     1      -0.993   5.783 -32.051  1.00  0.00     0.287 C 
HETATM   28  C   UNL     1      -0.821   7.140 -32.699  1.00  0.00     0.045 C 
HETATM   29  C   UNL     1      -1.966   7.228 -33.700  1.00  0.00     0.030 C 
HETATM   30  C   UNL     1      -3.025   6.223 -33.260  1.00  0.00     0.236 C 
BRANCH  27  31
HETATM   31  C   UNL     1      -0.165   5.563 -30.789  1.00  0.00     0.289 C 
HETATM   32  O   UNL     1      -0.006   4.483 -30.237  1.00  0.00    -0.263 OA
BRANCH  31  33
HETATM   33  O   UNL     1       0.411   6.736 -30.418  1.00  0.00    -0.325 OA
HETATM   34  C   UNL     1       0.345   7.052 -29.021  1.00  0.00     0.213 C 
ENDBRANCH  31  33
ENDBRANCH  27  31
ENDBRANCH  24  25
ENDBRANCH  10  24
TORSDOF 7
ENDMDL
MODEL 6
REMARK VINA RESULT:      -7.5      3.178      8.671
REMARK  7 active torsions:
REMARK  status: ('A' for Active; 'I' for Inactive)
REMARK    1  A    between atoms: C_2  and  O_3 
REMARK    2  A    between atoms: O_3  and  C_4 
REMARK       I    between atoms: C_4  and  N_5 
REMARK    3  A    between atoms: C_8  and  N_9 
REMARK    4  A    between atoms: C_18  and  C_19 
REMARK    5  A    between atoms: C_19  and  N_20 
REMARK    6  A    between atoms: C_22  and  C_23 
REMARK    7  A    between atoms: C_23  and  O_24 
ROOT
HETATM    1  N   UNL     1      -7.975   0.787 -34.189  1.00  0.00    -0.061 N 
HETATM    2  H   UNL     1      -8.626   0.978 -34.962  1.00  0.00     0.280 HD
HETATM    3  C   UNL     1      -6.711   1.581 -34.548  1.00  0.00     0.276 C 
HETATM    4  C   UNL     1      -5.643   1.593 -33.485  1.00  0.00     0.002 A 
HETATM    5  C   UNL     1      -5.020   0.402 -33.114  1.00  0.00     0.076 A 
HETATM    6  O   UNL     1      -5.340  -0.784 -33.709  1.00  0.00    -0.349 OA
HETATM    7  C   UNL     1      -6.651  -1.227 -33.329  1.00  0.00     0.203 C 
HETATM    8  C   UNL     1      -7.701  -0.719 -34.316  1.00  0.00     0.262 C 
HETATM    9  C   UNL     1      -5.244   2.783 -32.842  1.00  0.00     0.020 A 
HETATM   10  C   UNL     1      -4.255   2.790 -31.829  1.00  0.00    -0.032 A 
HETATM   11  C   UNL     1      -3.663   1.565 -31.491  1.00  0.00     0.011 A 
HETATM   12  C   UNL     1      -4.018   0.387 -32.149  1.00  0.00     0.038 A 
ENDROOT
BRANCH   1  13
HETATM   13  C   UNL     1      -8.670   1.247 -32.895  1.00  0.00     0.191 C 
HETATM   14  C   UNL     1      -9.260   2.655 -33.046  1.00  0.00     0.053 C 
HETATM   15  C   UNL     1     -10.421   2.692 -34.029  1.00  0.00     0.130 C 
HETATM   16  N   UNL     1     -11.421   1.674 -33.754  1.00  0.00    -0.328 N 
HETATM   17  C   UNL     1     -12.682   1.884 -34.324  1.00  0.00     0.362 C 
HETATM   18  C   UNL     1     -10.991   0.325 -33.405  1.00  0.00     0.130 C 
HETATM   19  O   UNL     1     -12.970   2.902 -34.940  1.00  0.00    -0.238 OA
HETATM   20  C   UNL     1      -9.803   0.311 -32.454  1.00  0.00     0.053 C 
BRANCH  17  21
HETATM   21  O   UNL     1     -13.522   0.835 -34.133  1.00  0.00    -0.304 OA
BRANCH  21  22
HETATM   22  C   UNL     1     -14.895   1.166 -33.860  1.00  0.00     0.176 C 
HETATM   23  C   UNL     1     -15.038   1.837 -32.505  1.00  0.00     0.034 C 
ENDBRANCH  21  22
ENDBRANCH  17  21
ENDBRANCH   1  13
BRANCH  10  24
HETATM   24  C   UNL     1      -3.978   4.055 -31.042  1.00  0.00     0.274 C 
BRANCH  24  25
HETATM   25  N   UNL     1      -3.065   5.136 -31.588  1.00  0.00    -0.054 N 
HETATM   26  H   UNL     1      -2.762   5.636 -30.741  1.00  0.00     0.281 HD
HETATM   27  C   UNL     1      -3.623   6.227 -32.522  1.00  0.00     0.287 C 
HETATM   28  C   UNL     1      -3.371   5.648 -33.897  1.00  0.00     0.045 C 
HETATM   29  C   UNL     1      -2.034   4.929 -33.765  1.00  0.00     0.030 C 
HETATM   30  C   UNL     1      -1.813   4.661 -32.281  1.00  0.00     0.236 C 
BRANCH  27  31
HETATM   31  C   UNL     1      -5.042   6.734 -32.286  1.00  0.00     0.289 C 
HETATM   32  O   UNL     1      -6.026   6.372 -32.916  1.00  0.00    -0.263 OA
BRANCH  31  33
HETATM   33  O   UNL     1      -5.043   7.596 -31.236  1.00  0.00    -0.325 OA
HETATM   34  C   UNL     1      -3.985   8.562 -31.218  1.00  0.00     0.213 C 
ENDBRANCH  31  33
ENDBRANCH  27  31
ENDBRANCH  24  25
ENDBRANCH  10  24
TORSDOF 7
ENDMDL
MODEL 7
REMARK VINA RESULT:      -7.3      2.733      7.946
REMARK  7 active torsions:
REMARK  status: ('A' for Active; 'I' for Inactive)
REMARK    1  A    between atoms: C_2  and  O_3 
REMARK    2  A    between atoms: O_3  and  C_4 
REMARK       I    between atoms: C_4  and  N_5 
REMARK    3  A    between atoms: C_8  and  N_9 
REMARK    4  A    between atoms: C_18  and  C_19 
REMARK    5  A    between atoms: C_19  and  N_20 
REMARK    6  A    between atoms: C_22  and  C_23 
REMARK    7  A    between atoms: C_23  and  O_24 
ROOT
HETATM    1  N   UNL     1      -8.430   0.868 -32.880  1.00  0.00    -0.061 N 
HETATM    2  H   UNL     1      -8.093  -0.034 -32.516  1.00  0.00     0.280 HD
HETATM    3  C   UNL     1      -8.617   1.740 -31.631  1.00  0.00     0.276 C 
HETATM    4  C   UNL     1      -8.965   3.180 -31.906  1.00  0.00     0.002 A 
HETATM    5  C   UNL     1     -10.166   3.496 -32.538  1.00  0.00     0.076 A 
HETATM    6  O   UNL     1     -11.055   2.526 -32.901  1.00  0.00    -0.349 OA
HETATM    7  C   UNL     1     -10.562   1.741 -33.996  1.00  0.00     0.203 C 
HETATM    8  C   UNL     1      -9.799   0.519 -33.485  1.00  0.00     0.262 C 
HETATM    9  C   UNL     1      -8.105   4.237 -31.541  1.00  0.00     0.020 A 
HETATM   10  C   UNL     1      -8.423   5.589 -31.818  1.00  0.00    -0.032 A 
HETATM   11  C   UNL     1      -9.641   5.851 -32.459  1.00  0.00     0.011 A 
HETATM   12  C   UNL     1     -10.520   4.817 -32.788  1.00  0.00     0.038 A 
ENDROOT
BRANCH   1  13
HETATM   13  C   UNL     1      -7.362   1.381 -33.863  1.00  0.00     0.191 C 
HETATM   14  C   UNL     1      -5.976   1.429 -33.207  1.00  0.00     0.053 C 
HETATM   15  C   UNL     1      -5.439   0.041 -32.892  1.00  0.00     0.130 C 
HETATM   16  N   UNL     1      -5.507  -0.859 -34.031  1.00  0.00    -0.328 N 
HETATM   17  C   UNL     1      -4.686  -1.990 -33.969  1.00  0.00     0.362 C 
HETATM   18  C   UNL     1      -6.705  -0.870 -34.863  1.00  0.00     0.130 C 
HETATM   19  O   UNL     1      -3.884  -2.178 -33.063  1.00  0.00    -0.238 OA
HETATM   20  C   UNL     1      -7.249   0.527 -35.131  1.00  0.00     0.053 C 
BRANCH  17  21
HETATM   21  O   UNL     1      -4.897  -2.846 -35.002  1.00  0.00    -0.304 OA
BRANCH  21  22
HETATM   22  C   UNL     1      -5.229  -4.199 -34.644  1.00  0.00     0.176 C 
HETATM   23  C   UNL     1      -6.604  -4.582 -35.162  1.00  0.00     0.034 C 
ENDBRANCH  21  22
ENDBRANCH  17  21
ENDBRANCH   1  13
BRANCH  10  24
HETATM   24  C   UNL     1      -7.401   6.679 -31.568  1.00  0.00     0.274 C 
BRANCH  24  25
HETATM   25  N   UNL     1      -7.220   7.287 -30.191  1.00  0.00    -0.054 N 
HETATM   26  H   UNL     1      -6.876   8.235 -30.396  1.00  0.00     0.281 HD
HETATM   27  C   UNL     1      -6.196   6.692 -29.206  1.00  0.00     0.287 C 
HETATM   28  C   UNL     1      -7.030   5.714 -28.408  1.00  0.00     0.045 C 
HETATM   29  C   UNL     1      -8.382   6.402 -28.264  1.00  0.00     0.030 C 
HETATM   30  C   UNL     1      -8.472   7.450 -29.367  1.00  0.00     0.236 C 
BRANCH  27  31
HETATM   31  C   UNL     1      -4.894   6.124 -29.762  1.00  0.00     0.289 C 
HETATM   32  O   UNL     1      -3.872   6.771 -29.947  1.00  0.00    -0.263 OA
BRANCH  31  33
HETATM   33  O   UNL     1      -5.033   4.786 -29.957  1.00  0.00    -0.325 OA
HETATM   34  C   UNL     1      -4.401   4.256 -31.128  1.00  0.00     0.213 C 
ENDBRANCH  31  33
ENDBRANCH  27  31
ENDBRANCH  24  25
ENDBRANCH  10  24
TORSDOF 7
ENDMDL
MODEL 8
REMARK VINA RESULT:      -7.3      2.476      5.129
REMARK  7 active torsions:
REMARK  status: ('A' for Active; 'I' for Inactive)
REMARK    1  A    between atoms: C_2  and  O_3 
REMARK    2  A    between atoms: O_3  and  C_4 
REMARK       I    between atoms: C_4  and  N_5 
REMARK    3  A    between atoms: C_8  and  N_9 
REMARK    4  A    between atoms: C_18  and  C_19 
REMARK    5  A    between atoms: C_19  and  N_20 
REMARK    6  A    between atoms: C_22  and  C_23 
REMARK    7  A    between atoms: C_23  and  O_24 
ROOT
HETATM    1  N   UNL     1      -4.420   1.946 -31.203  1.00  0.00    -0.061 N 
HETATM    2  H   UNL     1      -3.936   2.377 -30.404  1.00  0.00     0.280 HD
HETATM    3  C   UNL     1      -5.725   1.396 -30.611  1.00  0.00     0.276 C 
HETATM    4  C   UNL     1      -6.698   0.842 -31.618  1.00  0.00     0.002 A 
HETATM    5  C   UNL     1      -6.350  -0.274 -32.379  1.00  0.00     0.076 A 
HETATM    6  O   UNL     1      -5.146  -0.897 -32.217  1.00  0.00    -0.349 OA
HETATM    7  C   UNL     1      -4.066  -0.091 -32.710  1.00  0.00     0.203 C 
HETATM    8  C   UNL     1      -3.494   0.786 -31.597  1.00  0.00     0.262 C 
HETATM    9  C   UNL     1      -7.968   1.419 -31.825  1.00  0.00     0.020 A 
HETATM   10  C   UNL     1      -8.874   0.910 -32.787  1.00  0.00    -0.032 A 
HETATM   11  C   UNL     1      -8.473  -0.211 -33.526  1.00  0.00     0.011 A 
HETATM   12  C   UNL     1      -7.236  -0.818 -33.303  1.00  0.00     0.038 A 
ENDROOT
BRANCH   1  13
HETATM   13  C   UNL     1      -4.615   3.052 -32.257  1.00  0.00     0.191 C 
HETATM   14  C   UNL     1      -5.379   4.249 -31.678  1.00  0.00     0.053 C 
HETATM   15  C   UNL     1      -4.574   4.992 -30.621  1.00  0.00     0.130 C 
HETATM   16  N   UNL     1      -3.234   5.327 -31.072  1.00  0.00    -0.328 N 
HETATM   17  C   UNL     1      -2.581   6.337 -30.356  1.00  0.00     0.362 C 
HETATM   18  C   UNL     1      -2.458   4.336 -31.810  1.00  0.00     0.130 C 
HETATM   19  O   UNL     1      -3.126   6.975 -29.464  1.00  0.00    -0.238 OA
HETATM   20  C   UNL     1      -3.293   3.576 -32.831  1.00  0.00     0.053 C 
BRANCH  17  21
HETATM   21  O   UNL     1      -1.293   6.505 -30.748  1.00  0.00    -0.304 OA
BRANCH  21  22
HETATM   22  C   UNL     1      -0.296   6.375 -29.719  1.00  0.00     0.176 C 
HETATM   23  C   UNL     1       0.572   5.151 -29.949  1.00  0.00     0.034 C 
ENDBRANCH  21  22
ENDBRANCH  17  21
ENDBRANCH   1  13
BRANCH  10  24
HETATM   24  C   UNL     1     -10.154   1.658 -33.100  1.00  0.00     0.274 C 
BRANCH  24  25
HETATM   25  N   UNL     1     -10.392   2.271 -34.466  1.00  0.00    -0.054 N 
HETATM   26  H   UNL     1      -9.698   1.798 -35.059  1.00  0.00     0.281 HD
HETATM   27  C   UNL     1     -10.159   3.776 -34.694  1.00  0.00     0.287 C 
HETATM   28  C   UNL     1     -11.531   4.367 -34.449  1.00  0.00     0.045 C 
HETATM   29  C   UNL     1     -12.494   3.332 -35.018  1.00  0.00     0.030 C 
HETATM   30  C   UNL     1     -11.742   2.008 -35.085  1.00  0.00     0.236 C 
BRANCH  27  31
HETATM   31  C   UNL     1      -9.021   4.461 -33.945  1.00  0.00     0.289 C 
HETATM   32  O   UNL     1      -7.849   4.454 -34.297  1.00  0.00    -0.263 OA
BRANCH  31  33
HETATM   33  O   UNL     1      -9.523   5.123 -32.870  1.00  0.00    -0.325 OA
HETATM   34  C   UNL     1      -8.930   6.396 -32.586  1.00  0.00     0.213 C 
ENDBRANCH  31  33
ENDBRANCH  27  31
ENDBRANCH  24  25
ENDBRANCH  10  24
TORSDOF 7
ENDMDL
MODEL 9
REMARK VINA RESULT:      -7.3      2.863      8.523
REMARK  7 active torsions:
REMARK  status: ('A' for Active; 'I' for Inactive)
REMARK    1  A    between atoms: C_2  and  O_3 
REMARK    2  A    between atoms: O_3  and  C_4 
REMARK       I    between atoms: C_4  and  N_5 
REMARK    3  A    between atoms: C_8  and  N_9 
REMARK    4  A    between atoms: C_18  and  C_19 
REMARK    5  A    between atoms: C_19  and  N_20 
REMARK    6  A    between atoms: C_22  and  C_23 
REMARK    7  A    between atoms: C_23  and  O_24 
ROOT
HETATM    1  N   UNL     1      -7.792   1.535 -33.624  1.00  0.00    -0.061 N 
HETATM    2  H   UNL     1      -8.397   1.544 -34.456  1.00  0.00     0.280 HD
HETATM    3  C   UNL     1      -6.379   1.777 -34.174  1.00  0.00     0.276 C 
HETATM    4  C   UNL     1      -5.311   1.962 -33.128  1.00  0.00     0.002 A 
HETATM    5  C   UNL     1      -4.999   0.916 -32.260  1.00  0.00     0.076 A 
HETATM    6  O   UNL     1      -5.629  -0.292 -32.348  1.00  0.00    -0.349 OA
HETATM    7  C   UNL     1      -6.997  -0.205 -31.924  1.00  0.00     0.203 C 
HETATM    8  C   UNL     1      -7.913   0.092 -33.110  1.00  0.00     0.262 C 
HETATM    9  C   UNL     1      -4.603   3.175 -32.992  1.00  0.00     0.020 A 
HETATM   10  C   UNL     1      -3.614   3.355 -31.995  1.00  0.00    -0.032 A 
HETATM   11  C   UNL     1      -3.342   2.273 -31.146  1.00  0.00     0.011 A 
HETATM   12  C   UNL     1      -4.005   1.054 -31.298  1.00  0.00     0.038 A 
ENDROOT
BRANCH   1  13
HETATM   13  C   UNL     1      -8.307   2.640 -32.683  1.00  0.00     0.191 C 
HETATM   14  C   UNL     1      -8.711   3.896 -33.464  1.00  0.00     0.053 C 
HETATM   15  C   UNL     1      -9.934   3.664 -34.339  1.00  0.00     0.130 C 
HETATM   16  N   UNL     1     -11.036   3.059 -33.611  1.00  0.00    -0.328 N 
HETATM   17  C   UNL     1     -12.300   3.182 -34.198  1.00  0.00     0.362 C 
HETATM   18  C   UNL     1     -10.766   1.968 -32.680  1.00  0.00     0.130 C 
HETATM   19  O   UNL     1     -12.498   3.837 -35.214  1.00  0.00    -0.238 OA
HETATM   20  C   UNL     1      -9.515   2.202 -31.845  1.00  0.00     0.053 C 
BRANCH  17  21
HETATM   21  O   UNL     1     -13.256   2.485 -33.532  1.00  0.00    -0.304 OA
BRANCH  21  22
HETATM   22  C   UNL     1     -13.987   1.517 -34.306  1.00  0.00     0.176 C 
HETATM   23  C   UNL     1     -13.608   0.100 -33.910  1.00  0.00     0.034 C 
ENDBRANCH  21  22
ENDBRANCH  17  21
ENDBRANCH   1  13
BRANCH  10  24
HETATM   24  C   UNL     1      -3.000   4.722 -31.768  1.00  0.00     0.274 C 
BRANCH  24  25
HETATM   25  N   UNL     1      -1.787   5.179 -32.554  1.00  0.00    -0.054 N 
HETATM   26  H   UNL     1      -1.431   4.306 -32.965  1.00  0.00     0.281 HD
HETATM   27  C   UNL     1      -0.580   5.803 -31.828  1.00  0.00     0.287 C 
HETATM   28  C   UNL     1      -0.884   7.284 -31.887  1.00  0.00     0.045 C 
HETATM   29  C   UNL     1      -1.536   7.481 -33.251  1.00  0.00     0.030 C 
HETATM   30  C   UNL     1      -2.055   6.120 -33.701  1.00  0.00     0.236 C 
BRANCH  27  31
HETATM   31  C   UNL     1      -0.207   5.277 -30.445  1.00  0.00     0.289 C 
HETATM   32  O   UNL     1       0.354   4.212 -30.231  1.00  0.00    -0.263 OA
BRANCH  31  33
HETATM   33  O   UNL     1      -0.542   6.201 -29.507  1.00  0.00    -0.325 OA
HETATM   34  C   UNL     1       0.234   6.180 -28.303  1.00  0.00     0.213 C 
ENDBRANCH  31  33
ENDBRANCH  27  31
ENDBRANCH  24  25
ENDBRANCH  10  24
TORSDOF 7
ENDMDL
MODEL 10
REMARK VINA RESULT:      -7.2      2.377      7.813
REMARK  7 active torsions:
REMARK  status: ('A' for Active; 'I' for Inactive)
REMARK    1  A    between atoms: C_2  and  O_3 
REMARK    2  A    between atoms: O_3  and  C_4 
REMARK       I    between atoms: C_4  and  N_5 
REMARK    3  A    between atoms: C_8  and  N_9 
REMARK    4  A    between atoms: C_18  and  C_19 
REMARK    5  A    between atoms: C_19  and  N_20 
REMARK    6  A    between atoms: C_22  and  C_23 
REMARK    7  A    between atoms: C_23  and  O_24 
ROOT
HETATM    1  N   UNL     1      -8.079   0.570 -32.694  1.00  0.00    -0.061 N 
HETATM    2  H   UNL     1      -8.012  -0.456 -32.688  1.00  0.00     0.280 HD
HETATM    3  C   UNL     1      -8.021   0.966 -31.212  1.00  0.00     0.276 C 
HETATM    4  C   UNL     1      -7.947   2.448 -30.950  1.00  0.00     0.002 A 
HETATM    5  C   UNL     1      -9.006   3.273 -31.325  1.00  0.00     0.076 A 
HETATM    6  O   UNL     1     -10.130   2.765 -31.909  1.00  0.00    -0.349 OA
HETATM    7  C   UNL     1      -9.871   2.312 -33.246  1.00  0.00     0.203 C 
HETATM    8  C   UNL     1      -9.487   0.833 -33.251  1.00  0.00     0.262 C 
HETATM    9  C   UNL     1      -6.826   3.041 -30.331  1.00  0.00     0.020 A 
HETATM   10  C   UNL     1      -6.748   4.436 -30.105  1.00  0.00    -0.032 A 
HETATM   11  C   UNL     1      -7.839   5.221 -30.503  1.00  0.00     0.011 A 
HETATM   12  C   UNL     1      -8.972   4.641 -31.079  1.00  0.00     0.038 A 
ENDROOT
BRANCH   1  13
HETATM   13  C   UNL     1      -6.903   1.091 -33.539  1.00  0.00     0.191 C 
HETATM   14  C   UNL     1      -5.569   0.939 -32.797  1.00  0.00     0.053 C 
HETATM   15  C   UNL     1      -5.174  -0.519 -32.614  1.00  0.00     0.130 C 
HETATM   16  N   UNL     1      -5.233  -1.275 -33.853  1.00  0.00    -0.328 N 
HETATM   17  C   UNL     1      -4.516  -2.477 -33.873  1.00  0.00     0.362 C 
HETATM   18  C   UNL     1      -6.364  -1.084 -34.754  1.00  0.00     0.130 C 
HETATM   19  O   UNL     1      -3.801  -2.837 -32.947  1.00  0.00    -0.238 OA
HETATM   20  C   UNL     1      -6.769   0.377 -34.890  1.00  0.00     0.053 C 
BRANCH  17  21
HETATM   21  O   UNL     1      -4.722  -3.189 -35.010  1.00  0.00    -0.304 OA
BRANCH  21  22
HETATM   22  C   UNL     1      -5.246  -4.517 -34.838  1.00  0.00     0.176 C 
HETATM   23  C   UNL     1      -6.658  -4.625 -35.389  1.00  0.00     0.034 C 
ENDBRANCH  21  22
ENDBRANCH  17  21
ENDBRANCH   1  13
BRANCH  10  24
HETATM   24  C   UNL     1      -5.462   5.056 -29.597  1.00  0.00     0.274 C 
BRANCH  24  25
HETATM   25  N   UNL     1      -4.300   5.331 -30.530  1.00  0.00    -0.054 N 
HETATM   26  H   UNL     1      -3.530   5.557 -29.885  1.00  0.00     0.281 HD
HETATM   27  C   UNL     1      -4.357   6.512 -31.517  1.00  0.00     0.287 C 
HETATM   28  C   UNL     1      -4.907   5.871 -32.772  1.00  0.00     0.045 C 
HETATM   29  C   UNL     1      -4.277   4.484 -32.794  1.00  0.00     0.030 C 
HETATM   30  C   UNL     1      -3.833   4.170 -31.370  1.00  0.00     0.236 C 
BRANCH  27  31
HETATM   31  C   UNL     1      -5.066   7.792 -31.084  1.00  0.00     0.289 C 
HETATM   32  O   UNL     1      -6.146   8.171 -31.514  1.00  0.00    -0.263 OA
BRANCH  31  33
HETATM   33  O   UNL     1      -4.339   8.403 -30.112  1.00  0.00    -0.325 OA
HETATM   34  C   UNL     1      -5.092   9.117 -29.124  1.00  0.00     0.213 C 
ENDBRANCH  31  33
ENDBRANCH  27  31
ENDBRANCH  24  25
ENDBRANCH  10  24
TORSDOF 7
ENDMDL
