MODEL 1
REMARK VINA RESULT:      -9.6      0.000      0.000
REMARK  4 active torsions:
REMARK  status: ('A' for Active; 'I' for Inactive)
REMARK    1  A    between atoms: C_4  and  C_5 
REMARK    2  A    between atoms: C_9  and  N_10 
REMARK       I    between atoms: N_10  and  C_11 
REMARK    3  A    between atoms: C_11  and  C_12 
REMARK    4  A    between atoms: C_13  and  C_14 
ROOT
HETATM    1  N   UNL     1      -5.934   0.997 -32.513  1.00  0.00    -0.308 N 
HETATM    2  C   UNL     1      -5.603   0.047 -31.561  1.00  0.00     0.261 C 
HETATM    3  O   UNL     1      -6.394  -0.353 -30.708  1.00  0.00    -0.267 OA
HETATM    4  H   UNL     1      -5.269   1.262 -33.228  1.00  0.00     0.170 HD
ENDROOT
BRANCH   1   5
HETATM    5  C   UNL     1      -7.205   1.533 -32.601  1.00  0.00     0.126 A 
HETATM    6  N   UNL     1      -7.757   2.382 -31.678  1.00  0.00    -0.262 N 
HETATM    7  N   UNL     1      -9.037   2.695 -31.933  1.00  0.00    -0.173 NA
HETATM    8  H   UNL     1      -7.309   2.742 -30.839  1.00  0.00     0.191 HD
HETATM    9  C   UNL     1      -9.308   2.070 -33.090  1.00  0.00     0.090 A 
HETATM   10  C   UNL     1      -8.177   1.341 -33.552  1.00  0.00     0.084 A 
BRANCH   9  11
HETATM   11  C   UNL     1     -10.629   2.140 -33.706  1.00  0.00    -0.005 A 
HETATM   12  C   UNL     1     -11.009   3.256 -34.461  1.00  0.00     0.020 A 
HETATM   13  C   UNL     1     -12.272   3.309 -35.067  1.00  0.00    -0.061 A 
HETATM   14  C   UNL     1     -12.709   4.524 -35.830  1.00  0.00     0.048 C 
HETATM   15  C   UNL     1     -13.150   2.227 -34.915  1.00  0.00     0.013 A 
HETATM   16  C   UNL     1     -12.779   1.097 -34.175  1.00  0.00    -0.061 A 
HETATM   17  C   UNL     1     -11.523   1.072 -33.556  1.00  0.00     0.020 A 
HETATM   18  C   UNL     1     -13.736  -0.045 -34.005  1.00  0.00     0.048 C 
ENDBRANCH   9  11
ENDBRANCH   1   5
BRANCH   2  19
HETATM   19  C   UNL     1      -4.257  -0.508 -31.658  1.00  0.00     0.080 A 
HETATM   20  C   UNL     1      -3.713  -1.634 -32.352  1.00  0.00     0.104 A 
HETATM   21  N   UNL     1      -2.408  -1.793 -32.074  1.00  0.00    -0.174 NA
HETATM   22  N   UNL     1      -2.102  -0.758 -31.285  1.00  0.00    -0.288 N 
HETATM   23  H   UNL     1      -1.142  -0.662 -30.966  1.00  0.00     0.188 HD
HETATM   24  C   UNL     1      -3.163   0.042 -31.010  1.00  0.00     0.128 A 
BRANCH  20  25
HETATM   25  C   UNL     1      -4.365  -2.566 -33.267  1.00  0.00    -0.004 A 
HETATM   26  C   UNL     1      -5.442  -2.148 -34.064  1.00  0.00     0.017 A 
HETATM   27  C   UNL     1      -6.066  -3.052 -34.926  1.00  0.00     0.043 A 
HETATM   28  C   UNL     1      -5.609  -4.363 -34.995  1.00  0.00     0.116 A 
HETATM   29  F   UNL     1      -6.212  -5.228 -35.822  1.00  0.00    -0.206 F 
HETATM   30  C   UNL     1      -4.536  -4.790 -34.222  1.00  0.00     0.043 A 
HETATM   31  C   UNL     1      -3.909  -3.890 -33.359  1.00  0.00     0.017 A 
ENDBRANCH  20  25
ENDBRANCH   2  19
TORSDOF 4
ENDMDL
MODEL 2
REMARK VINA RESULT:      -9.6      0.841      1.818
REMARK  4 active torsions:
REMARK  status: ('A' for Active; 'I' for Inactive)
REMARK    1  A    between atoms: C_4  and  C_5 
REMARK    2  A    between atoms: C_9  and  N_10 
REMARK       I    between atoms: N_10  and  C_11 
REMARK    3  A    between atoms: C_11  and  C_12 
REMARK    4  A    between atoms: C_13  and  C_14 
ROOT
HETATM    1  N   UNL     1      -6.530   0.057 -31.940  1.00  0.00    -0.308 N 
HETATM    2  C   UNL     1      -5.328   0.565 -32.405  1.00  0.00     0.261 C 
HETATM    3  O   UNL     1      -5.240   1.630 -33.016  1.00  0.00    -0.267 OA
HETATM    4  H   UNL     1      -6.551  -0.797 -31.400  1.00  0.00     0.170 HD
ENDROOT
BRANCH   1   5
HETATM    5  C   UNL     1      -7.721   0.742 -32.091  1.00  0.00     0.126 A 
HETATM    6  N   UNL     1      -8.276   1.557 -31.141  1.00  0.00    -0.262 N 
HETATM    7  N   UNL     1      -9.483   2.038 -31.482  1.00  0.00    -0.173 NA
HETATM    8  H   UNL     1      -7.885   1.783 -30.230  1.00  0.00     0.191 HD
HETATM    9  C   UNL     1      -9.693   1.560 -32.719  1.00  0.00     0.090 A 
HETATM   10  C   UNL     1      -8.601   0.753 -33.145  1.00  0.00     0.084 A 
BRANCH   9  11
HETATM   11  C   UNL     1     -10.926   1.838 -33.447  1.00  0.00    -0.005 A 
HETATM   12  C   UNL     1     -11.983   0.919 -33.442  1.00  0.00     0.020 A 
HETATM   13  C   UNL     1     -13.173   1.200 -34.127  1.00  0.00    -0.061 A 
HETATM   14  C   UNL     1     -14.289   0.198 -34.175  1.00  0.00     0.048 C 
HETATM   15  C   UNL     1     -13.298   2.416 -34.813  1.00  0.00     0.013 A 
HETATM   16  C   UNL     1     -12.257   3.352 -34.815  1.00  0.00    -0.061 A 
HETATM   17  C   UNL     1     -11.065   3.044 -34.146  1.00  0.00     0.020 A 
HETATM   18  C   UNL     1     -12.397   4.640 -35.569  1.00  0.00     0.048 C 
ENDBRANCH   9  11
ENDBRANCH   1   5
BRANCH   2  19
HETATM   19  C   UNL     1      -4.139  -0.215 -32.079  1.00  0.00     0.080 A 
HETATM   20  C   UNL     1      -3.708  -1.532 -32.434  1.00  0.00     0.104 A 
HETATM   21  N   UNL     1      -2.555  -1.848 -31.822  1.00  0.00    -0.174 NA
HETATM   22  N   UNL     1      -2.213  -0.741 -31.153  1.00  0.00    -0.288 N 
HETATM   23  H   UNL     1      -1.345  -0.745 -30.626  1.00  0.00     0.188 HD
HETATM   24  C   UNL     1      -3.117   0.263 -31.276  1.00  0.00     0.128 A 
BRANCH  20  25
HETATM   25  C   UNL     1      -4.332  -2.505 -33.325  1.00  0.00    -0.004 A 
HETATM   26  C   UNL     1      -5.402  -2.133 -34.153  1.00  0.00     0.017 A 
HETATM   27  C   UNL     1      -5.998  -3.077 -34.991  1.00  0.00     0.043 A 
HETATM   28  C   UNL     1      -5.520  -4.383 -35.007  1.00  0.00     0.116 A 
HETATM   29  F   UNL     1      -6.096  -5.285 -35.812  1.00  0.00    -0.206 F 
HETATM   30  C   UNL     1      -4.454  -4.765 -34.202  1.00  0.00     0.043 A 
HETATM   31  C   UNL     1      -3.854  -3.824 -33.363  1.00  0.00     0.017 A 
ENDBRANCH  20  25
ENDBRANCH   2  19
TORSDOF 4
ENDMDL
MODEL 3
REMARK VINA RESULT:      -9.6      3.438      8.760
REMARK  4 active torsions:
REMARK  status: ('A' for Active; 'I' for Inactive)
REMARK    1  A    between atoms: C_4  and  C_5 
REMARK    2  A    between atoms: C_9  and  N_10 
REMARK       I    between atoms: N_10  and  C_11 
REMARK    3  A    between atoms: C_11  and  C_12 
REMARK    4  A    between atoms: C_13  and  C_14 
ROOT
HETATM    1  N   UNL     1     -10.175   1.991 -32.336  1.00  0.00    -0.308 N 
HETATM    2  C   UNL     1     -10.245   3.370 -32.434  1.00  0.00     0.261 C 
HETATM    3  O   UNL     1      -9.472   4.035 -33.123  1.00  0.00    -0.267 OA
HETATM    4  H   UNL     1     -10.861   1.478 -31.798  1.00  0.00     0.170 HD
ENDROOT
BRANCH   1   5
HETATM    5  C   UNL     1      -9.250   1.253 -33.050  1.00  0.00     0.126 A 
HETATM    6  N   UNL     1      -9.161   1.228 -34.417  1.00  0.00    -0.262 N 
HETATM    7  N   UNL     1      -8.243   0.365 -34.881  1.00  0.00    -0.173 NA
HETATM    8  H   UNL     1      -9.732   1.754 -35.072  1.00  0.00     0.191 HD
HETATM    9  C   UNL     1      -7.680  -0.149 -33.776  1.00  0.00     0.090 A 
HETATM   10  C   UNL     1      -8.274   0.396 -32.602  1.00  0.00     0.084 A 
BRANCH   9  11
HETATM   11  C   UNL     1      -6.635  -1.163 -33.850  1.00  0.00    -0.005 A 
HETATM   12  C   UNL     1      -5.442  -1.015 -33.131  1.00  0.00     0.020 A 
HETATM   13  C   UNL     1      -4.449  -2.003 -33.190  1.00  0.00    -0.061 A 
HETATM   14  C   UNL     1      -3.145  -1.827 -32.470  1.00  0.00     0.048 C 
HETATM   15  C   UNL     1      -4.665  -3.146 -33.973  1.00  0.00     0.013 A 
HETATM   16  C   UNL     1      -5.858  -3.315 -34.685  1.00  0.00    -0.061 A 
HETATM   17  C   UNL     1      -6.829  -2.307 -34.635  1.00  0.00     0.020 A 
HETATM   18  C   UNL     1      -6.068  -4.534 -35.534  1.00  0.00     0.048 C 
ENDBRANCH   9  11
ENDBRANCH   1   5
BRANCH   2  19
HETATM   19  C   UNL     1     -11.340   4.004 -31.709  1.00  0.00     0.080 A 
HETATM   20  C   UNL     1     -12.763   3.857 -31.763  1.00  0.00     0.104 A 
HETATM   21  N   UNL     1     -13.373   4.725 -30.940  1.00  0.00    -0.174 NA
HETATM   22  N   UNL     1     -12.375   5.361 -30.317  1.00  0.00    -0.288 N 
HETATM   23  H   UNL     1     -12.609   6.060 -29.619  1.00  0.00     0.188 HD
HETATM   24  C   UNL     1     -11.145   4.967 -30.733  1.00  0.00     0.128 A 
BRANCH  20  25
HETATM   25  C   UNL     1     -13.571   2.934 -32.553  1.00  0.00    -0.004 A 
HETATM   26  C   UNL     1     -14.818   2.495 -32.083  1.00  0.00     0.017 A 
HETATM   27  C   UNL     1     -15.577   1.602 -32.842  1.00  0.00     0.043 A 
HETATM   28  C   UNL     1     -15.093   1.157 -34.067  1.00  0.00     0.116 A 
HETATM   29  F   UNL     1     -15.824   0.299 -34.791  1.00  0.00    -0.206 F 
HETATM   30  C   UNL     1     -13.865   1.591 -34.553  1.00  0.00     0.043 A 
HETATM   31  C   UNL     1     -13.105   2.484 -33.798  1.00  0.00     0.017 A 
ENDBRANCH  20  25
ENDBRANCH   2  19
TORSDOF 4
ENDMDL
MODEL 4
REMARK VINA RESULT:      -9.3      5.011      8.713
REMARK  4 active torsions:
REMARK  status: ('A' for Active; 'I' for Inactive)
REMARK    1  A    between atoms: C_4  and  C_5 
REMARK    2  A    between atoms: C_9  and  N_10 
REMARK       I    between atoms: N_10  and  C_11 
REMARK    3  A    between atoms: C_11  and  C_12 
REMARK    4  A    between atoms: C_13  and  C_14 
ROOT
HETATM    1  N   UNL     1      -5.941   3.469 -32.675  1.00  0.00    -0.308 N 
HETATM    2  C   UNL     1      -5.664   4.610 -33.410  1.00  0.00     0.261 C 
HETATM    3  O   UNL     1      -5.372   4.586 -34.605  1.00  0.00    -0.267 OA
HETATM    4  H   UNL     1      -6.225   3.538 -31.707  1.00  0.00     0.170 HD
ENDROOT
BRANCH   1   5
HETATM    5  C   UNL     1      -5.954   2.213 -33.252  1.00  0.00     0.126 A 
HETATM    6  N   UNL     1      -6.755   1.846 -34.300  1.00  0.00    -0.262 N 
HETATM    7  N   UNL     1      -6.656   0.547 -34.626  1.00  0.00    -0.173 NA
HETATM    8  H   UNL     1      -7.412   2.440 -34.800  1.00  0.00     0.191 HD
HETATM    9  C   UNL     1      -5.718   0.067 -33.793  1.00  0.00     0.090 A 
HETATM   10  C   UNL     1      -5.240   1.087 -32.923  1.00  0.00     0.084 A 
BRANCH   9  11
HETATM   11  C   UNL     1      -5.330  -1.339 -33.807  1.00  0.00    -0.005 A 
HETATM   12  C   UNL     1      -5.929  -2.238 -34.698  1.00  0.00     0.020 A 
HETATM   13  C   UNL     1      -5.538  -3.584 -34.721  1.00  0.00    -0.061 A 
HETATM   14  C   UNL     1      -6.214  -4.567 -35.630  1.00  0.00     0.048 C 
HETATM   15  C   UNL     1      -4.533  -4.020 -33.846  1.00  0.00     0.013 A 
HETATM   16  C   UNL     1      -3.913  -3.130 -32.961  1.00  0.00    -0.061 A 
HETATM   17  C   UNL     1      -4.334  -1.794 -32.933  1.00  0.00     0.020 A 
HETATM   18  C   UNL     1      -2.853  -3.614 -32.017  1.00  0.00     0.048 C 
ENDBRANCH   9  11
ENDBRANCH   1   5
BRANCH   2  19
HETATM   19  C   UNL     1      -5.792   5.874 -32.694  1.00  0.00     0.080 A 
HETATM   20  C   UNL     1      -4.852   6.709 -32.010  1.00  0.00     0.104 A 
HETATM   21  N   UNL     1      -5.464   7.756 -31.431  1.00  0.00    -0.174 NA
HETATM   22  N   UNL     1      -6.746   7.642 -31.793  1.00  0.00    -0.288 N 
HETATM   23  H   UNL     1      -7.401   8.354 -31.480  1.00  0.00     0.188 HD
HETATM   24  C   UNL     1      -6.996   6.543 -32.549  1.00  0.00     0.128 A 
BRANCH  20  25
HETATM   25  C   UNL     1      -3.406   6.567 -31.880  1.00  0.00    -0.004 A 
HETATM   26  C   UNL     1      -2.849   5.406 -31.324  1.00  0.00     0.017 A 
HETATM   27  C   UNL     1      -1.464   5.288 -31.194  1.00  0.00     0.043 A 
HETATM   28  C   UNL     1      -0.642   6.323 -31.625  1.00  0.00     0.116 A 
HETATM   29  F   UNL     1       0.687   6.206 -31.496  1.00  0.00    -0.206 F 
HETATM   30  C   UNL     1      -1.176   7.475 -32.188  1.00  0.00     0.043 A 
HETATM   31  C   UNL     1      -2.560   7.597 -32.322  1.00  0.00     0.017 A 
ENDBRANCH  20  25
ENDBRANCH   2  19
TORSDOF 4
ENDMDL
MODEL 5
REMARK VINA RESULT:      -9.0      4.518      8.105
REMARK  4 active torsions:
REMARK  status: ('A' for Active; 'I' for Inactive)
REMARK    1  A    between atoms: C_4  and  C_5 
REMARK    2  A    between atoms: C_9  and  N_10 
REMARK       I    between atoms: N_10  and  C_11 
REMARK    3  A    between atoms: C_11  and  C_12 
REMARK    4  A    between atoms: C_13  and  C_14 
ROOT
HETATM    1  N   UNL     1      -6.624   3.384 -31.811  1.00  0.00    -0.308 N 
HETATM    2  C   UNL     1      -6.947   2.683 -32.960  1.00  0.00     0.261 C 
HETATM    3  O   UNL     1      -6.366   2.845 -34.032  1.00  0.00    -0.267 OA
HETATM    4  H   UNL     1      -7.094   3.185 -30.938  1.00  0.00     0.170 HD
ENDROOT
BRANCH   1   5
HETATM    5  C   UNL     1      -5.583   4.293 -31.776  1.00  0.00     0.126 A 
HETATM    6  N   UNL     1      -5.404   5.306 -32.681  1.00  0.00    -0.262 N 
HETATM    7  N   UNL     1      -4.270   6.001 -32.495  1.00  0.00    -0.173 NA
HETATM    8  H   UNL     1      -6.010   5.535 -33.465  1.00  0.00     0.191 HD
HETATM    9  C   UNL     1      -3.722   5.453 -31.398  1.00  0.00     0.090 A 
HETATM   10  C   UNL     1      -4.525   4.386 -30.906  1.00  0.00     0.084 A 
BRANCH   9  11
HETATM   11  C   UNL     1      -2.444   5.916 -30.869  1.00  0.00    -0.005 A 
HETATM   12  C   UNL     1      -1.264   5.205 -31.123  1.00  0.00     0.020 A 
HETATM   13  C   UNL     1      -0.036   5.665 -30.628  1.00  0.00    -0.061 A 
HETATM   14  C   UNL     1       1.224   4.881 -30.846  1.00  0.00     0.048 C 
HETATM   15  C   UNL     1       0.001   6.852 -29.882  1.00  0.00     0.013 A 
HETATM   16  C   UNL     1      -1.167   7.582 -29.632  1.00  0.00    -0.061 A 
HETATM   17  C   UNL     1      -2.390   7.094 -30.112  1.00  0.00     0.020 A 
HETATM   18  C   UNL     1      -1.116   8.838 -28.816  1.00  0.00     0.048 C 
ENDBRANCH   9  11
ENDBRANCH   1   5
BRANCH   2  19
HETATM   19  C   UNL     1      -7.997   1.680 -32.819  1.00  0.00     0.080 A 
HETATM   20  C   UNL     1      -8.038   0.269 -33.056  1.00  0.00     0.104 A 
HETATM   21  N   UNL     1      -9.270  -0.223 -32.850  1.00  0.00    -0.174 NA
HETATM   22  N   UNL     1      -9.985   0.823 -32.419  1.00  0.00    -0.288 N 
HETATM   23  H   UNL     1     -10.960   0.673 -32.176  1.00  0.00     0.188 HD
HETATM   24  C   UNL     1      -9.275   1.978 -32.377  1.00  0.00     0.128 A 
BRANCH  20  25
HETATM   25  C   UNL     1      -6.968  -0.636 -33.465  1.00  0.00    -0.004 A 
HETATM   26  C   UNL     1      -7.117  -1.452 -34.596  1.00  0.00     0.017 A 
HETATM   27  C   UNL     1      -6.092  -2.324 -34.969  1.00  0.00     0.043 A 
HETATM   28  C   UNL     1      -4.922  -2.370 -34.220  1.00  0.00     0.116 A 
HETATM   29  F   UNL     1      -3.941  -3.208 -34.581  1.00  0.00    -0.206 F 
HETATM   30  C   UNL     1      -4.753  -1.559 -33.104  1.00  0.00     0.043 A 
HETATM   31  C   UNL     1      -5.775  -0.686 -32.728  1.00  0.00     0.017 A 
ENDBRANCH  20  25
ENDBRANCH   2  19
TORSDOF 4
ENDMDL
MODEL 6
REMARK VINA RESULT:      -8.9      4.955      7.955
REMARK  4 active torsions:
REMARK  status: ('A' for Active; 'I' for Inactive)
REMARK    1  A    between atoms: C_4  and  C_5 
REMARK    2  A    between atoms: C_9  and  N_10 
REMARK       I    between atoms: N_10  and  C_11 
REMARK    3  A    between atoms: C_11  and  C_12 
REMARK    4  A    between atoms: C_13  and  C_14 
ROOT
HETATM    1  N   UNL     1      -5.082   3.088 -33.344  1.00  0.00    -0.308 N 
HETATM    2  C   UNL     1      -5.919   2.185 -32.709  1.00  0.00     0.261 C 
HETATM    3  O   UNL     1      -5.811   1.890 -31.519  1.00  0.00    -0.267 OA
HETATM    4  H   UNL     1      -5.236   3.340 -34.311  1.00  0.00     0.170 HD
ENDROOT
BRANCH   1   5
HETATM    5  C   UNL     1      -4.084   3.763 -32.665  1.00  0.00     0.126 A 
HETATM    6  N   UNL     1      -2.940   3.183 -32.185  1.00  0.00    -0.262 N 
HETATM    7  N   UNL     1      -2.165   4.023 -31.480  1.00  0.00    -0.173 NA
HETATM    8  H   UNL     1      -2.665   2.209 -32.283  1.00  0.00     0.191 HD
HETATM    9  C   UNL     1      -2.804   5.201 -31.550  1.00  0.00     0.090 A 
HETATM   10  C   UNL     1      -4.008   5.084 -32.300  1.00  0.00     0.084 A 
BRANCH   9  11
HETATM   11  C   UNL     1      -2.292   6.390 -30.878  1.00  0.00    -0.005 A 
HETATM   12  C   UNL     1      -2.974   7.611 -30.962  1.00  0.00     0.020 A 
HETATM   13  C   UNL     1      -2.488   8.745 -30.299  1.00  0.00    -0.061 A 
HETATM   14  C   UNL     1      -3.180  10.070 -30.430  1.00  0.00     0.048 C 
HETATM   15  C   UNL     1      -1.312   8.644 -29.541  1.00  0.00     0.013 A 
HETATM   16  C   UNL     1      -0.627   7.428 -29.434  1.00  0.00    -0.061 A 
HETATM   17  C   UNL     1      -1.113   6.310 -30.125  1.00  0.00     0.020 A 
HETATM   18  C   UNL     1       0.639   7.340 -28.636  1.00  0.00     0.048 C 
ENDBRANCH   9  11
ENDBRANCH   1   5
BRANCH   2  19
HETATM   19  C   UNL     1      -6.993   1.632 -33.526  1.00  0.00     0.080 A 
HETATM   20  C   UNL     1      -7.164   0.379 -34.196  1.00  0.00     0.104 A 
HETATM   21  N   UNL     1      -8.309   0.355 -34.898  1.00  0.00    -0.174 NA
HETATM   22  N   UNL     1      -8.896   1.526 -34.628  1.00  0.00    -0.288 N 
HETATM   23  H   UNL     1      -9.803   1.718 -35.042  1.00  0.00     0.188 HD
HETATM   24  C   UNL     1      -8.159   2.322 -33.813  1.00  0.00     0.128 A 
BRANCH  20  25
HETATM   25  C   UNL     1      -6.299  -0.797 -34.203  1.00  0.00    -0.004 A 
HETATM   26  C   UNL     1      -4.993  -0.726 -33.695  1.00  0.00     0.017 A 
HETATM   27  C   UNL     1      -4.171  -1.854 -33.720  1.00  0.00     0.043 A 
HETATM   28  C   UNL     1      -4.657  -3.048 -34.242  1.00  0.00     0.116 A 
HETATM   29  F   UNL     1      -3.864  -4.127 -34.264  1.00  0.00    -0.206 F 
HETATM   30  C   UNL     1      -5.952  -3.138 -34.738  1.00  0.00     0.043 A 
HETATM   31  C   UNL     1      -6.777  -2.013 -34.715  1.00  0.00     0.017 A 
ENDBRANCH  20  25
ENDBRANCH   2  19
TORSDOF 4
ENDMDL
MODEL 7
REMARK VINA RESULT:      -8.9      3.171      8.767
REMARK  4 active torsions:
REMARK  status: ('A' for Active; 'I' for Inactive)
REMARK    1  A    between atoms: C_4  and  C_5 
REMARK    2  A    between atoms: C_9  and  N_10 
REMARK       I    between atoms: N_10  and  C_11 
REMARK    3  A    between atoms: C_11  and  C_12 
REMARK    4  A    between atoms: C_13  and  C_14 
ROOT
HETATM    1  N   UNL     1      -9.561   3.156 -34.381  1.00  0.00    -0.308 N 
HETATM    2  C   UNL     1      -9.503   4.527 -34.568  1.00  0.00     0.261 C 
HETATM    3  O   UNL     1      -8.466   5.178 -34.445  1.00  0.00    -0.267 OA
HETATM    4  H   UNL     1     -10.423   2.652 -34.541  1.00  0.00     0.170 HD
ENDROOT
BRANCH   1   5
HETATM    5  C   UNL     1      -8.436   2.409 -34.086  1.00  0.00     0.126 A 
HETATM    6  N   UNL     1      -7.234   2.935 -33.694  1.00  0.00    -0.262 N 
HETATM    7  N   UNL     1      -6.264   2.016 -33.553  1.00  0.00    -0.173 NA
HETATM    8  H   UNL     1      -7.019   3.917 -33.546  1.00  0.00     0.191 HD
HETATM    9  C   UNL     1      -6.873   0.848 -33.812  1.00  0.00     0.090 A 
HETATM   10  C   UNL     1      -8.245   1.050 -34.136  1.00  0.00     0.084 A 
BRANCH   9  11
HETATM   11  C   UNL     1      -6.146  -0.416 -33.791  1.00  0.00    -0.005 A 
HETATM   12  C   UNL     1      -6.570  -1.500 -34.570  1.00  0.00     0.020 A 
HETATM   13  C   UNL     1      -5.855  -2.706 -34.560  1.00  0.00    -0.061 A 
HETATM   14  C   UNL     1      -6.334  -3.891 -35.346  1.00  0.00     0.048 C 
HETATM   15  C   UNL     1      -4.705  -2.814 -33.766  1.00  0.00     0.013 A 
HETATM   16  C   UNL     1      -4.259  -1.735 -32.994  1.00  0.00    -0.061 A 
HETATM   17  C   UNL     1      -4.999  -0.545 -32.996  1.00  0.00     0.020 A 
HETATM   18  C   UNL     1      -3.037  -1.871 -32.135  1.00  0.00     0.048 C 
ENDBRANCH   9  11
ENDBRANCH   1   5
BRANCH   2  19
HETATM   19  C   UNL     1     -10.747   5.166 -34.981  1.00  0.00     0.080 A 
HETATM   20  C   UNL     1     -12.108   4.725 -35.009  1.00  0.00     0.104 A 
HETATM   21  N   UNL     1     -12.909   5.658 -35.551  1.00  0.00    -0.174 NA
HETATM   22  N   UNL     1     -12.103   6.697 -35.794  1.00  0.00    -0.288 N 
HETATM   23  H   UNL     1     -12.509   7.540 -36.191  1.00  0.00     0.188 HD
HETATM   24  C   UNL     1     -10.808   6.460 -35.469  1.00  0.00     0.128 A 
BRANCH  20  25
HETATM   25  C   UNL     1     -12.688   3.468 -34.547  1.00  0.00    -0.004 A 
HETATM   26  C   UNL     1     -12.579   2.304 -35.321  1.00  0.00     0.017 A 
HETATM   27  C   UNL     1     -13.149   1.110 -34.874  1.00  0.00     0.043 A 
HETATM   28  C   UNL     1     -13.818   1.082 -33.656  1.00  0.00     0.116 A 
HETATM   29  F   UNL     1     -14.365  -0.065 -33.231  1.00  0.00    -0.206 F 
HETATM   30  C   UNL     1     -13.925   2.224 -32.871  1.00  0.00     0.043 A 
HETATM   31  C   UNL     1     -13.355   3.418 -33.313  1.00  0.00     0.017 A 
ENDBRANCH  20  25
ENDBRANCH   2  19
TORSDOF 4
ENDMDL
MODEL 8
REMARK VINA RESULT:      -8.7      6.374      9.592
REMARK  4 active torsions:
REMARK  status: ('A' for Active; 'I' for Inactive)
REMARK    1  A    between atoms: C_4  and  C_5 
REMARK    2  A    between atoms: C_9  and  N_10 
REMARK       I    between atoms: N_10  and  C_11 
REMARK    3  A    between atoms: C_11  and  C_12 
REMARK    4  A    between atoms: C_13  and  C_14 
ROOT
HETATM    1  N   UNL     1      -3.216   4.163 -32.307  1.00  0.00    -0.308 N 
HETATM    2  C   UNL     1      -2.066   4.768 -31.830  1.00  0.00     0.261 C 
HETATM    3  O   UNL     1      -1.201   4.164 -31.195  1.00  0.00    -0.267 OA
HETATM    4  H   UNL     1      -3.877   4.684 -32.867  1.00  0.00     0.170 HD
ENDROOT
BRANCH   1   5
HETATM    5  C   UNL     1      -3.454   2.811 -32.142  1.00  0.00     0.126 A 
HETATM    6  N   UNL     1      -3.095   2.087 -31.036  1.00  0.00    -0.262 N 
HETATM    7  N   UNL     1      -3.350   0.773 -31.146  1.00  0.00    -0.173 NA
HETATM    8  H   UNL     1      -2.640   2.442 -30.199  1.00  0.00     0.191 HD
HETATM    9  C   UNL     1      -3.943   0.650 -32.344  1.00  0.00     0.090 A 
HETATM   10  C   UNL     1      -4.042   1.911 -32.996  1.00  0.00     0.084 A 
BRANCH   9  11
HETATM   11  C   UNL     1      -4.360  -0.649 -32.860  1.00  0.00    -0.005 A 
HETATM   12  C   UNL     1      -5.498  -0.766 -33.669  1.00  0.00     0.020 A 
HETATM   13  C   UNL     1      -5.883  -2.014 -34.178  1.00  0.00    -0.061 A 
HETATM   14  C   UNL     1      -7.132  -2.159 -34.997  1.00  0.00     0.048 C 
HETATM   15  C   UNL     1      -5.112  -3.145 -33.876  1.00  0.00     0.013 A 
HETATM   16  C   UNL     1      -3.963  -3.042 -33.082  1.00  0.00    -0.061 A 
HETATM   17  C   UNL     1      -3.607  -1.792 -32.560  1.00  0.00     0.020 A 
HETATM   18  C   UNL     1      -3.159  -4.264 -32.751  1.00  0.00     0.048 C 
ENDBRANCH   9  11
ENDBRANCH   1   5
BRANCH   2  19
HETATM   19  C   UNL     1      -1.899   6.176 -32.172  1.00  0.00     0.080 A 
HETATM   20  C   UNL     1      -1.497   7.323 -31.418  1.00  0.00     0.104 A 
HETATM   21  N   UNL     1      -1.566   8.442 -32.159  1.00  0.00    -0.174 NA
HETATM   22  N   UNL     1      -1.928   8.019 -33.375  1.00  0.00    -0.288 N 
HETATM   23  H   UNL     1      -2.020   8.707 -34.117  1.00  0.00     0.188 HD
HETATM   24  C   UNL     1      -2.134   6.680 -33.441  1.00  0.00     0.128 A 
BRANCH  20  25
HETATM   25  C   UNL     1      -1.048   7.414 -30.032  1.00  0.00    -0.004 A 
HETATM   26  C   UNL     1      -1.972   7.597 -28.992  1.00  0.00     0.017 A 
HETATM   27  C   UNL     1      -1.528   7.695 -27.672  1.00  0.00     0.043 A 
HETATM   28  C   UNL     1      -0.169   7.602 -27.394  1.00  0.00     0.116 A 
HETATM   29  F   UNL     1       0.252   7.697 -26.126  1.00  0.00    -0.206 F 
HETATM   30  C   UNL     1       0.758   7.408 -28.411  1.00  0.00     0.043 A 
HETATM   31  C   UNL     1       0.319   7.309 -29.732  1.00  0.00     0.017 A 
ENDBRANCH  20  25
ENDBRANCH   2  19
TORSDOF 4
ENDMDL
MODEL 9
REMARK VINA RESULT:      -8.7      6.533      9.472
REMARK  4 active torsions:
REMARK  status: ('A' for Active; 'I' for Inactive)
REMARK    1  A    between atoms: C_4  and  C_5 
REMARK    2  A    between atoms: C_9  and  N_10 
REMARK       I    between atoms: N_10  and  C_11 
REMARK    3  A    between atoms: C_11  and  C_12 
REMARK    4  A    between atoms: C_13  and  C_14 
ROOT
HETATM    1  N   UNL     1      -4.345   4.767 -30.158  1.00  0.00    -0.308 N 
HETATM    2  C   UNL     1      -3.711   5.923 -30.583  1.00  0.00     0.261 C 
HETATM    3  O   UNL     1      -2.980   5.963 -31.573  1.00  0.00    -0.267 OA
HETATM    4  H   UNL     1      -4.976   4.789 -29.369  1.00  0.00     0.170 HD
ENDROOT
BRANCH   1   5
HETATM    5  C   UNL     1      -4.237   3.576 -30.851  1.00  0.00     0.126 A 
HETATM    6  N   UNL     1      -3.059   2.917 -31.086  1.00  0.00    -0.262 N 
HETATM    7  N   UNL     1      -3.197   1.828 -31.860  1.00  0.00    -0.173 NA
HETATM    8  H   UNL     1      -2.134   3.194 -30.771  1.00  0.00     0.191 HD
HETATM    9  C   UNL     1      -4.518   1.749 -32.090  1.00  0.00     0.090 A 
HETATM   10  C   UNL     1      -5.209   2.821 -31.459  1.00  0.00     0.084 A 
BRANCH   9  11
HETATM   11  C   UNL     1      -5.087   0.699 -32.927  1.00  0.00    -0.005 A 
HETATM   12  C   UNL     1      -6.254   0.927 -33.667  1.00  0.00     0.020 A 
HETATM   13  C   UNL     1      -6.786  -0.079 -34.485  1.00  0.00    -0.061 A 
HETATM   14  C   UNL     1      -8.066   0.136 -35.236  1.00  0.00     0.048 C 
HETATM   15  C   UNL     1      -6.132  -1.317 -34.561  1.00  0.00     0.013 A 
HETATM   16  C   UNL     1      -4.956  -1.556 -33.839  1.00  0.00    -0.061 A 
HETATM   17  C   UNL     1      -4.453  -0.548 -33.007  1.00  0.00     0.020 A 
HETATM   18  C   UNL     1      -4.278  -2.891 -33.914  1.00  0.00     0.048 C 
ENDBRANCH   9  11
ENDBRANCH   1   5
BRANCH   2  19
HETATM   19  C   UNL     1      -4.003   7.128 -29.816  1.00  0.00     0.080 A 
HETATM   20  C   UNL     1      -3.274   7.851 -28.818  1.00  0.00     0.104 A 
HETATM   21  N   UNL     1      -3.996   8.877 -28.338  1.00  0.00    -0.174 NA
HETATM   22  N   UNL     1      -5.124   8.864 -29.056  1.00  0.00    -0.288 N 
HETATM   23  H   UNL     1      -5.820   9.582 -28.875  1.00  0.00     0.188 HD
HETATM   24  C   UNL     1      -5.178   7.847 -29.953  1.00  0.00     0.128 A 
BRANCH  20  25
HETATM   25  C   UNL     1      -1.930   7.620 -28.300  1.00  0.00    -0.004 A 
HETATM   26  C   UNL     1      -1.741   7.061 -27.027  1.00  0.00     0.017 A 
HETATM   27  C   UNL     1      -0.450   6.857 -26.537  1.00  0.00     0.043 A 
HETATM   28  C   UNL     1       0.645   7.204 -27.320  1.00  0.00     0.116 A 
HETATM   29  F   UNL     1       1.883   7.007 -26.846  1.00  0.00    -0.206 F 
HETATM   30  C   UNL     1       0.477   7.747 -28.588  1.00  0.00     0.043 A 
HETATM   31  C   UNL     1      -0.813   7.952 -29.082  1.00  0.00     0.017 A 
ENDBRANCH  20  25
ENDBRANCH   2  19
TORSDOF 4
ENDMDL
MODEL 10
REMARK VINA RESULT:      -8.7      6.413      8.846
REMARK  4 active torsions:
REMARK  status: ('A' for Active; 'I' for Inactive)
REMARK    1  A    between atoms: C_4  and  C_5 
REMARK    2  A    between atoms: C_9  and  N_10 
REMARK       I    between atoms: N_10  and  C_11 
REMARK    3  A    between atoms: C_11  and  C_12 
REMARK    4  A    between atoms: C_13  and  C_14 
ROOT
HETATM    1  N   UNL     1      -2.561   4.034 -31.252  1.00  0.00    -0.308 N 
HETATM    2  C   UNL     1      -2.596   5.406 -31.068  1.00  0.00     0.261 C 
HETATM    3  O   UNL     1      -3.643   6.050 -31.007  1.00  0.00    -0.267 OA
HETATM    4  H   UNL     1      -1.681   3.537 -31.247  1.00  0.00     0.170 HD
ENDROOT
BRANCH   1   5
HETATM    5  C   UNL     1      -3.716   3.278 -31.335  1.00  0.00     0.126 A 
HETATM    6  N   UNL     1      -4.674   3.211 -30.359  1.00  0.00    -0.262 N 
HETATM    7  N   UNL     1      -5.658   2.337 -30.629  1.00  0.00    -0.173 NA
HETATM    8  H   UNL     1      -4.678   3.714 -29.476  1.00  0.00     0.191 HD
HETATM    9  C   UNL     1      -5.353   1.861 -31.846  1.00  0.00     0.090 A 
HETATM   10  C   UNL     1      -4.147   2.439 -32.333  1.00  0.00     0.084 A 
BRANCH   9  11
HETATM   11  C   UNL     1      -6.176   0.848 -32.499  1.00  0.00    -0.005 A 
HETATM   12  C   UNL     1      -7.573   0.887 -32.398  1.00  0.00     0.020 A 
HETATM   13  C   UNL     1      -8.359  -0.077 -33.044  1.00  0.00    -0.061 A 
HETATM   14  C   UNL     1      -9.852  -0.079 -32.894  1.00  0.00     0.048 C 
HETATM   15  C   UNL     1      -7.733  -1.078 -33.800  1.00  0.00     0.013 A 
HETATM   16  C   UNL     1      -6.339  -1.121 -33.923  1.00  0.00    -0.061 A 
HETATM   17  C   UNL     1      -5.567  -0.165 -33.251  1.00  0.00     0.020 A 
HETATM   18  C   UNL     1      -5.682  -2.209 -34.719  1.00  0.00     0.048 C 
ENDBRANCH   9  11
ENDBRANCH   1   5
BRANCH   2  19
HETATM   19  C   UNL     1      -1.302   6.057 -30.891  1.00  0.00     0.080 A 
HETATM   20  C   UNL     1      -0.694   6.734 -29.787  1.00  0.00     0.104 A 
HETATM   21  N   UNL     1       0.503   7.240 -30.127  1.00  0.00    -0.174 NA
HETATM   22  N   UNL     1       0.695   6.838 -31.388  1.00  0.00    -0.288 N 
HETATM   23  H   UNL     1       1.563   7.092 -31.849  1.00  0.00     0.188 HD
HETATM   24  C   UNL     1      -0.346   6.126 -31.890  1.00  0.00     0.128 A 
BRANCH  20  25
HETATM   25  C   UNL     1      -1.186   6.922 -28.426  1.00  0.00    -0.004 A 
HETATM   26  C   UNL     1      -2.295   7.744 -28.175  1.00  0.00     0.017 A 
HETATM   27  C   UNL     1      -2.749   7.927 -26.867  1.00  0.00     0.043 A 
HETATM   28  C   UNL     1      -2.101   7.283 -25.819  1.00  0.00     0.116 A 
HETATM   29  F   UNL     1      -2.538   7.462 -24.565  1.00  0.00    -0.206 F 
HETATM   30  C   UNL     1      -1.008   6.456 -26.051  1.00  0.00     0.043 A 
HETATM   31  C   UNL     1      -0.552   6.271 -27.357  1.00  0.00     0.017 A 
ENDBRANCH  20  25
ENDBRANCH   2  19
TORSDOF 4
ENDMDL
