MODEL 1
REMARK VINA RESULT:      -9.6      0.000      0.000
REMARK  5 active torsions:
REMARK  status: ('A' for Active; 'I' for Inactive)
REMARK    1  A    between atoms: C_4  and  C_5 
REMARK       I    between atoms: N_6  and  C_7 
REMARK    2  A    between atoms: C_7  and  C_8 
REMARK    3  A    between atoms: C_8  and  C_9 
REMARK    4  A    between atoms: C_11  and  O_12 
REMARK    5  A    between atoms: C_14  and  O_15 
ROOT
HETATM    1  C   UNL     1      -7.127   3.802 -33.867  1.00  0.00     0.189 C 
HETATM    2  N   UNL     1      -7.347   2.679 -32.922  1.00  0.00    -0.336 N 
HETATM    3  C   UNL     1      -7.958   1.537 -33.406  1.00  0.00     0.225 C 
HETATM    4  O   UNL     1      -8.566   1.524 -34.480  1.00  0.00    -0.273 OA
HETATM    5  C   UNL     1      -6.835   2.864 -31.546  1.00  0.00     0.132 C 
HETATM    6  C   UNL     1      -5.305   2.999 -31.509  1.00  0.00     0.061 C 
HETATM    7  C   UNL     1      -4.839   3.849 -32.639  1.00  0.00    -0.019 A 
HETATM    8  C   UNL     1      -5.672   4.194 -33.690  1.00  0.00     0.046 A 
HETATM    9  N   UNL     1      -4.912   4.870 -34.609  1.00  0.00    -0.356 N 
HETATM   10  H   UNL     1      -5.226   5.203 -35.508  1.00  0.00     0.166 HD
HETATM   11  C   UNL     1      -3.617   4.999 -34.154  1.00  0.00     0.043 A 
HETATM   12  C   UNL     1      -3.545   4.368 -32.912  1.00  0.00    -0.001 A 
HETATM   13  C   UNL     1      -2.507   5.604 -34.756  1.00  0.00     0.030 A 
HETATM   14  C   UNL     1      -1.292   5.562 -34.064  1.00  0.00     0.002 A 
HETATM   15  C   UNL     1      -1.192   4.940 -32.822  1.00  0.00     0.001 A 
HETATM   16  C   UNL     1      -2.311   4.338 -32.235  1.00  0.00     0.014 A 
ENDROOT
BRANCH   1  17
HETATM   17  C   UNL     1      -8.120   4.969 -33.717  1.00  0.00     0.063 A 
HETATM   18  N   UNL     1      -9.176   5.073 -34.572  1.00  0.00    -0.256 NA
HETATM   19  C   UNL     1     -10.013   6.133 -34.440  1.00  0.00     0.031 A 
HETATM   20  C   UNL     1     -11.136   6.255 -35.424  1.00  0.00     0.070 C 
HETATM   21  C   UNL     1      -9.847   7.107 -33.464  1.00  0.00     0.027 A 
HETATM   22  C   UNL     1      -8.775   6.999 -32.592  1.00  0.00     0.004 A 
HETATM   23  C   UNL     1      -7.896   5.929 -32.724  1.00  0.00     0.030 A 
ENDBRANCH   1  17
BRANCH   3  24
HETATM   24  C   UNL     1      -7.741   0.238 -32.649  1.00  0.00     0.141 C 
BRANCH  24  25
HETATM   25  C   UNL     1      -6.655  -0.707 -33.109  1.00  0.00    -0.047 A 
HETATM   26  C   UNL     1      -6.795  -1.607 -34.173  1.00  0.00     0.047 A 
HETATM   27  C   UNL     1      -5.756  -2.494 -34.499  1.00  0.00     0.102 A 
HETATM   28  C   UNL     1      -4.546  -2.462 -33.777  1.00  0.00     0.101 A 
HETATM   29  C   UNL     1      -4.395  -1.543 -32.739  1.00  0.00     0.040 A 
HETATM   30  C   UNL     1      -5.440  -0.682 -32.406  1.00  0.00     0.010 A 
BRANCH  27  31
HETATM   31  O   UNL     1      -5.826  -3.419 -35.513  1.00  0.00    -0.353 OA
HETATM   32  C   UNL     1      -6.709  -4.515 -35.317  1.00  0.00     0.210 C 
ENDBRANCH  27  31
BRANCH  28  33
HETATM   33  O   UNL     1      -3.583  -3.362 -34.161  1.00  0.00    -0.353 OA
HETATM   34  C   UNL     1      -3.452  -4.547 -33.388  1.00  0.00     0.210 C 
ENDBRANCH  28  33
ENDBRANCH  24  25
ENDBRANCH   3  24
TORSDOF 5
ENDMDL
MODEL 2
REMARK VINA RESULT:      -9.5      0.627      1.640
REMARK  5 active torsions:
REMARK  status: ('A' for Active; 'I' for Inactive)
REMARK    1  A    between atoms: C_4  and  C_5 
REMARK       I    between atoms: N_6  and  C_7 
REMARK    2  A    between atoms: C_7  and  C_8 
REMARK    3  A    between atoms: C_8  and  C_9 
REMARK    4  A    between atoms: C_11  and  O_12 
REMARK    5  A    between atoms: C_14  and  O_15 
ROOT
HETATM    1  C   UNL     1      -7.246   3.888 -33.858  1.00  0.00     0.189 C 
HETATM    2  N   UNL     1      -7.502   2.774 -32.913  1.00  0.00    -0.336 N 
HETATM    3  C   UNL     1      -8.139   1.646 -33.399  1.00  0.00     0.225 C 
HETATM    4  O   UNL     1      -8.738   1.646 -34.478  1.00  0.00    -0.273 OA
HETATM    5  C   UNL     1      -6.998   2.949 -31.533  1.00  0.00     0.132 C 
HETATM    6  C   UNL     1      -5.466   3.044 -31.483  1.00  0.00     0.061 C 
HETATM    7  C   UNL     1      -4.967   3.879 -32.611  1.00  0.00    -0.019 A 
HETATM    8  C   UNL     1      -5.782   4.242 -33.670  1.00  0.00     0.046 A 
HETATM    9  N   UNL     1      -4.997   4.896 -34.584  1.00  0.00    -0.356 N 
HETATM   10  H   UNL     1      -5.295   5.235 -35.487  1.00  0.00     0.166 HD
HETATM   11  C   UNL     1      -3.703   4.993 -34.118  1.00  0.00     0.043 A 
HETATM   12  C   UNL     1      -3.659   4.363 -32.874  1.00  0.00    -0.001 A 
HETATM   13  C   UNL     1      -2.573   5.567 -34.713  1.00  0.00     0.030 A 
HETATM   14  C   UNL     1      -1.365   5.496 -34.010  1.00  0.00     0.002 A 
HETATM   15  C   UNL     1      -1.292   4.875 -32.765  1.00  0.00     0.001 A 
HETATM   16  C   UNL     1      -2.431   4.303 -32.187  1.00  0.00     0.014 A 
ENDROOT
BRANCH   1  17
HETATM   17  C   UNL     1      -8.209   5.081 -33.720  1.00  0.00     0.063 A 
HETATM   18  N   UNL     1      -9.228   5.234 -34.612  1.00  0.00    -0.256 NA
HETATM   19  C   UNL     1     -10.038   6.315 -34.489  1.00  0.00     0.031 A 
HETATM   20  C   UNL     1     -11.119   6.492 -35.511  1.00  0.00     0.070 C 
HETATM   21  C   UNL     1      -9.882   7.264 -33.484  1.00  0.00     0.027 A 
HETATM   22  C   UNL     1      -8.848   7.104 -32.575  1.00  0.00     0.004 A 
HETATM   23  C   UNL     1      -7.996   6.012 -32.698  1.00  0.00     0.030 A 
ENDBRANCH   1  17
BRANCH   3  24
HETATM   24  C   UNL     1      -7.962   0.344 -32.637  1.00  0.00     0.141 C 
BRANCH  24  25
HETATM   25  C   UNL     1      -6.860  -0.604 -33.050  1.00  0.00    -0.047 A 
HETATM   26  C   UNL     1      -5.592  -0.643 -32.454  1.00  0.00     0.047 A 
HETATM   27  C   UNL     1      -4.602  -1.514 -32.938  1.00  0.00     0.102 A 
HETATM   28  C   UNL     1      -4.889  -2.385 -34.007  1.00  0.00     0.101 A 
HETATM   29  C   UNL     1      -6.161  -2.369 -34.579  1.00  0.00     0.040 A 
HETATM   30  C   UNL     1      -7.131  -1.484 -34.109  1.00  0.00     0.010 A 
BRANCH  27  31
HETATM   31  O   UNL     1      -3.332  -1.595 -32.421  1.00  0.00    -0.353 OA
HETATM   32  C   UNL     1      -2.899  -0.504 -31.620  1.00  0.00     0.210 C 
ENDBRANCH  27  31
BRANCH  28  33
HETATM   33  O   UNL     1      -3.866  -3.204 -34.418  1.00  0.00    -0.353 OA
HETATM   34  C   UNL     1      -3.959  -4.582 -34.083  1.00  0.00     0.210 C 
ENDBRANCH  28  33
ENDBRANCH  24  25
ENDBRANCH   3  24
TORSDOF 5
ENDMDL
MODEL 3
REMARK VINA RESULT:      -9.3      2.717      6.488
REMARK  5 active torsions:
REMARK  status: ('A' for Active; 'I' for Inactive)
REMARK    1  A    between atoms: C_4  and  C_5 
REMARK       I    between atoms: N_6  and  C_7 
REMARK    2  A    between atoms: C_7  and  C_8 
REMARK    3  A    between atoms: C_8  and  C_9 
REMARK    4  A    between atoms: C_11  and  O_12 
REMARK    5  A    between atoms: C_14  and  O_15 
ROOT
HETATM    1  C   UNL     1      -5.191   2.088 -32.050  1.00  0.00     0.189 C 
HETATM    2  N   UNL     1      -6.454   2.545 -32.679  1.00  0.00    -0.336 N 
HETATM    3  C   UNL     1      -7.596   2.561 -31.899  1.00  0.00     0.225 C 
HETATM    4  O   UNL     1      -7.664   1.960 -30.824  1.00  0.00    -0.273 OA
HETATM    5  C   UNL     1      -6.365   3.001 -34.084  1.00  0.00     0.132 C 
HETATM    6  C   UNL     1      -5.480   4.248 -34.235  1.00  0.00     0.061 C 
HETATM    7  C   UNL     1      -4.272   4.126 -33.373  1.00  0.00    -0.019 A 
HETATM    8  C   UNL     1      -4.165   3.152 -32.395  1.00  0.00     0.046 A 
HETATM    9  N   UNL     1      -3.000   3.386 -31.710  1.00  0.00    -0.356 N 
HETATM   10  H   UNL     1      -2.673   2.876 -30.904  1.00  0.00     0.166 HD
HETATM   11  C   UNL     1      -2.339   4.469 -32.251  1.00  0.00     0.043 A 
HETATM   12  C   UNL     1      -3.118   4.950 -33.304  1.00  0.00    -0.001 A 
HETATM   13  C   UNL     1      -1.130   5.065 -31.875  1.00  0.00     0.030 A 
HETATM   14  C   UNL     1      -0.707   6.185 -32.600  1.00  0.00     0.002 A 
HETATM   15  C   UNL     1      -1.463   6.686 -33.656  1.00  0.00     0.001 A 
HETATM   16  C   UNL     1      -2.672   6.079 -34.018  1.00  0.00     0.014 A 
ENDROOT
BRANCH   1  17
HETATM   17  C   UNL     1      -4.769   0.656 -32.427  1.00  0.00     0.063 A 
HETATM   18  N   UNL     1      -5.483  -0.037 -33.358  1.00  0.00    -0.256 NA
HETATM   19  C   UNL     1      -5.111  -1.310 -33.642  1.00  0.00     0.031 A 
HETATM   20  C   UNL     1      -5.942  -2.070 -34.631  1.00  0.00     0.070 C 
HETATM   21  C   UNL     1      -4.027  -1.932 -33.035  1.00  0.00     0.027 A 
HETATM   22  C   UNL     1      -3.299  -1.226 -32.090  1.00  0.00     0.004 A 
HETATM   23  C   UNL     1      -3.677   0.074 -31.773  1.00  0.00     0.030 A 
ENDBRANCH   1  17
BRANCH   3  24
HETATM   24  C   UNL     1      -8.737   3.468 -32.328  1.00  0.00     0.141 C 
BRANCH  24  25
HETATM   25  C   UNL     1      -9.881   2.883 -33.122  1.00  0.00    -0.047 A 
HETATM   26  C   UNL     1     -10.660   3.609 -34.032  1.00  0.00     0.047 A 
HETATM   27  C   UNL     1     -11.746   3.004 -34.686  1.00  0.00     0.102 A 
HETATM   28  C   UNL     1     -12.039   1.645 -34.458  1.00  0.00     0.101 A 
HETATM   29  C   UNL     1     -11.244   0.913 -33.578  1.00  0.00     0.040 A 
HETATM   30  C   UNL     1     -10.183   1.528 -32.913  1.00  0.00     0.010 A 
BRANCH  27  31
HETATM   31  O   UNL     1     -12.567   3.656 -35.574  1.00  0.00    -0.353 OA
HETATM   32  C   UNL     1     -12.686   5.063 -35.418  1.00  0.00     0.210 C 
ENDBRANCH  27  31
BRANCH  28  33
HETATM   33  O   UNL     1     -13.116   1.131 -35.139  1.00  0.00    -0.353 OA
HETATM   34  C   UNL     1     -14.249   0.747 -34.372  1.00  0.00     0.210 C 
ENDBRANCH  28  33
ENDBRANCH  24  25
ENDBRANCH   3  24
TORSDOF 5
ENDMDL
MODEL 4
REMARK VINA RESULT:      -8.5      2.871      6.681
REMARK  5 active torsions:
REMARK  status: ('A' for Active; 'I' for Inactive)
REMARK    1  A    between atoms: C_4  and  C_5 
REMARK       I    between atoms: N_6  and  C_7 
REMARK    2  A    between atoms: C_7  and  C_8 
REMARK    3  A    between atoms: C_8  and  C_9 
REMARK    4  A    between atoms: C_11  and  O_12 
REMARK    5  A    between atoms: C_14  and  O_15 
ROOT
HETATM    1  C   UNL     1      -5.067   2.669 -31.763  1.00  0.00     0.189 C 
HETATM    2  N   UNL     1      -6.248   3.296 -32.406  1.00  0.00    -0.336 N 
HETATM    3  C   UNL     1      -7.422   3.363 -31.678  1.00  0.00     0.225 C 
HETATM    4  O   UNL     1      -7.601   2.688 -30.661  1.00  0.00    -0.273 OA
HETATM    5  C   UNL     1      -6.044   3.851 -33.763  1.00  0.00     0.132 C 
HETATM    6  C   UNL     1      -5.040   5.013 -33.770  1.00  0.00     0.061 C 
HETATM    7  C   UNL     1      -3.894   4.706 -32.869  1.00  0.00    -0.019 A 
HETATM    8  C   UNL     1      -3.930   3.651 -31.973  1.00  0.00     0.046 A 
HETATM    9  N   UNL     1      -2.785   3.715 -31.221  1.00  0.00    -0.356 N 
HETATM   10  H   UNL     1      -2.549   3.113 -30.446  1.00  0.00     0.166 HD
HETATM   11  C   UNL     1      -1.998   4.767 -31.640  1.00  0.00     0.043 A 
HETATM   12  C   UNL     1      -2.673   5.405 -32.682  1.00  0.00    -0.001 A 
HETATM   13  C   UNL     1      -0.759   5.210 -31.162  1.00  0.00     0.030 A 
HETATM   14  C   UNL     1      -0.195   6.337 -31.772  1.00  0.00     0.002 A 
HETATM   15  C   UNL     1      -0.846   6.992 -32.814  1.00  0.00     0.001 A 
HETATM   16  C   UNL     1      -2.086   6.538 -33.278  1.00  0.00     0.014 A 
ENDROOT
BRANCH   1  17
HETATM   17  C   UNL     1      -4.763   1.237 -32.240  1.00  0.00     0.063 A 
HETATM   18  N   UNL     1      -5.545   0.662 -33.197  1.00  0.00    -0.256 NA
HETATM   19  C   UNL     1      -5.278  -0.614 -33.570  1.00  0.00     0.031 A 
HETATM   20  C   UNL     1      -6.182  -1.244 -34.585  1.00  0.00     0.070 C 
HETATM   21  C   UNL     1      -4.233  -1.354 -33.028  1.00  0.00     0.027 A 
HETATM   22  C   UNL     1      -3.436  -0.768 -32.058  1.00  0.00     0.004 A 
HETATM   23  C   UNL     1      -3.708   0.533 -31.650  1.00  0.00     0.030 A 
ENDBRANCH   1  17
BRANCH   3  24
HETATM   24  C   UNL     1      -8.449   4.408 -32.079  1.00  0.00     0.141 C 
BRANCH  24  25
HETATM   25  C   UNL     1      -9.872   3.975 -32.345  1.00  0.00    -0.047 A 
HETATM   26  C   UNL     1     -10.298   3.362 -33.530  1.00  0.00     0.047 A 
HETATM   27  C   UNL     1     -11.653   3.044 -33.723  1.00  0.00     0.102 A 
HETATM   28  C   UNL     1     -12.592   3.308 -32.706  1.00  0.00     0.101 A 
HETATM   29  C   UNL     1     -12.162   3.888 -31.513  1.00  0.00     0.040 A 
HETATM   30  C   UNL     1     -10.819   4.223 -31.339  1.00  0.00     0.010 A 
BRANCH  27  31
HETATM   31  O   UNL     1     -12.150   2.463 -34.864  1.00  0.00    -0.353 OA
HETATM   32  C   UNL     1     -12.260   3.297 -36.009  1.00  0.00     0.210 C 
ENDBRANCH  27  31
BRANCH  28  33
HETATM   33  O   UNL     1     -13.895   2.965 -32.975  1.00  0.00    -0.353 OA
HETATM   34  C   UNL     1     -14.783   2.862 -31.872  1.00  0.00     0.210 C 
ENDBRANCH  28  33
ENDBRANCH  24  25
ENDBRANCH   3  24
TORSDOF 5
ENDMDL
MODEL 5
REMARK VINA RESULT:      -8.4      1.952      2.837
REMARK  5 active torsions:
REMARK  status: ('A' for Active; 'I' for Inactive)
REMARK    1  A    between atoms: C_4  and  C_5 
REMARK       I    between atoms: N_6  and  C_7 
REMARK    2  A    between atoms: C_7  and  C_8 
REMARK    3  A    between atoms: C_8  and  C_9 
REMARK    4  A    between atoms: C_11  and  O_12 
REMARK    5  A    between atoms: C_14  and  O_15 
ROOT
HETATM    1  C   UNL     1      -8.385   3.188 -34.106  1.00  0.00     0.189 C 
HETATM    2  N   UNL     1      -8.644   1.927 -33.369  1.00  0.00    -0.336 N 
HETATM    3  C   UNL     1      -8.478   0.734 -34.049  1.00  0.00     0.225 C 
HETATM    4  O   UNL     1      -8.406   0.687 -35.280  1.00  0.00    -0.273 OA
HETATM    5  C   UNL     1      -9.005   2.060 -31.940  1.00  0.00     0.132 C 
HETATM    6  C   UNL     1      -7.868   2.671 -31.108  1.00  0.00     0.061 C 
HETATM    7  C   UNL     1      -7.225   3.784 -31.860  1.00  0.00    -0.019 A 
HETATM    8  C   UNL     1      -7.468   3.996 -33.207  1.00  0.00     0.046 A 
HETATM    9  N   UNL     1      -6.640   5.009 -33.617  1.00  0.00    -0.356 N 
HETATM   10  H   UNL     1      -6.547   5.353 -34.561  1.00  0.00     0.166 HD
HETATM   11  C   UNL     1      -5.898   5.478 -32.554  1.00  0.00     0.043 A 
HETATM   12  C   UNL     1      -6.251   4.726 -31.433  1.00  0.00    -0.001 A 
HETATM   13  C   UNL     1      -4.931   6.489 -32.508  1.00  0.00     0.030 A 
HETATM   14  C   UNL     1      -4.312   6.738 -31.277  1.00  0.00     0.002 A 
HETATM   15  C   UNL     1      -4.647   6.003 -30.142  1.00  0.00     0.001 A 
HETATM   16  C   UNL     1      -5.613   4.993 -30.206  1.00  0.00     0.014 A 
ENDROOT
BRANCH   1  17
HETATM   17  C   UNL     1      -9.651   3.939 -34.557  1.00  0.00     0.063 A 
HETATM   18  N   UNL     1      -9.576   5.261 -34.877  1.00  0.00    -0.256 NA
HETATM   19  C   UNL     1     -10.715   5.906 -35.233  1.00  0.00     0.031 A 
HETATM   20  C   UNL     1     -10.618   7.372 -35.531  1.00  0.00     0.070 C 
HETATM   21  C   UNL     1     -11.950   5.273 -35.299  1.00  0.00     0.027 A 
HETATM   22  C   UNL     1     -12.026   3.928 -34.977  1.00  0.00     0.004 A 
HETATM   23  C   UNL     1     -10.871   3.255 -34.591  1.00  0.00     0.030 A 
ENDBRANCH   1  17
BRANCH   3  24
HETATM   24  C   UNL     1      -8.236  -0.523 -33.232  1.00  0.00     0.141 C 
BRANCH  24  25
HETATM   25  C   UNL     1      -6.980  -1.327 -33.476  1.00  0.00    -0.047 A 
HETATM   26  C   UNL     1      -5.744  -1.055 -32.876  1.00  0.00     0.047 A 
HETATM   27  C   UNL     1      -4.609  -1.815 -33.204  1.00  0.00     0.102 A 
HETATM   28  C   UNL     1      -4.713  -2.884 -34.115  1.00  0.00     0.101 A 
HETATM   29  C   UNL     1      -5.951  -3.176 -34.687  1.00  0.00     0.040 A 
HETATM   30  C   UNL     1      -7.069  -2.401 -34.375  1.00  0.00     0.010 A 
BRANCH  27  31
HETATM   31  O   UNL     1      -3.359  -1.595 -32.675  1.00  0.00    -0.353 OA
HETATM   32  C   UNL     1      -3.246  -0.551 -31.718  1.00  0.00     0.210 C 
ENDBRANCH  27  31
BRANCH  28  33
HETATM   33  O   UNL     1      -3.556  -3.576 -34.379  1.00  0.00    -0.353 OA
HETATM   34  C   UNL     1      -3.413  -4.858 -33.785  1.00  0.00     0.210 C 
ENDBRANCH  28  33
ENDBRANCH  24  25
ENDBRANCH   3  24
TORSDOF 5
ENDMDL
MODEL 6
REMARK VINA RESULT:      -8.4      3.635      8.263
REMARK  5 active torsions:
REMARK  status: ('A' for Active; 'I' for Inactive)
REMARK    1  A    between atoms: C_4  and  C_5 
REMARK       I    between atoms: N_6  and  C_7 
REMARK    2  A    between atoms: C_7  and  C_8 
REMARK    3  A    between atoms: C_8  and  C_9 
REMARK    4  A    between atoms: C_11  and  O_12 
REMARK    5  A    between atoms: C_14  and  O_15 
ROOT
HETATM    1  C   UNL     1      -7.239   2.470 -34.058  1.00  0.00     0.189 C 
HETATM    2  N   UNL     1      -6.833   3.610 -33.200  1.00  0.00    -0.336 N 
HETATM    3  C   UNL     1      -5.984   4.558 -33.742  1.00  0.00     0.225 C 
HETATM    4  O   UNL     1      -5.345   4.349 -34.777  1.00  0.00    -0.273 OA
HETATM    5  C   UNL     1      -7.424   3.660 -31.845  1.00  0.00     0.132 C 
HETATM    6  C   UNL     1      -8.950   3.836 -31.883  1.00  0.00     0.061 C 
HETATM    7  C   UNL     1      -9.535   2.994 -32.962  1.00  0.00    -0.019 A 
HETATM    8  C   UNL     1      -8.749   2.393 -33.932  1.00  0.00     0.046 A 
HETATM    9  N   UNL     1      -9.594   1.798 -34.832  1.00  0.00    -0.356 N 
HETATM   10  H   UNL     1      -9.320   1.327 -35.682  1.00  0.00     0.166 HD
HETATM   11  C   UNL     1     -10.905   1.973 -34.443  1.00  0.00     0.043 A 
HETATM   12  C   UNL     1     -10.896   2.719 -33.263  1.00  0.00    -0.001 A 
HETATM   13  C   UNL     1     -12.090   1.546 -35.054  1.00  0.00     0.030 A 
HETATM   14  C   UNL     1     -13.298   1.893 -34.438  1.00  0.00     0.002 A 
HETATM   15  C   UNL     1     -13.317   2.636 -33.260  1.00  0.00     0.001 A 
HETATM   16  C   UNL     1     -12.123   3.057 -32.663  1.00  0.00     0.014 A 
ENDROOT
BRANCH   1  17
HETATM   17  C   UNL     1      -6.510   1.148 -33.755  1.00  0.00     0.063 A 
HETATM   18  N   UNL     1      -6.962  -0.015 -34.304  1.00  0.00    -0.256 NA
HETATM   19  C   UNL     1      -6.324  -1.169 -33.988  1.00  0.00     0.031 A 
HETATM   20  C   UNL     1      -6.869  -2.442 -34.562  1.00  0.00     0.070 C 
HETATM   21  C   UNL     1      -5.222  -1.215 -33.142  1.00  0.00     0.027 A 
HETATM   22  C   UNL     1      -4.762  -0.032 -32.587  1.00  0.00     0.004 A 
HETATM   23  C   UNL     1      -5.415   1.159 -32.884  1.00  0.00     0.030 A 
ENDBRANCH   1  17
BRANCH   3  24
HETATM   24  C   UNL     1      -5.963   5.939 -33.110  1.00  0.00     0.141 C 
BRANCH  24  25
HETATM   25  C   UNL     1      -4.873   6.276 -32.118  1.00  0.00    -0.047 A 
HETATM   26  C   UNL     1      -3.651   5.597 -32.033  1.00  0.00     0.047 A 
HETATM   27  C   UNL     1      -2.715   5.933 -31.042  1.00  0.00     0.102 A 
HETATM   28  C   UNL     1      -2.984   6.985 -30.144  1.00  0.00     0.101 A 
HETATM   29  C   UNL     1      -4.187   7.682 -30.249  1.00  0.00     0.040 A 
HETATM   30  C   UNL     1      -5.122   7.326 -31.221  1.00  0.00     0.010 A 
BRANCH  27  31
HETATM   31  O   UNL     1      -1.505   5.301 -30.881  1.00  0.00    -0.353 OA
HETATM   32  C   UNL     1      -0.639   5.287 -32.007  1.00  0.00     0.210 C 
ENDBRANCH  27  31
BRANCH  28  33
HETATM   33  O   UNL     1      -2.016   7.250 -29.206  1.00  0.00    -0.353 OA
HETATM   34  C   UNL     1      -1.816   8.607 -28.840  1.00  0.00     0.210 C 
ENDBRANCH  28  33
ENDBRANCH  24  25
ENDBRANCH   3  24
TORSDOF 5
ENDMDL
MODEL 7
REMARK VINA RESULT:      -8.3      1.624      5.066
REMARK  5 active torsions:
REMARK  status: ('A' for Active; 'I' for Inactive)
REMARK    1  A    between atoms: C_4  and  C_5 
REMARK       I    between atoms: N_6  and  C_7 
REMARK    2  A    between atoms: C_7  and  C_8 
REMARK    3  A    between atoms: C_8  and  C_9 
REMARK    4  A    between atoms: C_11  and  O_12 
REMARK    5  A    between atoms: C_14  and  O_15 
ROOT
HETATM    1  C   UNL     1      -5.077   4.340 -32.058  1.00  0.00     0.189 C 
HETATM    2  N   UNL     1      -5.456   2.957 -32.437  1.00  0.00    -0.336 N 
HETATM    3  C   UNL     1      -5.243   1.951 -31.512  1.00  0.00     0.225 C 
HETATM    4  O   UNL     1      -4.513   2.108 -30.530  1.00  0.00    -0.273 OA
HETATM    5  C   UNL     1      -6.085   2.786 -33.765  1.00  0.00     0.132 C 
HETATM    6  C   UNL     1      -7.436   3.510 -33.866  1.00  0.00     0.061 C 
HETATM    7  C   UNL     1      -7.354   4.841 -33.204  1.00  0.00    -0.019 A 
HETATM    8  C   UNL     1      -6.288   5.192 -32.392  1.00  0.00     0.046 A 
HETATM    9  N   UNL     1      -6.573   6.418 -31.850  1.00  0.00    -0.356 N 
HETATM   10  H   UNL     1      -6.011   6.913 -31.174  1.00  0.00     0.166 HD
HETATM   11  C   UNL     1      -7.783   6.879 -32.324  1.00  0.00     0.043 A 
HETATM   12  C   UNL     1      -8.293   5.906 -33.184  1.00  0.00    -0.001 A 
HETATM   13  C   UNL     1      -8.467   8.067 -32.041  1.00  0.00     0.030 A 
HETATM   14  C   UNL     1      -9.708   8.263 -32.658  1.00  0.00     0.002 A 
HETATM   15  C   UNL     1     -10.240   7.308 -33.521  1.00  0.00     0.001 A 
HETATM   16  C   UNL     1      -9.544   6.124 -33.792  1.00  0.00     0.014 A 
ENDROOT
BRANCH   1  17
HETATM   17  C   UNL     1      -3.760   4.839 -32.681  1.00  0.00     0.063 A 
HETATM   18  N   UNL     1      -2.614   4.821 -31.944  1.00  0.00    -0.256 NA
HETATM   19  C   UNL     1      -1.477   5.302 -32.506  1.00  0.00     0.031 A 
HETATM   20  C   UNL     1      -0.240   5.321 -31.660  1.00  0.00     0.070 C 
HETATM   21  C   UNL     1      -1.429   5.798 -33.804  1.00  0.00     0.027 A 
HETATM   22  C   UNL     1      -2.594   5.812 -34.553  1.00  0.00     0.004 A 
HETATM   23  C   UNL     1      -3.773   5.340 -33.987  1.00  0.00     0.030 A 
ENDBRANCH   1  17
BRANCH   3  24
HETATM   24  C   UNL     1      -6.055   0.674 -31.651  1.00  0.00     0.141 C 
BRANCH  24  25
HETATM   25  C   UNL     1      -5.457  -0.499 -32.392  1.00  0.00    -0.047 A 
HETATM   26  C   UNL     1      -6.053  -1.115 -33.500  1.00  0.00     0.047 A 
HETATM   27  C   UNL     1      -5.461  -2.240 -34.097  1.00  0.00     0.102 A 
HETATM   28  C   UNL     1      -4.238  -2.738 -33.605  1.00  0.00     0.101 A 
HETATM   29  C   UNL     1      -3.628  -2.106 -32.523  1.00  0.00     0.040 A 
HETATM   30  C   UNL     1      -4.236  -1.003 -31.920  1.00  0.00     0.010 A 
BRANCH  27  31
HETATM   31  O   UNL     1      -5.995  -2.910 -35.171  1.00  0.00    -0.353 OA
HETATM   32  C   UNL     1      -6.876  -3.985 -34.878  1.00  0.00     0.210 C 
ENDBRANCH  27  31
BRANCH  28  33
HETATM   33  O   UNL     1      -3.727  -3.841 -34.246  1.00  0.00    -0.353 OA
HETATM   34  C   UNL     1      -3.507  -5.006 -33.464  1.00  0.00     0.210 C 
ENDBRANCH  28  33
ENDBRANCH  24  25
ENDBRANCH   3  24
TORSDOF 5
ENDMDL
MODEL 8
REMARK VINA RESULT:      -8.3      3.393      7.880
REMARK  5 active torsions:
REMARK  status: ('A' for Active; 'I' for Inactive)
REMARK    1  A    between atoms: C_4  and  C_5 
REMARK       I    between atoms: N_6  and  C_7 
REMARK    2  A    between atoms: C_7  and  C_8 
REMARK    3  A    between atoms: C_8  and  C_9 
REMARK    4  A    between atoms: C_11  and  O_12 
REMARK    5  A    between atoms: C_14  and  O_15 
ROOT
HETATM    1  C   UNL     1      -7.960   0.633 -32.428  1.00  0.00     0.189 C 
HETATM    2  N   UNL     1      -8.975   1.039 -33.430  1.00  0.00    -0.336 N 
HETATM    3  C   UNL     1     -10.237   0.481 -33.335  1.00  0.00     0.225 C 
HETATM    4  O   UNL     1     -10.461  -0.521 -32.651  1.00  0.00    -0.273 OA
HETATM    5  C   UNL     1      -8.558   2.059 -34.417  1.00  0.00     0.132 C 
HETATM    6  C   UNL     1      -8.225   3.405 -33.757  1.00  0.00     0.061 C 
HETATM    7  C   UNL     1      -7.470   3.183 -32.493  1.00  0.00    -0.019 A 
HETATM    8  C   UNL     1      -7.367   1.930 -31.911  1.00  0.00     0.046 A 
HETATM    9  N   UNL     1      -6.718   2.088 -30.713  1.00  0.00    -0.356 N 
HETATM   10  H   UNL     1      -6.542   1.362 -30.034  1.00  0.00     0.166 HD
HETATM   11  C   UNL     1      -6.370   3.409 -30.531  1.00  0.00     0.043 A 
HETATM   12  C   UNL     1      -6.828   4.120 -31.641  1.00  0.00    -0.001 A 
HETATM   13  C   UNL     1      -5.708   4.026 -29.462  1.00  0.00     0.030 A 
HETATM   14  C   UNL     1      -5.508   5.409 -29.536  1.00  0.00     0.002 A 
HETATM   15  C   UNL     1      -5.953   6.143 -30.633  1.00  0.00     0.001 A 
HETATM   16  C   UNL     1      -6.616   5.511 -31.692  1.00  0.00     0.014 A 
ENDROOT
BRANCH   1  17
HETATM   17  C   UNL     1      -6.919  -0.378 -32.944  1.00  0.00     0.063 A 
HETATM   18  N   UNL     1      -5.675  -0.410 -32.390  1.00  0.00    -0.256 NA
HETATM   19  C   UNL     1      -4.766  -1.285 -32.890  1.00  0.00     0.031 A 
HETATM   20  C   UNL     1      -3.389  -1.266 -32.301  1.00  0.00     0.070 C 
HETATM   21  C   UNL     1      -5.055  -2.157 -33.933  1.00  0.00     0.027 A 
HETATM   22  C   UNL     1      -6.322  -2.126 -34.494  1.00  0.00     0.004 A 
HETATM   23  C   UNL     1      -7.260  -1.223 -34.005  1.00  0.00     0.030 A 
ENDBRANCH   1  17
BRANCH   3  24
HETATM   24  C   UNL     1     -11.394   1.223 -33.983  1.00  0.00     0.141 C 
BRANCH  24  25
HETATM   25  C   UNL     1     -12.163   2.239 -33.170  1.00  0.00    -0.047 A 
HETATM   26  C   UNL     1     -11.568   3.292 -32.463  1.00  0.00     0.047 A 
HETATM   27  C   UNL     1     -12.350   4.158 -31.681  1.00  0.00     0.102 A 
HETATM   28  C   UNL     1     -13.748   3.996 -31.630  1.00  0.00     0.101 A 
HETATM   29  C   UNL     1     -14.344   2.968 -32.360  1.00  0.00     0.040 A 
HETATM   30  C   UNL     1     -13.558   2.096 -33.115  1.00  0.00     0.010 A 
BRANCH  27  31
HETATM   31  O   UNL     1     -11.838   5.199 -30.943  1.00  0.00    -0.353 OA
HETATM   32  C   UNL     1     -10.431   5.213 -30.751  1.00  0.00     0.210 C 
ENDBRANCH  27  31
BRANCH  28  33
HETATM   33  O   UNL     1     -14.438   4.886 -30.843  1.00  0.00    -0.353 OA
HETATM   34  C   UNL     1     -15.611   5.469 -31.392  1.00  0.00     0.210 C 
ENDBRANCH  28  33
ENDBRANCH  24  25
ENDBRANCH   3  24
TORSDOF 5
ENDMDL
MODEL 9
REMARK VINA RESULT:      -8.3     16.205     18.698
REMARK  5 active torsions:
REMARK  status: ('A' for Active; 'I' for Inactive)
REMARK    1  A    between atoms: C_4  and  C_5 
REMARK       I    between atoms: N_6  and  C_7 
REMARK    2  A    between atoms: C_7  and  C_8 
REMARK    3  A    between atoms: C_8  and  C_9 
REMARK    4  A    between atoms: C_11  and  O_12 
REMARK    5  A    between atoms: C_14  and  O_15 
ROOT
HETATM    1  C   UNL     1      -2.647 -15.082 -38.166  1.00  0.00     0.189 C 
HETATM    2  N   UNL     1      -3.183 -14.051 -39.088  1.00  0.00    -0.336 N 
HETATM    3  C   UNL     1      -3.672 -14.469 -40.312  1.00  0.00     0.225 C 
HETATM    4  O   UNL     1      -3.425 -15.588 -40.769  1.00  0.00    -0.273 OA
HETATM    5  C   UNL     1      -3.198 -12.660 -38.585  1.00  0.00     0.132 C 
HETATM    6  C   UNL     1      -4.122 -12.492 -37.369  1.00  0.00     0.061 C 
HETATM    7  C   UNL     1      -3.976 -13.655 -36.451  1.00  0.00    -0.019 A 
HETATM    8  C   UNL     1      -3.314 -14.810 -36.831  1.00  0.00     0.046 A 
HETATM    9  N   UNL     1      -3.461 -15.719 -35.815  1.00  0.00    -0.356 N 
HETATM   10  H   UNL     1      -3.135 -16.674 -35.821  1.00  0.00     0.166 HD
HETATM   11  C   UNL     1      -4.173 -15.159 -34.775  1.00  0.00     0.043 A 
HETATM   12  C   UNL     1      -4.505 -13.856 -35.149  1.00  0.00    -0.001 A 
HETATM   13  C   UNL     1      -4.562 -15.714 -33.550  1.00  0.00     0.030 A 
HETATM   14  C   UNL     1      -5.312 -14.909 -32.683  1.00  0.00     0.002 A 
HETATM   15  C   UNL     1      -5.656 -13.605 -33.031  1.00  0.00     0.001 A 
HETATM   16  C   UNL     1      -5.261 -13.067 -34.261  1.00  0.00     0.014 A 
ENDROOT
BRANCH   1  17
HETATM   17  C   UNL     1      -1.110 -15.150 -38.105  1.00  0.00     0.063 A 
HETATM   18  N   UNL     1      -0.502 -15.768 -37.053  1.00  0.00    -0.256 NA
HETATM   19  C   UNL     1       0.854 -15.779 -37.006  1.00  0.00     0.031 A 
HETATM   20  C   UNL     1       1.501 -16.419 -35.815  1.00  0.00     0.070 C 
HETATM   21  C   UNL     1       1.647 -15.199 -37.989  1.00  0.00     0.027 A 
HETATM   22  C   UNL     1       1.028 -14.574 -39.059  1.00  0.00     0.004 A 
HETATM   23  C   UNL     1      -0.361 -14.537 -39.115  1.00  0.00     0.030 A 
ENDBRANCH   1  17
BRANCH   3  24
HETATM   24  C   UNL     1      -4.657 -13.563 -41.032  1.00  0.00     0.141 C 
BRANCH  24  25
HETATM   25  C   UNL     1      -6.066 -13.443 -40.502  1.00  0.00    -0.047 A 
HETATM   26  C   UNL     1      -6.667 -14.377 -39.648  1.00  0.00     0.047 A 
HETATM   27  C   UNL     1      -8.005 -14.222 -39.248  1.00  0.00     0.102 A 
HETATM   28  C   UNL     1      -8.744 -13.101 -39.676  1.00  0.00     0.101 A 
HETATM   29  C   UNL     1      -8.136 -12.154 -40.499  1.00  0.00     0.040 A 
HETATM   30  C   UNL     1      -6.815 -12.328 -40.912  1.00  0.00     0.010 A 
BRANCH  27  31
HETATM   31  O   UNL     1      -8.669 -15.105 -38.432  1.00  0.00    -0.353 OA
HETATM   32  C   UNL     1      -8.801 -16.437 -38.906  1.00  0.00     0.210 C 
ENDBRANCH  27  31
BRANCH  28  33
HETATM   33  O   UNL     1     -10.045 -13.025 -39.238  1.00  0.00    -0.353 OA
HETATM   34  C   UNL     1     -11.070 -13.210 -40.204  1.00  0.00     0.210 C 
ENDBRANCH  28  33
ENDBRANCH  24  25
ENDBRANCH   3  24
TORSDOF 5
ENDMDL
MODEL 10
REMARK VINA RESULT:      -8.2      3.073      6.130
REMARK  5 active torsions:
REMARK  status: ('A' for Active; 'I' for Inactive)
REMARK    1  A    between atoms: C_4  and  C_5 
REMARK       I    between atoms: N_6  and  C_7 
REMARK    2  A    between atoms: C_7  and  C_8 
REMARK    3  A    between atoms: C_8  and  C_9 
REMARK    4  A    between atoms: C_11  and  O_12 
REMARK    5  A    between atoms: C_14  and  O_15 
ROOT
HETATM    1  C   UNL     1      -8.446   3.525 -30.672  1.00  0.00     0.189 C 
HETATM    2  N   UNL     1      -7.724   3.331 -31.953  1.00  0.00    -0.336 N 
HETATM    3  C   UNL     1      -6.963   2.186 -32.101  1.00  0.00     0.225 C 
HETATM    4  O   UNL     1      -6.642   1.484 -31.138  1.00  0.00    -0.273 OA
HETATM    5  C   UNL     1      -7.930   4.366 -32.991  1.00  0.00     0.132 C 
HETATM    6  C   UNL     1      -9.389   4.426 -33.469  1.00  0.00     0.061 C 
HETATM    7  C   UNL     1     -10.314   4.283 -32.311  1.00  0.00    -0.019 A 
HETATM    8  C   UNL     1      -9.870   3.872 -31.065  1.00  0.00     0.046 A 
HETATM    9  N   UNL     1     -10.974   3.728 -30.265  1.00  0.00    -0.356 N 
HETATM   10  H   UNL     1     -10.978   3.388 -29.315  1.00  0.00     0.166 HD
HETATM   11  C   UNL     1     -12.114   4.073 -30.959  1.00  0.00     0.043 A 
HETATM   12  C   UNL     1     -11.725   4.431 -32.251  1.00  0.00    -0.001 A 
HETATM   13  C   UNL     1     -13.453   4.072 -30.549  1.00  0.00     0.030 A 
HETATM   14  C   UNL     1     -14.418   4.452 -31.489  1.00  0.00     0.002 A 
HETATM   15  C   UNL     1     -14.057   4.816 -32.784  1.00  0.00     0.001 A 
HETATM   16  C   UNL     1     -12.714   4.808 -33.179  1.00  0.00     0.014 A 
ENDROOT
BRANCH   1  17
HETATM   17  C   UNL     1      -7.789   4.534 -29.713  1.00  0.00     0.063 A 
HETATM   18  N   UNL     1      -8.537   5.535 -29.168  1.00  0.00    -0.256 NA
HETATM   19  C   UNL     1      -7.924   6.432 -28.357  1.00  0.00     0.031 A 
HETATM   20  C   UNL     1      -8.754   7.554 -27.811  1.00  0.00     0.070 C 
HETATM   21  C   UNL     1      -6.571   6.366 -28.047  1.00  0.00     0.027 A 
HETATM   22  C   UNL     1      -5.812   5.346 -28.598  1.00  0.00     0.004 A 
HETATM   23  C   UNL     1      -6.420   4.429 -29.447  1.00  0.00     0.030 A 
ENDBRANCH   1  17
BRANCH   3  24
HETATM   24  C   UNL     1      -6.648   1.717 -33.512  1.00  0.00     0.141 C 
BRANCH  24  25
HETATM   25  C   UNL     1      -6.316   0.262 -33.745  1.00  0.00    -0.047 A 
HETATM   26  C   UNL     1      -5.097  -0.333 -33.391  1.00  0.00     0.047 A 
HETATM   27  C   UNL     1      -4.845  -1.680 -33.698  1.00  0.00     0.102 A 
HETATM   28  C   UNL     1      -5.833  -2.457 -34.334  1.00  0.00     0.101 A 
HETATM   29  C   UNL     1      -7.058  -1.874 -34.657  1.00  0.00     0.040 A 
HETATM   30  C   UNL     1      -7.292  -0.528 -34.371  1.00  0.00     0.010 A 
BRANCH  27  31
HETATM   31  O   UNL     1      -3.669  -2.327 -33.403  1.00  0.00    -0.353 OA
HETATM   32  C   UNL     1      -3.290  -2.370 -32.035  1.00  0.00     0.210 C 
ENDBRANCH  27  31
BRANCH  28  33
HETATM   33  O   UNL     1      -5.505  -3.765 -34.597  1.00  0.00    -0.353 OA
HETATM   34  C   UNL     1      -6.445  -4.538 -35.330  1.00  0.00     0.210 C 
ENDBRANCH  28  33
ENDBRANCH  24  25
ENDBRANCH   3  24
TORSDOF 5
ENDMDL
