MODEL 1
REMARK VINA RESULT:      -8.3      0.000      0.000
REMARK  6 active torsions:
REMARK  status: ('A' for Active; 'I' for Inactive)
REMARK    1  A    between atoms: C_2  and  C_3 
REMARK    2  A    between atoms: C_8  and  C_9 
REMARK    3  A    between atoms: C_9  and  N_10 
REMARK    4  A    between atoms: C_12  and  C_13 
REMARK    5  A    between atoms: C_13  and  N_14 
REMARK       I    between atoms: N_14  and  C_15 
REMARK    6  A    between atoms: C_15  and  C_16 
ROOT
HETATM    1  N   UNL     1      -7.089   2.466 -31.739  1.00  0.00    -0.061 N 
HETATM    2  H   UNL     1      -7.140   1.488 -31.430  1.00  0.00     0.280 HD
HETATM    3  C   UNL     1      -6.071   2.511 -32.895  1.00  0.00     0.206 C 
HETATM    4  C   UNL     1      -4.736   1.947 -32.366  1.00  0.00     0.035 C 
HETATM    5  C   UNL     1      -4.237   2.686 -31.131  1.00  0.00     0.004 C 
HETATM    6  C   UNL     1      -5.294   2.698 -30.039  1.00  0.00     0.028 C 
HETATM    7  C   UNL     1      -6.605   3.273 -30.549  1.00  0.00     0.236 C 
ENDROOT
BRANCH   1   8
HETATM    8  C   UNL     1      -8.527   2.845 -32.090  1.00  0.00     0.277 C 
BRANCH   8   9
HETATM    9  C   UNL     1      -9.434   1.737 -32.494  1.00  0.00     0.012 A 
HETATM   10  C   UNL     1     -10.599   1.717 -33.341  1.00  0.00     0.071 A 
HETATM   11  N   UNL     1     -11.072   0.465 -33.451  1.00  0.00    -0.178 NA
HETATM   12  N   UNL     1     -10.318  -0.282 -32.650  1.00  0.00    -0.288 N 
HETATM   13  H   UNL     1     -10.533  -1.272 -32.563  1.00  0.00     0.188 HD
HETATM   14  C   UNL     1      -9.333   0.431 -32.045  1.00  0.00     0.120 A 
BRANCH  10  15
HETATM   15  C   UNL     1     -11.371   2.790 -34.123  1.00  0.00    -0.004 C 
HETATM   16  C   UNL     1     -12.155   3.691 -33.135  1.00  0.00     0.021 C 
HETATM   17  C   UNL     1     -12.381   2.111 -35.075  1.00  0.00     0.021 C 
HETATM   18  C   UNL     1     -10.497   3.729 -34.967  1.00  0.00     0.021 C 
ENDBRANCH  10  15
ENDBRANCH   8   9
ENDBRANCH   1   8
BRANCH   3  19
HETATM   19  C   UNL     1      -6.541   1.670 -34.121  1.00  0.00     0.156 C 
BRANCH  19  20
HETATM   20  N   UNL     1      -5.942   0.349 -34.220  1.00  0.00    -0.355 N 
HETATM   21  C   UNL     1      -6.711  -0.739 -34.594  1.00  0.00     0.251 C 
HETATM   22  O   UNL     1      -7.874  -0.608 -34.960  1.00  0.00    -0.268 OA
HETATM   23  H   UNL     1      -5.106   0.160 -33.675  1.00  0.00     0.162 HD
BRANCH  21  24
HETATM   24  C   UNL     1      -6.081  -2.084 -34.507  1.00  0.00     0.032 A 
HETATM   25  C   UNL     1      -6.857  -3.200 -34.848  1.00  0.00     0.017 A 
HETATM   26  C   UNL     1      -6.306  -4.480 -34.790  1.00  0.00     0.001 A 
HETATM   27  C   UNL     1      -4.978  -4.651 -34.400  1.00  0.00     0.000 A 
HETATM   28  C   UNL     1      -4.197  -3.542 -34.075  1.00  0.00     0.001 A 
HETATM   29  C   UNL     1      -4.743  -2.257 -34.131  1.00  0.00     0.017 A 
ENDBRANCH  21  24
ENDBRANCH  19  20
ENDBRANCH   3  19
TORSDOF 6
ENDMDL
MODEL 2
REMARK VINA RESULT:      -8.1      2.837      5.814
REMARK  6 active torsions:
REMARK  status: ('A' for Active; 'I' for Inactive)
REMARK    1  A    between atoms: C_2  and  C_3 
REMARK    2  A    between atoms: C_8  and  C_9 
REMARK    3  A    between atoms: C_9  and  N_10 
REMARK    4  A    between atoms: C_12  and  C_13 
REMARK    5  A    between atoms: C_13  and  N_14 
REMARK       I    between atoms: N_14  and  C_15 
REMARK    6  A    between atoms: C_15  and  C_16 
ROOT
HETATM    1  N   UNL     1      -5.574   3.408 -31.949  1.00  0.00    -0.061 N 
HETATM    2  H   UNL     1      -6.057   4.092 -32.542  1.00  0.00     0.280 HD
HETATM    3  C   UNL     1      -6.332   2.075 -32.104  1.00  0.00     0.206 C 
HETATM    4  C   UNL     1      -7.803   2.324 -31.711  1.00  0.00     0.035 C 
HETATM    5  C   UNL     1      -7.943   2.904 -30.309  1.00  0.00     0.004 C 
HETATM    6  C   UNL     1      -7.118   4.171 -30.159  1.00  0.00     0.028 C 
HETATM    7  C   UNL     1      -5.663   3.927 -30.525  1.00  0.00     0.236 C 
ENDROOT
BRANCH   1   8
HETATM    8  C   UNL     1      -4.124   3.420 -32.430  1.00  0.00     0.277 C 
BRANCH   8   9
HETATM    9  C   UNL     1      -3.756   4.463 -33.425  1.00  0.00     0.012 A 
HETATM   10  C   UNL     1      -2.833   5.567 -33.354  1.00  0.00     0.071 A 
HETATM   11  N   UNL     1      -2.801   6.220 -34.527  1.00  0.00    -0.178 NA
HETATM   12  N   UNL     1      -3.715   5.637 -35.296  1.00  0.00    -0.288 N 
HETATM   13  H   UNL     1      -3.873   6.007 -36.230  1.00  0.00     0.188 HD
HETATM   14  C   UNL     1      -4.323   4.590 -34.682  1.00  0.00     0.120 A 
BRANCH  10  15
HETATM   15  C   UNL     1      -1.907   6.118 -32.260  1.00  0.00    -0.004 C 
HETATM   16  C   UNL     1      -2.716   6.338 -30.956  1.00  0.00     0.021 C 
HETATM   17  C   UNL     1      -1.325   7.476 -32.711  1.00  0.00     0.021 C 
HETATM   18  C   UNL     1      -0.728   5.206 -31.892  1.00  0.00     0.021 C 
ENDBRANCH  10  15
ENDBRANCH   8   9
ENDBRANCH   1   8
BRANCH   3  19
HETATM   19  C   UNL     1      -6.270   1.535 -33.566  1.00  0.00     0.156 C 
BRANCH  19  20
HETATM   20  N   UNL     1      -5.753   0.182 -33.694  1.00  0.00    -0.355 N 
HETATM   21  C   UNL     1      -6.369  -0.721 -34.542  1.00  0.00     0.251 C 
HETATM   22  O   UNL     1      -7.283  -0.383 -35.288  1.00  0.00    -0.268 OA
HETATM   23  H   UNL     1      -5.212  -0.199 -32.924  1.00  0.00     0.162 HD
BRANCH  21  24
HETATM   24  C   UNL     1      -5.899  -2.132 -34.496  1.00  0.00     0.032 A 
HETATM   25  C   UNL     1      -6.809  -3.143 -34.833  1.00  0.00     0.017 A 
HETATM   26  C   UNL     1      -6.411  -4.480 -34.812  1.00  0.00     0.001 A 
HETATM   27  C   UNL     1      -5.102  -4.811 -34.463  1.00  0.00     0.000 A 
HETATM   28  C   UNL     1      -4.188  -3.808 -34.143  1.00  0.00     0.001 A 
HETATM   29  C   UNL     1      -4.581  -2.468 -34.162  1.00  0.00     0.017 A 
ENDBRANCH  21  24
ENDBRANCH  19  20
ENDBRANCH   3  19
TORSDOF 6
ENDMDL
MODEL 3
REMARK VINA RESULT:      -8.1      3.719      6.709
REMARK  6 active torsions:
REMARK  status: ('A' for Active; 'I' for Inactive)
REMARK    1  A    between atoms: C_2  and  C_3 
REMARK    2  A    between atoms: C_8  and  C_9 
REMARK    3  A    between atoms: C_9  and  N_10 
REMARK    4  A    between atoms: C_12  and  C_13 
REMARK    5  A    between atoms: C_13  and  N_14 
REMARK       I    between atoms: N_14  and  C_15 
REMARK    6  A    between atoms: C_15  and  C_16 
ROOT
HETATM    1  N   UNL     1      -4.105   3.329 -32.060  1.00  0.00    -0.061 N 
HETATM    2  H   UNL     1      -4.471   3.233 -33.014  1.00  0.00     0.280 HD
HETATM    3  C   UNL     1      -4.265   1.952 -31.387  1.00  0.00     0.206 C 
HETATM    4  C   UNL     1      -5.757   1.567 -31.455  1.00  0.00     0.035 C 
HETATM    5  C   UNL     1      -6.662   2.620 -30.829  1.00  0.00     0.004 C 
HETATM    6  C   UNL     1      -6.423   3.985 -31.454  1.00  0.00     0.028 C 
HETATM    7  C   UNL     1      -4.958   4.379 -31.371  1.00  0.00     0.236 C 
ENDROOT
BRANCH   1   8
HETATM    8  C   UNL     1      -2.674   3.835 -32.233  1.00  0.00     0.277 C 
BRANCH   8   9
HETATM    9  C   UNL     1      -2.481   5.012 -33.121  1.00  0.00     0.012 A 
HETATM   10  C   UNL     1      -1.977   6.336 -32.855  1.00  0.00     0.071 A 
HETATM   11  N   UNL     1      -1.944   7.056 -33.988  1.00  0.00    -0.178 NA
HETATM   12  N   UNL     1      -2.479   6.283 -34.929  1.00  0.00    -0.288 N 
HETATM   13  H   UNL     1      -2.578   6.657 -35.868  1.00  0.00     0.188 HD
HETATM   14  C   UNL     1      -2.829   5.057 -34.460  1.00  0.00     0.120 A 
BRANCH  10  15
HETATM   15  C   UNL     1      -1.478   7.057 -31.595  1.00  0.00    -0.004 C 
HETATM   16  C   UNL     1      -1.801   8.570 -31.699  1.00  0.00     0.021 C 
HETATM   17  C   UNL     1       0.053   6.889 -31.474  1.00  0.00     0.021 C 
HETATM   18  C   UNL     1      -2.104   6.569 -30.281  1.00  0.00     0.021 C 
ENDBRANCH  10  15
ENDBRANCH   8   9
ENDBRANCH   1   8
BRANCH   3  19
HETATM   19  C   UNL     1      -3.412   0.854 -32.094  1.00  0.00     0.156 C 
BRANCH  19  20
HETATM   20  N   UNL     1      -4.184  -0.198 -32.736  1.00  0.00    -0.355 N 
HETATM   21  C   UNL     1      -3.740  -1.508 -32.701  1.00  0.00     0.251 C 
HETATM   22  O   UNL     1      -2.760  -1.837 -32.040  1.00  0.00    -0.268 OA
HETATM   23  H   UNL     1      -4.807   0.060 -33.494  1.00  0.00     0.162 HD
BRANCH  21  24
HETATM   24  C   UNL     1      -4.481  -2.503 -33.521  1.00  0.00     0.032 A 
HETATM   25  C   UNL     1      -3.982  -3.812 -33.582  1.00  0.00     0.017 A 
HETATM   26  C   UNL     1      -4.648  -4.781 -34.332  1.00  0.00     0.001 A 
HETATM   27  C   UNL     1      -5.817  -4.451 -35.016  1.00  0.00     0.000 A 
HETATM   28  C   UNL     1      -6.327  -3.155 -34.946  1.00  0.00     0.001 A 
HETATM   29  C   UNL     1      -5.664  -2.179 -34.197  1.00  0.00     0.017 A 
ENDBRANCH  21  24
ENDBRANCH  19  20
ENDBRANCH   3  19
TORSDOF 6
ENDMDL
MODEL 4
REMARK VINA RESULT:      -8.0      2.302      3.560
REMARK  6 active torsions:
REMARK  status: ('A' for Active; 'I' for Inactive)
REMARK    1  A    between atoms: C_2  and  C_3 
REMARK    2  A    between atoms: C_8  and  C_9 
REMARK    3  A    between atoms: C_9  and  N_10 
REMARK    4  A    between atoms: C_12  and  C_13 
REMARK    5  A    between atoms: C_13  and  N_14 
REMARK       I    between atoms: N_14  and  C_15 
REMARK    6  A    between atoms: C_15  and  C_16 
ROOT
HETATM    1  N   UNL     1      -4.819   3.650 -32.706  1.00  0.00    -0.061 N 
HETATM    2  H   UNL     1      -5.083   3.980 -31.770  1.00  0.00     0.280 HD
HETATM    3  C   UNL     1      -3.415   3.028 -32.572  1.00  0.00     0.206 C 
HETATM    4  C   UNL     1      -2.477   4.107 -31.995  1.00  0.00     0.035 C 
HETATM    5  C   UNL     1      -2.463   5.379 -32.833  1.00  0.00     0.004 C 
HETATM    6  C   UNL     1      -3.870   5.924 -33.019  1.00  0.00     0.028 C 
HETATM    7  C   UNL     1      -4.794   4.871 -33.607  1.00  0.00     0.236 C 
ENDROOT
BRANCH   1   8
HETATM    8  C   UNL     1      -5.942   2.702 -33.123  1.00  0.00     0.277 C 
BRANCH   8   9
HETATM    9  C   UNL     1      -7.024   2.464 -32.131  1.00  0.00     0.012 A 
HETATM   10  C   UNL     1      -8.186   1.615 -32.171  1.00  0.00     0.071 A 
HETATM   11  N   UNL     1      -8.860   1.696 -31.012  1.00  0.00    -0.178 NA
HETATM   12  N   UNL     1      -8.230   2.613 -30.286  1.00  0.00    -0.288 N 
HETATM   13  H   UNL     1      -8.604   2.852 -29.371  1.00  0.00     0.188 HD
HETATM   14  C   UNL     1      -7.134   3.113 -30.912  1.00  0.00     0.120 A 
BRANCH  10  15
HETATM   15  C   UNL     1      -8.780   0.664 -33.220  1.00  0.00    -0.004 C 
HETATM   16  C   UNL     1      -7.771  -0.474 -33.522  1.00  0.00     0.021 C 
HETATM   17  C   UNL     1      -9.050   1.439 -34.529  1.00  0.00     0.021 C 
HETATM   18  C   UNL     1     -10.092  -0.018 -32.805  1.00  0.00     0.021 C 
ENDBRANCH  10  15
ENDBRANCH   8   9
ENDBRANCH   1   8
BRANCH   3  19
HETATM   19  C   UNL     1      -3.416   1.783 -31.632  1.00  0.00     0.156 C 
BRANCH  19  20
HETATM   20  N   UNL     1      -3.376   0.502 -32.318  1.00  0.00    -0.355 N 
HETATM   21  C   UNL     1      -4.254  -0.507 -31.963  1.00  0.00     0.251 C 
HETATM   22  O   UNL     1      -5.156  -0.317 -31.153  1.00  0.00    -0.268 OA
HETATM   23  H   UNL     1      -2.507   0.223 -32.763  1.00  0.00     0.162 HD
BRANCH  21  24
HETATM   24  C   UNL     1      -4.047  -1.844 -32.580  1.00  0.00     0.032 A 
HETATM   25  C   UNL     1      -3.279  -2.784 -31.879  1.00  0.00     0.017 A 
HETATM   26  C   UNL     1      -3.064  -4.053 -32.416  1.00  0.00     0.001 A 
HETATM   27  C   UNL     1      -3.622  -4.392 -33.648  1.00  0.00     0.000 A 
HETATM   28  C   UNL     1      -4.400  -3.466 -34.341  1.00  0.00     0.001 A 
HETATM   29  C   UNL     1      -4.619  -2.193 -33.810  1.00  0.00     0.017 A 
ENDBRANCH  21  24
ENDBRANCH  19  20
ENDBRANCH   3  19
TORSDOF 6
ENDMDL
MODEL 5
REMARK VINA RESULT:      -8.0      1.805      2.782
REMARK  6 active torsions:
REMARK  status: ('A' for Active; 'I' for Inactive)
REMARK    1  A    between atoms: C_2  and  C_3 
REMARK    2  A    between atoms: C_8  and  C_9 
REMARK    3  A    between atoms: C_9  and  N_10 
REMARK    4  A    between atoms: C_12  and  C_13 
REMARK    5  A    between atoms: C_13  and  N_14 
REMARK       I    between atoms: N_14  and  C_15 
REMARK    6  A    between atoms: C_15  and  C_16 
ROOT
HETATM    1  N   UNL     1      -9.281   2.589 -32.066  1.00  0.00    -0.061 N 
HETATM    2  H   UNL     1      -9.851   2.018 -31.431  1.00  0.00     0.280 HD
HETATM    3  C   UNL     1      -8.149   1.678 -32.582  1.00  0.00     0.206 C 
HETATM    4  C   UNL     1      -7.383   1.142 -31.355  1.00  0.00     0.035 C 
HETATM    5  C   UNL     1      -6.859   2.257 -30.460  1.00  0.00     0.004 C 
HETATM    6  C   UNL     1      -7.983   3.188 -30.035  1.00  0.00     0.028 C 
HETATM    7  C   UNL     1      -8.728   3.736 -31.240  1.00  0.00     0.236 C 
ENDROOT
BRANCH   1   8
HETATM    8  C   UNL     1     -10.260   3.111 -33.116  1.00  0.00     0.277 C 
BRANCH   8   9
HETATM    9  C   UNL     1     -11.686   3.219 -32.709  1.00  0.00     0.012 A 
HETATM   10  C   UNL     1     -12.848   2.458 -33.091  1.00  0.00     0.071 A 
HETATM   11  N   UNL     1     -13.929   2.895 -32.424  1.00  0.00    -0.178 NA
HETATM   12  N   UNL     1     -13.521   3.941 -31.712  1.00  0.00    -0.288 N 
HETATM   13  H   UNL     1     -14.203   4.443 -31.150  1.00  0.00     0.188 HD
HETATM   14  C   UNL     1     -12.193   4.185 -31.856  1.00  0.00     0.120 A 
BRANCH  10  15
HETATM   15  C   UNL     1     -13.091   1.289 -34.056  1.00  0.00    -0.004 C 
HETATM   16  C   UNL     1     -12.476   1.620 -35.440  1.00  0.00     0.021 C 
HETATM   17  C   UNL     1     -14.611   1.071 -34.234  1.00  0.00     0.021 C 
HETATM   18  C   UNL     1     -12.478  -0.049 -33.618  1.00  0.00     0.021 C 
ENDBRANCH  10  15
ENDBRANCH   8   9
ENDBRANCH   1   8
BRANCH   3  19
HETATM   19  C   UNL     1      -8.699   0.480 -33.416  1.00  0.00     0.156 C 
BRANCH  19  20
HETATM   20  N   UNL     1      -7.853  -0.703 -33.414  1.00  0.00    -0.355 N 
HETATM   21  C   UNL     1      -6.965  -0.926 -34.451  1.00  0.00     0.251 C 
HETATM   22  O   UNL     1      -6.780  -0.090 -35.330  1.00  0.00    -0.268 OA
HETATM   23  H   UNL     1      -8.165  -1.514 -32.888  1.00  0.00     0.162 HD
BRANCH  21  24
HETATM   24  C   UNL     1      -6.258  -2.234 -34.476  1.00  0.00     0.032 A 
HETATM   25  C   UNL     1      -4.906  -2.263 -34.110  1.00  0.00     0.017 A 
HETATM   26  C   UNL     1      -4.204  -3.468 -34.112  1.00  0.00     0.001 A 
HETATM   27  C   UNL     1      -4.851  -4.650 -34.470  1.00  0.00     0.000 A 
HETATM   28  C   UNL     1      -6.201  -4.630 -34.820  1.00  0.00     0.001 A 
HETATM   29  C   UNL     1      -6.909  -3.426 -34.821  1.00  0.00     0.017 A 
ENDBRANCH  21  24
ENDBRANCH  19  20
ENDBRANCH   3  19
TORSDOF 6
ENDMDL
MODEL 6
REMARK VINA RESULT:      -7.9      2.004      3.301
REMARK  6 active torsions:
REMARK  status: ('A' for Active; 'I' for Inactive)
REMARK    1  A    between atoms: C_2  and  C_3 
REMARK    2  A    between atoms: C_8  and  C_9 
REMARK    3  A    between atoms: C_9  and  N_10 
REMARK    4  A    between atoms: C_12  and  C_13 
REMARK    5  A    between atoms: C_13  and  N_14 
REMARK       I    between atoms: N_14  and  C_15 
REMARK    6  A    between atoms: C_15  and  C_16 
ROOT
HETATM    1  N   UNL     1     -10.470   2.447 -32.437  1.00  0.00    -0.061 N 
HETATM    2  H   UNL     1     -10.973   1.873 -31.750  1.00  0.00     0.280 HD
HETATM    3  C   UNL     1      -9.152   1.710 -32.747  1.00  0.00     0.206 C 
HETATM    4  C   UNL     1      -8.400   1.516 -31.414  1.00  0.00     0.035 C 
HETATM    5  C   UNL     1      -8.164   2.830 -30.679  1.00  0.00     0.004 C 
HETATM    6  C   UNL     1      -9.471   3.575 -30.462  1.00  0.00     0.028 C 
HETATM    7  C   UNL     1     -10.207   3.787 -31.775  1.00  0.00     0.236 C 
ENDROOT
BRANCH   1   8
HETATM    8  C   UNL     1     -11.443   2.611 -33.604  1.00  0.00     0.277 C 
BRANCH   8   9
HETATM    9  C   UNL     1     -12.790   2.002 -33.446  1.00  0.00     0.012 A 
HETATM   10  C   UNL     1     -14.007   2.512 -32.867  1.00  0.00     0.071 A 
HETATM   11  N   UNL     1     -14.993   1.609 -32.990  1.00  0.00    -0.178 NA
HETATM   12  N   UNL     1     -14.437   0.532 -33.536  1.00  0.00    -0.288 N 
HETATM   13  H   UNL     1     -15.015  -0.291 -33.688  1.00  0.00     0.188 HD
HETATM   14  C   UNL     1     -13.120   0.709 -33.816  1.00  0.00     0.120 A 
BRANCH  10  15
HETATM   15  C   UNL     1     -14.393   3.829 -32.178  1.00  0.00    -0.004 C 
HETATM   16  C   UNL     1     -13.673   3.930 -30.809  1.00  0.00     0.021 C 
HETATM   17  C   UNL     1     -15.919   3.857 -31.934  1.00  0.00     0.021 C 
HETATM   18  C   UNL     1     -14.024   5.098 -32.959  1.00  0.00     0.021 C 
ENDBRANCH  10  15
ENDBRANCH   8   9
ENDBRANCH   1   8
BRANCH   3  19
HETATM   19  C   UNL     1      -9.403   0.321 -33.409  1.00  0.00     0.156 C 
BRANCH  19  20
HETATM   20  N   UNL     1      -8.271  -0.591 -33.360  1.00  0.00    -0.355 N 
HETATM   21  C   UNL     1      -7.476  -0.776 -34.477  1.00  0.00     0.251 C 
HETATM   22  O   UNL     1      -7.626  -0.102 -35.491  1.00  0.00    -0.268 OA
HETATM   23  H   UNL     1      -8.288  -1.340 -32.674  1.00  0.00     0.162 HD
BRANCH  21  24
HETATM   24  C   UNL     1      -6.445  -1.846 -34.414  1.00  0.00     0.032 A 
HETATM   25  C   UNL     1      -5.213  -1.543 -33.820  1.00  0.00     0.017 A 
HETATM   26  C   UNL     1      -4.219  -2.518 -33.731  1.00  0.00     0.001 A 
HETATM   27  C   UNL     1      -4.454  -3.800 -34.226  1.00  0.00     0.000 A 
HETATM   28  C   UNL     1      -5.685  -4.111 -34.803  1.00  0.00     0.001 A 
HETATM   29  C   UNL     1      -6.684  -3.140 -34.896  1.00  0.00     0.017 A 
ENDBRANCH  21  24
ENDBRANCH  19  20
ENDBRANCH   3  19
TORSDOF 6
ENDMDL
MODEL 7
REMARK VINA RESULT:      -7.7      2.400      5.281
REMARK  6 active torsions:
REMARK  status: ('A' for Active; 'I' for Inactive)
REMARK    1  A    between atoms: C_2  and  C_3 
REMARK    2  A    between atoms: C_8  and  C_9 
REMARK    3  A    between atoms: C_9  and  N_10 
REMARK    4  A    between atoms: C_12  and  C_13 
REMARK    5  A    between atoms: C_13  and  N_14 
REMARK       I    between atoms: N_14  and  C_15 
REMARK    6  A    between atoms: C_15  and  C_16 
ROOT
HETATM    1  N   UNL     1      -6.176   2.864 -31.236  1.00  0.00    -0.061 N 
HETATM    2  H   UNL     1      -6.311   3.684 -31.839  1.00  0.00     0.280 HD
HETATM    3  C   UNL     1      -6.693   1.646 -32.026  1.00  0.00     0.206 C 
HETATM    4  C   UNL     1      -8.164   1.919 -32.400  1.00  0.00     0.035 C 
HETATM    5  C   UNL     1      -9.030   2.224 -31.184  1.00  0.00     0.004 C 
HETATM    6  C   UNL     1      -8.451   3.375 -30.378  1.00  0.00     0.028 C 
HETATM    7  C   UNL     1      -7.007   3.102 -29.988  1.00  0.00     0.236 C 
ENDROOT
BRANCH   1   8
HETATM    8  C   UNL     1      -4.687   2.865 -30.893  1.00  0.00     0.277 C 
BRANCH   8   9
HETATM    9  C   UNL     1      -3.828   3.827 -31.635  1.00  0.00     0.012 A 
HETATM   10  C   UNL     1      -3.816   5.267 -31.668  1.00  0.00     0.071 A 
HETATM   11  N   UNL     1      -2.821   5.705 -32.456  1.00  0.00    -0.178 NA
HETATM   12  N   UNL     1      -2.268   4.617 -32.984  1.00  0.00    -0.288 N 
HETATM   13  H   UNL     1      -1.504   4.732 -33.645  1.00  0.00     0.188 HD
HETATM   14  C   UNL     1      -2.840   3.470 -32.536  1.00  0.00     0.120 A 
BRANCH  10  15
HETATM   15  C   UNL     1      -4.666   6.360 -31.002  1.00  0.00    -0.004 C 
HETATM   16  C   UNL     1      -6.075   6.388 -31.647  1.00  0.00     0.021 C 
HETATM   17  C   UNL     1      -3.999   7.737 -31.216  1.00  0.00     0.021 C 
HETATM   18  C   UNL     1      -4.882   6.179 -29.492  1.00  0.00     0.021 C 
ENDBRANCH  10  15
ENDBRANCH   8   9
ENDBRANCH   1   8
BRANCH   3  19
HETATM   19  C   UNL     1      -5.865   1.398 -33.323  1.00  0.00     0.156 C 
BRANCH  19  20
HETATM   20  N   UNL     1      -5.482   0.012 -33.547  1.00  0.00    -0.355 N 
HETATM   21  C   UNL     1      -6.193  -0.771 -34.438  1.00  0.00     0.251 C 
HETATM   22  O   UNL     1      -7.080  -0.300 -35.144  1.00  0.00    -0.268 OA
HETATM   23  H   UNL     1      -4.972  -0.468 -32.812  1.00  0.00     0.162 HD
BRANCH  21  24
HETATM   24  C   UNL     1      -5.861  -2.220 -34.491  1.00  0.00     0.032 A 
HETATM   25  C   UNL     1      -4.555  -2.611 -34.165  1.00  0.00     0.017 A 
HETATM   26  C   UNL     1      -4.200  -3.960 -34.193  1.00  0.00     0.001 A 
HETATM   27  C   UNL     1      -5.148  -4.923 -34.537  1.00  0.00     0.000 A 
HETATM   28  C   UNL     1      -6.453  -4.541 -34.846  1.00  0.00     0.001 A 
HETATM   29  C   UNL     1      -6.815  -3.192 -34.820  1.00  0.00     0.017 A 
ENDBRANCH  21  24
ENDBRANCH  19  20
ENDBRANCH   3  19
TORSDOF 6
ENDMDL
MODEL 8
REMARK VINA RESULT:      -7.6      1.915      2.873
REMARK  6 active torsions:
REMARK  status: ('A' for Active; 'I' for Inactive)
REMARK    1  A    between atoms: C_2  and  C_3 
REMARK    2  A    between atoms: C_8  and  C_9 
REMARK    3  A    between atoms: C_9  and  N_10 
REMARK    4  A    between atoms: C_12  and  C_13 
REMARK    5  A    between atoms: C_13  and  N_14 
REMARK       I    between atoms: N_14  and  C_15 
REMARK    6  A    between atoms: C_15  and  C_16 
ROOT
HETATM    1  N   UNL     1      -5.751   2.716 -31.171  1.00  0.00    -0.061 N 
HETATM    2  H   UNL     1      -5.217   2.989 -30.338  1.00  0.00     0.280 HD
HETATM    3  C   UNL     1      -4.799   1.885 -32.053  1.00  0.00     0.206 C 
HETATM    4  C   UNL     1      -3.560   2.754 -32.354  1.00  0.00     0.035 C 
HETATM    5  C   UNL     1      -3.923   4.086 -32.998  1.00  0.00     0.004 C 
HETATM    6  C   UNL     1      -4.927   4.846 -32.148  1.00  0.00     0.028 C 
HETATM    7  C   UNL     1      -6.159   4.003 -31.866  1.00  0.00     0.236 C 
ENDROOT
BRANCH   1   8
HETATM    8  C   UNL     1      -6.981   1.988 -30.632  1.00  0.00     0.277 C 
BRANCH   8   9
HETATM    9  C   UNL     1      -8.309   2.536 -31.020  1.00  0.00     0.012 A 
HETATM   10  C   UNL     1      -9.178   2.238 -32.129  1.00  0.00     0.071 A 
HETATM   11  N   UNL     1     -10.307   2.959 -32.041  1.00  0.00    -0.178 NA
HETATM   12  N   UNL     1     -10.153   3.753 -30.986  1.00  0.00    -0.288 N 
HETATM   13  H   UNL     1     -10.893   4.411 -30.759  1.00  0.00     0.188 HD
HETATM   14  C   UNL     1      -8.971   3.549 -30.348  1.00  0.00     0.120 A 
BRANCH  10  15
HETATM   15  C   UNL     1      -9.086   1.292 -33.336  1.00  0.00    -0.004 C 
HETATM   16  C   UNL     1      -7.841   1.653 -34.186  1.00  0.00     0.021 C 
HETATM   17  C   UNL     1     -10.346   1.452 -34.216  1.00  0.00     0.021 C 
HETATM   18  C   UNL     1      -8.954  -0.196 -32.981  1.00  0.00     0.021 C 
ENDBRANCH  10  15
ENDBRANCH   8   9
ENDBRANCH   1   8
BRANCH   3  19
HETATM   19  C   UNL     1      -4.351   0.568 -31.348  1.00  0.00     0.156 C 
BRANCH  19  20
HETATM   20  N   UNL     1      -4.852  -0.652 -31.961  1.00  0.00    -0.355 N 
HETATM   21  C   UNL     1      -4.222  -1.183 -33.073  1.00  0.00     0.251 C 
HETATM   22  O   UNL     1      -3.171  -0.716 -33.500  1.00  0.00    -0.268 OA
HETATM   23  H   UNL     1      -5.829  -0.890 -31.825  1.00  0.00     0.162 HD
BRANCH  21  24
HETATM   24  C   UNL     1      -4.884  -2.328 -33.752  1.00  0.00     0.032 A 
HETATM   25  C   UNL     1      -4.172  -3.530 -33.868  1.00  0.00     0.017 A 
HETATM   26  C   UNL     1      -4.755  -4.633 -34.490  1.00  0.00     0.001 A 
HETATM   27  C   UNL     1      -6.053  -4.545 -34.991  1.00  0.00     0.000 A 
HETATM   28  C   UNL     1      -6.772  -3.358 -34.864  1.00  0.00     0.001 A 
HETATM   29  C   UNL     1      -6.194  -2.249 -34.243  1.00  0.00     0.017 A 
ENDBRANCH  21  24
ENDBRANCH  19  20
ENDBRANCH   3  19
TORSDOF 6
ENDMDL
MODEL 9
REMARK VINA RESULT:      -7.6      1.791      2.438
REMARK  6 active torsions:
REMARK  status: ('A' for Active; 'I' for Inactive)
REMARK    1  A    between atoms: C_2  and  C_3 
REMARK    2  A    between atoms: C_8  and  C_9 
REMARK    3  A    between atoms: C_9  and  N_10 
REMARK    4  A    between atoms: C_12  and  C_13 
REMARK    5  A    between atoms: C_13  and  N_14 
REMARK       I    between atoms: N_14  and  C_15 
REMARK    6  A    between atoms: C_15  and  C_16 
ROOT
HETATM    1  N   UNL     1      -7.585   3.566 -33.310  1.00  0.00    -0.061 N 
HETATM    2  H   UNL     1      -7.767   3.681 -32.306  1.00  0.00     0.280 HD
HETATM    3  C   UNL     1      -6.710   2.306 -33.458  1.00  0.00     0.206 C 
HETATM    4  C   UNL     1      -5.440   2.515 -32.607  1.00  0.00     0.035 C 
HETATM    5  C   UNL     1      -4.687   3.785 -32.982  1.00  0.00     0.004 C 
HETATM    6  C   UNL     1      -5.598   5.000 -32.907  1.00  0.00     0.028 C 
HETATM    7  C   UNL     1      -6.840   4.809 -33.761  1.00  0.00     0.236 C 
ENDROOT
BRANCH   1   8
HETATM    8  C   UNL     1      -8.968   3.508 -33.959  1.00  0.00     0.277 C 
BRANCH   8   9
HETATM    9  C   UNL     1     -10.136   3.752 -33.071  1.00  0.00     0.012 A 
HETATM   10  C   UNL     1     -11.423   3.109 -32.989  1.00  0.00     0.071 A 
HETATM   11  N   UNL     1     -12.146   3.645 -31.992  1.00  0.00    -0.178 NA
HETATM   12  N   UNL     1     -11.416   4.643 -31.506  1.00  0.00    -0.288 N 
HETATM   13  H   UNL     1     -11.801   5.207 -30.753  1.00  0.00     0.188 HD
HETATM   14  C   UNL     1     -10.212   4.758 -32.123  1.00  0.00     0.120 A 
BRANCH  10  15
HETATM   15  C   UNL     1     -12.102   1.973 -33.767  1.00  0.00    -0.004 C 
HETATM   16  C   UNL     1     -13.556   1.792 -33.260  1.00  0.00     0.021 C 
HETATM   17  C   UNL     1     -11.334   0.653 -33.533  1.00  0.00     0.021 C 
HETATM   18  C   UNL     1     -12.195   2.194 -35.283  1.00  0.00     0.021 C 
ENDBRANCH  10  15
ENDBRANCH   8   9
ENDBRANCH   1   8
BRANCH   3  19
HETATM   19  C   UNL     1      -7.451   1.021 -32.980  1.00  0.00     0.156 C 
BRANCH  19  20
HETATM   20  N   UNL     1      -6.711  -0.216 -33.172  1.00  0.00    -0.355 N 
HETATM   21  C   UNL     1      -6.814  -0.912 -34.364  1.00  0.00     0.251 C 
HETATM   22  O   UNL     1      -7.429  -0.456 -35.323  1.00  0.00    -0.268 OA
HETATM   23  H   UNL     1      -6.440  -0.746 -32.349  1.00  0.00     0.162 HD
BRANCH  21  24
HETATM   24  C   UNL     1      -6.173  -2.252 -34.432  1.00  0.00     0.032 A 
HETATM   25  C   UNL     1      -4.832  -2.364 -34.040  1.00  0.00     0.017 A 
HETATM   26  C   UNL     1      -4.191  -3.602 -34.080  1.00  0.00     0.001 A 
HETATM   27  C   UNL     1      -4.887  -4.733 -34.502  1.00  0.00     0.000 A 
HETATM   28  C   UNL     1      -6.226  -4.631 -34.878  1.00  0.00     0.001 A 
HETATM   29  C   UNL     1      -6.874  -3.394 -34.841  1.00  0.00     0.017 A 
ENDBRANCH  21  24
ENDBRANCH  19  20
ENDBRANCH   3  19
TORSDOF 6
ENDMDL
MODEL 10
REMARK VINA RESULT:      -7.5      2.065      4.589
REMARK  6 active torsions:
REMARK  status: ('A' for Active; 'I' for Inactive)
REMARK    1  A    between atoms: C_2  and  C_3 
REMARK    2  A    between atoms: C_8  and  C_9 
REMARK    3  A    between atoms: C_9  and  N_10 
REMARK    4  A    between atoms: C_12  and  C_13 
REMARK    5  A    between atoms: C_13  and  N_14 
REMARK       I    between atoms: N_14  and  C_15 
REMARK    6  A    between atoms: C_15  and  C_16 
ROOT
HETATM    1  N   UNL     1      -8.584   2.523 -32.048  1.00  0.00    -0.061 N 
HETATM    2  H   UNL     1      -8.192   2.760 -32.967  1.00  0.00     0.280 HD
HETATM    3  C   UNL     1      -8.374   1.008 -31.858  1.00  0.00     0.206 C 
HETATM    4  C   UNL     1      -9.055   0.288 -33.040  1.00  0.00     0.035 C 
HETATM    5  C   UNL     1     -10.528   0.651 -33.175  1.00  0.00     0.004 C 
HETATM    6  C   UNL     1     -10.712   2.156 -33.276  1.00  0.00     0.028 C 
HETATM    7  C   UNL     1     -10.061   2.869 -32.103  1.00  0.00     0.236 C 
ENDROOT
BRANCH   1   8
HETATM    8  C   UNL     1      -7.858   3.435 -31.060  1.00  0.00     0.277 C 
BRANCH   8   9
HETATM    9  C   UNL     1      -7.367   4.737 -31.585  1.00  0.00     0.012 A 
HETATM   10  C   UNL     1      -6.344   5.053 -32.549  1.00  0.00     0.071 A 
HETATM   11  N   UNL     1      -6.282   6.381 -32.740  1.00  0.00    -0.178 NA
HETATM   12  N   UNL     1      -7.149   6.915 -31.886  1.00  0.00    -0.288 N 
HETATM   13  H   UNL     1      -7.235   7.927 -31.849  1.00  0.00     0.188 HD
HETATM   14  C   UNL     1      -7.815   5.978 -31.163  1.00  0.00     0.120 A 
BRANCH  10  15
HETATM   15  C   UNL     1      -5.360   4.215 -33.378  1.00  0.00    -0.004 C 
HETATM   16  C   UNL     1      -4.470   5.153 -34.233  1.00  0.00     0.021 C 
HETATM   17  C   UNL     1      -6.145   3.283 -34.327  1.00  0.00     0.021 C 
HETATM   18  C   UNL     1      -4.404   3.340 -32.554  1.00  0.00     0.021 C 
ENDBRANCH  10  15
ENDBRANCH   8   9
ENDBRANCH   1   8
BRANCH   3  19
HETATM   19  C   UNL     1      -6.862   0.628 -31.821  1.00  0.00     0.156 C 
BRANCH  19  20
HETATM   20  N   UNL     1      -6.559  -0.718 -32.280  1.00  0.00    -0.355 N 
HETATM   21  C   UNL     1      -5.717  -0.913 -33.360  1.00  0.00     0.251 C 
HETATM   22  O   UNL     1      -5.116   0.020 -33.883  1.00  0.00    -0.268 OA
HETATM   23  H   UNL     1      -7.225  -1.456 -32.072  1.00  0.00     0.162 HD
BRANCH  21  24
HETATM   24  C   UNL     1      -5.588  -2.298 -33.885  1.00  0.00     0.032 A 
HETATM   25  C   UNL     1      -6.699  -2.872 -34.517  1.00  0.00     0.017 A 
HETATM   26  C   UNL     1      -6.622  -4.166 -35.032  1.00  0.00     0.001 A 
HETATM   27  C   UNL     1      -5.434  -4.889 -34.926  1.00  0.00     0.000 A 
HETATM   28  C   UNL     1      -4.320  -4.316 -34.312  1.00  0.00     0.001 A 
HETATM   29  C   UNL     1      -4.391  -3.021 -33.794  1.00  0.00     0.017 A 
ENDBRANCH  21  24
ENDBRANCH  19  20
ENDBRANCH   3  19
TORSDOF 6
ENDMDL
