MODEL 1
REMARK VINA RESULT:      -8.8      0.000      0.000
REMARK  6 active torsions:
REMARK  status: ('A' for Active; 'I' for Inactive)
REMARK    1  A    between atoms: CG_8  and  CB_9 
REMARK    2  A    between atoms: CB_9  and  CA_10 
REMARK    3  A    between atoms: CA_10  and  N_11 
REMARK    4  A    between atoms: CA_10  and  C_12 
REMARK       I    between atoms: N_11  and  C_18 
REMARK    5  A    between atoms: C_12  and  O_13 
REMARK       I    between atoms: C_18  and  N_19 
REMARK    6  A    between atoms: N_19  and  C_20 
ROOT
ATOM      1  CA  TRP A   1      -8.076   0.877 -33.420  1.00  0.00     0.114 C 
ENDROOT
BRANCH   1   2
ATOM      2  CB  TRP A   1      -7.670  -0.088 -34.555  1.00  0.00     0.068 C 
BRANCH   2   3
ATOM      3  CG  TRP A   1      -6.383  -0.807 -34.264  1.00  0.00    -0.028 A 
ATOM      4  CD2 TRP A   1      -6.109  -2.204 -34.421  1.00  0.00    -0.002 A 
ATOM      5  CE3 TRP A   1      -6.854  -3.308 -34.881  1.00  0.00     0.014 A 
ATOM      6  CE2 TRP A   1      -4.799  -2.423 -33.994  1.00  0.00     0.042 A 
ATOM      7  CZ3 TRP A   1      -6.279  -4.584 -34.872  1.00  0.00     0.001 A 
ATOM      8  CH2 TRP A   1      -4.972  -4.770 -34.428  1.00  0.00     0.002 A 
ATOM      9  CZ2 TRP A   1      -4.203  -3.690 -33.985  1.00  0.00     0.030 A 
ATOM     10  NE1 TRP A   1      -4.283  -1.203 -33.626  1.00  0.00    -0.365 N 
ATOM     11  HE1 TRP A   1      -3.341  -1.056 -33.290  1.00  0.00     0.165 HD
ATOM     12  CD1 TRP A   1      -5.226  -0.224 -33.781  1.00  0.00     0.096 A 
ENDBRANCH   2   3
ENDBRANCH   1   2
BRANCH   1  13
ATOM     13  N   TRP A   1      -7.320   2.138 -33.446  1.00  0.00    -0.336 N 
HETATM   14  C   UNK A   0      -7.761   3.297 -32.895  1.00  0.00     0.321 C 
HETATM   15  N   UNK A   0      -6.948   4.384 -32.975  1.00  0.00    -0.309 N 
HETATM   16  O   UNK A   0      -8.877   3.419 -32.395  1.00  0.00    -0.247 OA
HETATM   17  H   UNK A   0      -7.453   5.233 -32.747  1.00  0.00     0.170 HD
ATOM     18  H   TRP A   1      -6.643   2.240 -34.190  1.00  0.00     0.164 HD
BRANCH  15  19
HETATM   19  C   UNK A   0      -5.556   4.520 -33.138  1.00  0.00     0.036 A 
HETATM   20  C   UNK A   0      -4.624   4.353 -32.111  1.00  0.00     0.039 A 
HETATM   21  C   UNK A   0      -3.284   4.594 -32.377  1.00  0.00    -0.024 A 
HETATM   22  C   UNK A   0      -2.856   4.996 -33.631  1.00  0.00    -0.026 A 
HETATM   23  C   UNK A   0      -2.124   4.551 -31.453  1.00  0.00     0.207 C 
HETATM   24  C   UNK A   0      -1.391   5.226 -33.599  1.00  0.00     0.207 C 
HETATM   25  C   UNK A   0      -3.755   5.174 -34.665  1.00  0.00     0.012 A 
HETATM   26  O   UNK A   0      -0.971   4.709 -32.314  1.00  0.00    -0.382 OA
HETATM   27  C   UNK A   0      -5.110   4.939 -34.410  1.00  0.00     0.030 A 
ENDBRANCH  15  19
ENDBRANCH   1  13
BRANCH   1  28
ATOM     28  C   TRP A   1      -8.010   0.173 -32.051  1.00  0.00     0.189 C 
BRANCH  28  29
ATOM     29  O   TRP A   1      -9.163   0.491 -31.273  1.00  0.00    -0.399 OA
ATOM     30  H   TRP A   1      -8.821   0.824 -30.424  1.00  0.00     0.209 HD
ENDBRANCH  28  29
ENDBRANCH   1  28
TORSDOF 6
ENDMDL
MODEL 2
REMARK VINA RESULT:      -8.7      2.194      3.014
REMARK  6 active torsions:
REMARK  status: ('A' for Active; 'I' for Inactive)
REMARK    1  A    between atoms: CG_8  and  CB_9 
REMARK    2  A    between atoms: CB_9  and  CA_10 
REMARK    3  A    between atoms: CA_10  and  N_11 
REMARK    4  A    between atoms: CA_10  and  C_12 
REMARK       I    between atoms: N_11  and  C_18 
REMARK    5  A    between atoms: C_12  and  O_13 
REMARK       I    between atoms: C_18  and  N_19 
REMARK    6  A    between atoms: N_19  and  C_20 
ROOT
ATOM      1  CA  TRP A   1      -4.294   0.581 -31.967  1.00  0.00     0.114 C 
ENDROOT
BRANCH   1   2
ATOM      2  CB  TRP A   1      -3.859  -0.209 -33.220  1.00  0.00     0.068 C 
BRANCH   2   3
ATOM      3  CG  TRP A   1      -4.985  -1.006 -33.816  1.00  0.00    -0.028 A 
ATOM      4  CD2 TRP A   1      -5.021  -2.416 -34.064  1.00  0.00    -0.002 A 
ATOM      5  CE3 TRP A   1      -4.120  -3.477 -33.845  1.00  0.00     0.014 A 
ATOM      6  CE2 TRP A   1      -6.249  -2.704 -34.659  1.00  0.00     0.042 A 
ATOM      7  CZ3 TRP A   1      -4.464  -4.772 -34.249  1.00  0.00     0.001 A 
ATOM      8  CH2 TRP A   1      -5.694  -5.024 -34.852  1.00  0.00     0.002 A 
ATOM      9  CZ2 TRP A   1      -6.615  -3.994 -35.063  1.00  0.00     0.030 A 
ATOM     10  NE1 TRP A   1      -6.950  -1.524 -34.736  1.00  0.00    -0.365 N 
ATOM     11  HE1 TRP A   1      -7.884  -1.435 -35.111  1.00  0.00     0.165 HD
ATOM     12  CD1 TRP A   1      -6.199  -0.495 -34.235  1.00  0.00     0.096 A 
ENDBRANCH   2   3
ENDBRANCH   1   2
BRANCH   1  13
ATOM     13  N   TRP A   1      -4.578   1.995 -32.255  1.00  0.00    -0.336 N 
HETATM   14  C   UNK A   0      -5.793   2.575 -32.081  1.00  0.00     0.321 C 
HETATM   15  N   UNK A   0      -5.908   3.899 -32.367  1.00  0.00    -0.309 N 
HETATM   16  O   UNK A   0      -6.793   1.945 -31.746  1.00  0.00    -0.247 OA
HETATM   17  H   UNK A   0      -6.881   4.174 -32.426  1.00  0.00     0.170 HD
ATOM     18  H   TRP A   1      -3.972   2.446 -32.926  1.00  0.00     0.164 HD
BRANCH  15  19
HETATM   19  C   UNK A   0      -4.967   4.945 -32.421  1.00  0.00     0.036 A 
HETATM   20  C   UNK A   0      -4.085   5.155 -33.484  1.00  0.00     0.039 A 
HETATM   21  C   UNK A   0      -3.146   6.171 -33.384  1.00  0.00    -0.024 A 
HETATM   22  C   UNK A   0      -3.065   6.974 -32.258  1.00  0.00    -0.026 A 
HETATM   23  C   UNK A   0      -2.071   6.549 -34.335  1.00  0.00     0.207 C 
HETATM   24  C   UNK A   0      -1.941   7.929 -32.418  1.00  0.00     0.207 C 
HETATM   25  C   UNK A   0      -3.920   6.787 -31.190  1.00  0.00     0.012 A 
HETATM   26  O   UNK A   0      -1.530   7.779 -33.797  1.00  0.00    -0.382 OA
HETATM   27  C   UNK A   0      -4.869   5.763 -31.275  1.00  0.00     0.030 A 
ENDBRANCH  15  19
ENDBRANCH   1  13
BRANCH   1  28
ATOM     28  C   TRP A   1      -3.277   0.400 -30.824  1.00  0.00     0.189 C 
BRANCH  28  29
ATOM     29  O   TRP A   1      -2.229  -0.482 -31.227  1.00  0.00    -0.399 OA
ATOM     30  H   TRP A   1      -1.407  -0.079 -30.892  1.00  0.00     0.209 HD
ENDBRANCH  28  29
ENDBRANCH   1  28
TORSDOF 6
ENDMDL
MODEL 3
REMARK VINA RESULT:      -8.7      2.438      4.073
REMARK  6 active torsions:
REMARK  status: ('A' for Active; 'I' for Inactive)
REMARK    1  A    between atoms: CG_8  and  CB_9 
REMARK    2  A    between atoms: CB_9  and  CA_10 
REMARK    3  A    between atoms: CA_10  and  N_11 
REMARK    4  A    between atoms: CA_10  and  C_12 
REMARK       I    between atoms: N_11  and  C_18 
REMARK    5  A    between atoms: C_12  and  O_13 
REMARK       I    between atoms: C_18  and  N_19 
REMARK    6  A    between atoms: N_19  and  C_20 
ROOT
ATOM      1  CA  TRP A   1      -5.621   4.059 -33.614  1.00  0.00     0.114 C 
ENDROOT
BRANCH   1   2
ATOM      2  CB  TRP A   1      -5.783   2.763 -32.791  1.00  0.00     0.068 C 
BRANCH   2   3
ATOM      3  CG  TRP A   1      -6.318   1.625 -33.613  1.00  0.00    -0.028 A 
ATOM      4  CD2 TRP A   1      -5.808   0.289 -33.690  1.00  0.00    -0.002 A 
ATOM      5  CE3 TRP A   1      -4.741  -0.395 -33.074  1.00  0.00     0.014 A 
ATOM      6  CE2 TRP A   1      -6.599  -0.408 -34.604  1.00  0.00     0.042 A 
ATOM      7  CZ3 TRP A   1      -4.488  -1.730 -33.409  1.00  0.00     0.001 A 
ATOM      8  CH2 TRP A   1      -5.290  -2.393 -34.335  1.00  0.00     0.002 A 
ATOM      9  CZ2 TRP A   1      -6.367  -1.746 -34.947  1.00  0.00     0.030 A 
ATOM     10  NE1 TRP A   1      -7.575   0.457 -35.039  1.00  0.00    -0.365 N 
ATOM     11  HE1 TRP A   1      -8.303   0.217 -35.697  1.00  0.00     0.165 HD
ATOM     12  CD1 TRP A   1      -7.416   1.683 -34.452  1.00  0.00     0.096 A 
ENDBRANCH   2   3
ENDBRANCH   1   2
BRANCH   1  13
ATOM     13  N   TRP A   1      -4.261   4.615 -33.541  1.00  0.00    -0.336 N 
HETATM   14  C   UNK A   0      -3.632   5.217 -34.582  1.00  0.00     0.321 C 
HETATM   15  N   UNK A   0      -2.381   5.706 -34.368  1.00  0.00    -0.309 N 
HETATM   16  O   UNK A   0      -4.113   5.277 -35.711  1.00  0.00    -0.247 OA
HETATM   17  H   UNK A   0      -1.920   5.921 -35.243  1.00  0.00     0.170 HD
ATOM     18  H   TRP A   1      -3.655   4.226 -32.832  1.00  0.00     0.164 HD
BRANCH  15  19
HETATM   19  C   UNK A   0      -1.707   6.112 -33.200  1.00  0.00     0.036 A 
HETATM   20  C   UNK A   0      -1.014   5.246 -32.350  1.00  0.00     0.039 A 
HETATM   21  C   UNK A   0      -0.461   5.754 -31.184  1.00  0.00    -0.024 A 
HETATM   22  C   UNK A   0      -0.582   7.092 -30.847  1.00  0.00    -0.026 A 
HETATM   23  C   UNK A   0       0.257   5.037 -30.100  1.00  0.00     0.207 C 
HETATM   24  C   UNK A   0       0.061   7.326 -29.531  1.00  0.00     0.207 C 
HETATM   25  C   UNK A   0      -1.265   7.970 -31.665  1.00  0.00     0.012 A 
HETATM   26  O   UNK A   0       0.758   6.091 -29.243  1.00  0.00    -0.382 OA
HETATM   27  C   UNK A   0      -1.832   7.472 -32.842  1.00  0.00     0.030 A 
ENDBRANCH  15  19
ENDBRANCH   1  13
BRANCH   1  28
ATOM     28  C   TRP A   1      -6.704   5.088 -33.236  1.00  0.00     0.189 C 
BRANCH  28  29
ATOM     29  O   TRP A   1      -7.588   5.304 -34.336  1.00  0.00    -0.399 OA
ATOM     30  H   TRP A   1      -8.303   4.651 -34.227  1.00  0.00     0.209 HD
ENDBRANCH  28  29
ENDBRANCH   1  28
TORSDOF 6
ENDMDL
MODEL 4
REMARK VINA RESULT:      -8.6      3.687      6.000
REMARK  6 active torsions:
REMARK  status: ('A' for Active; 'I' for Inactive)
REMARK    1  A    between atoms: CG_8  and  CB_9 
REMARK    2  A    between atoms: CB_9  and  CA_10 
REMARK    3  A    between atoms: CA_10  and  N_11 
REMARK    4  A    between atoms: CA_10  and  C_12 
REMARK       I    between atoms: N_11  and  C_18 
REMARK    5  A    between atoms: C_12  and  O_13 
REMARK       I    between atoms: C_18  and  N_19 
REMARK    6  A    between atoms: N_19  and  C_20 
ROOT
ATOM      1  CA  TRP A   1      -7.918   0.233 -33.111  1.00  0.00     0.114 C 
ENDROOT
BRANCH   1   2
ATOM      2  CB  TRP A   1      -6.928   0.182 -34.295  1.00  0.00     0.068 C 
BRANCH   2   3
ATOM      3  CG  TRP A   1      -5.814  -0.801 -34.069  1.00  0.00    -0.028 A 
ATOM      4  CD2 TRP A   1      -5.820  -2.206 -34.346  1.00  0.00    -0.002 A 
ATOM      5  CE3 TRP A   1      -6.763  -3.097 -34.897  1.00  0.00     0.014 A 
ATOM      6  CE2 TRP A   1      -4.586  -2.717 -33.942  1.00  0.00     0.042 A 
ATOM      7  CZ3 TRP A   1      -6.453  -4.458 -34.999  1.00  0.00     0.001 A 
ATOM      8  CH2 TRP A   1      -5.216  -4.938 -34.575  1.00  0.00     0.002 A 
ATOM      9  CZ2 TRP A   1      -4.255  -4.074 -34.043  1.00  0.00     0.030 A 
ATOM     10  NE1 TRP A   1      -3.844  -1.660 -33.472  1.00  0.00    -0.365 N 
ATOM     11  HE1 TRP A   1      -2.897  -1.733 -33.126  1.00  0.00     0.165 HD
ATOM     12  CD1 TRP A   1      -4.571  -0.503 -33.541  1.00  0.00     0.096 A 
ENDBRANCH   2   3
ENDBRANCH   1   2
BRANCH   1  13
ATOM     13  N   TRP A   1      -9.254   0.704 -33.505  1.00  0.00    -0.336 N 
HETATM   14  C   UNK A   0     -10.412   0.142 -33.076  1.00  0.00     0.321 C 
HETATM   15  N   UNK A   0     -11.579   0.694 -33.504  1.00  0.00    -0.309 N 
HETATM   16  O   UNK A   0     -10.448  -0.871 -32.382  1.00  0.00    -0.247 OA
HETATM   17  H   UNK A   0     -12.362   0.077 -33.322  1.00  0.00     0.170 HD
ATOM     18  H   TRP A   1      -9.312   1.208 -34.380  1.00  0.00     0.164 HD
BRANCH  15  19
HETATM   19  C   UNK A   0     -11.905   1.981 -33.974  1.00  0.00     0.036 A 
HETATM   20  C   UNK A   0     -12.177   3.074 -33.148  1.00  0.00     0.039 A 
HETATM   21  C   UNK A   0     -12.568   4.271 -33.729  1.00  0.00    -0.024 A 
HETATM   22  C   UNK A   0     -12.695   4.403 -35.102  1.00  0.00    -0.026 A 
HETATM   23  C   UNK A   0     -12.971   5.542 -33.075  1.00  0.00     0.207 C 
HETATM   24  C   UNK A   0     -13.174   5.770 -35.421  1.00  0.00     0.207 C 
HETATM   25  C   UNK A   0     -12.437   3.339 -35.944  1.00  0.00     0.012 A 
HETATM   26  O   UNK A   0     -13.093   6.486 -34.166  1.00  0.00    -0.382 OA
HETATM   27  C   UNK A   0     -12.046   2.124 -35.371  1.00  0.00     0.030 A 
ENDBRANCH  15  19
ENDBRANCH   1  13
BRANCH   1  28
ATOM     28  C   TRP A   1      -7.327   1.037 -31.937  1.00  0.00     0.189 C 
BRANCH  28  29
ATOM     29  O   TRP A   1      -7.446   0.298 -30.721  1.00  0.00    -0.399 OA
ATOM     30  H   TRP A   1      -7.616  -0.622 -30.991  1.00  0.00     0.209 HD
ENDBRANCH  28  29
ENDBRANCH   1  28
TORSDOF 6
ENDMDL
MODEL 5
REMARK VINA RESULT:      -8.6      2.317      7.479
REMARK  6 active torsions:
REMARK  status: ('A' for Active; 'I' for Inactive)
REMARK    1  A    between atoms: CG_8  and  CB_9 
REMARK    2  A    between atoms: CB_9  and  CA_10 
REMARK    3  A    between atoms: CA_10  and  N_11 
REMARK    4  A    between atoms: CA_10  and  C_12 
REMARK       I    between atoms: N_11  and  C_18 
REMARK    5  A    between atoms: C_12  and  O_13 
REMARK       I    between atoms: C_18  and  N_19 
REMARK    6  A    between atoms: N_19  and  C_20 
ROOT
ATOM      1  CA  TRP A   1      -5.607   2.533 -31.206  1.00  0.00     0.114 C 
ENDROOT
BRANCH   1   2
ATOM      2  CB  TRP A   1      -6.148   3.713 -32.043  1.00  0.00     0.068 C 
BRANCH   2   3
ATOM      3  CG  TRP A   1      -5.138   4.225 -33.031  1.00  0.00    -0.028 A 
ATOM      4  CD2 TRP A   1      -3.787   4.625 -32.770  1.00  0.00    -0.002 A 
ATOM      5  CE3 TRP A   1      -2.976   4.662 -31.618  1.00  0.00     0.014 A 
ATOM      6  CE2 TRP A   1      -3.241   5.064 -33.977  1.00  0.00     0.042 A 
ATOM      7  CZ3 TRP A   1      -1.670   5.157 -31.706  1.00  0.00     0.001 A 
ATOM      8  CH2 TRP A   1      -1.160   5.599 -32.924  1.00  0.00     0.002 A 
ATOM      9  CZ2 TRP A   1      -1.934   5.555 -34.087  1.00  0.00     0.030 A 
ATOM     10  NE1 TRP A   1      -4.208   4.904 -34.942  1.00  0.00    -0.365 N 
ATOM     11  HE1 TRP A   1      -4.084   5.126 -35.919  1.00  0.00     0.165 HD
ATOM     12  CD1 TRP A   1      -5.353   4.403 -34.385  1.00  0.00     0.096 A 
ENDBRANCH   2   3
ENDBRANCH   1   2
BRANCH   1  13
ATOM     13  N   TRP A   1      -5.136   1.414 -32.035  1.00  0.00    -0.336 N 
HETATM   14  C   UNK A   0      -3.864   0.940 -32.016  1.00  0.00     0.321 C 
HETATM   15  N   UNK A   0      -3.571  -0.116 -32.821  1.00  0.00    -0.309 N 
HETATM   16  O   UNK A   0      -2.965   1.463 -31.362  1.00  0.00    -0.247 OA
HETATM   17  H   UNK A   0      -2.569  -0.241 -32.906  1.00  0.00     0.170 HD
ATOM     18  H   TRP A   1      -5.654   1.235 -32.884  1.00  0.00     0.164 HD
BRANCH  15  19
HETATM   19  C   UNK A   0      -4.369  -1.127 -33.391  1.00  0.00     0.036 A 
HETATM   20  C   UNK A   0      -4.016  -2.478 -33.432  1.00  0.00     0.039 A 
HETATM   21  C   UNK A   0      -4.849  -3.367 -34.095  1.00  0.00    -0.024 A 
HETATM   22  C   UNK A   0      -6.014  -2.945 -34.713  1.00  0.00    -0.026 A 
HETATM   23  C   UNK A   0      -4.666  -4.821 -34.332  1.00  0.00     0.207 C 
HETATM   24  C   UNK A   0      -6.663  -4.102 -35.378  1.00  0.00     0.207 C 
HETATM   25  C   UNK A   0      -6.387  -1.615 -34.693  1.00  0.00     0.012 A 
HETATM   26  O   UNK A   0      -5.922  -5.253 -34.909  1.00  0.00    -0.382 OA
HETATM   27  C   UNK A   0      -5.554  -0.706 -34.032  1.00  0.00     0.030 A 
ENDBRANCH  15  19
ENDBRANCH   1  13
BRANCH   1  28
ATOM     28  C   TRP A   1      -6.637   2.095 -30.147  1.00  0.00     0.189 C 
BRANCH  28  29
ATOM     29  O   TRP A   1      -6.068   1.117 -29.276  1.00  0.00    -0.399 OA
ATOM     30  H   TRP A   1      -6.806   0.799 -28.726  1.00  0.00     0.209 HD
ENDBRANCH  28  29
ENDBRANCH   1  28
TORSDOF 6
ENDMDL
MODEL 6
REMARK VINA RESULT:      -8.6      2.379      3.234
REMARK  6 active torsions:
REMARK  status: ('A' for Active; 'I' for Inactive)
REMARK    1  A    between atoms: CG_8  and  CB_9 
REMARK    2  A    between atoms: CB_9  and  CA_10 
REMARK    3  A    between atoms: CA_10  and  N_11 
REMARK    4  A    between atoms: CA_10  and  C_12 
REMARK       I    between atoms: N_11  and  C_18 
REMARK    5  A    between atoms: C_12  and  O_13 
REMARK       I    between atoms: C_18  and  N_19 
REMARK    6  A    between atoms: N_19  and  C_20 
ROOT
ATOM      1  CA  TRP A   1      -3.982   0.466 -32.231  1.00  0.00     0.114 C 
ENDROOT
BRANCH   1   2
ATOM      2  CB  TRP A   1      -3.699  -0.373 -33.495  1.00  0.00     0.068 C 
BRANCH   2   3
ATOM      3  CG  TRP A   1      -4.914  -1.114 -33.977  1.00  0.00    -0.028 A 
ATOM      4  CD2 TRP A   1      -5.045  -2.522 -34.203  1.00  0.00    -0.002 A 
ATOM      5  CE3 TRP A   1      -4.184  -3.628 -34.054  1.00  0.00     0.014 A 
ATOM      6  CE2 TRP A   1      -6.336  -2.750 -34.681  1.00  0.00     0.042 A 
ATOM      7  CZ3 TRP A   1      -4.630  -4.906 -34.409  1.00  0.00     0.001 A 
ATOM      8  CH2 TRP A   1      -5.921  -5.097 -34.895  1.00  0.00     0.002 A 
ATOM      9  CZ2 TRP A   1      -6.803  -4.022 -35.035  1.00  0.00     0.030 A 
ATOM     10  NE1 TRP A   1      -6.978  -1.535 -34.710  1.00  0.00    -0.365 N 
ATOM     11  HE1 TRP A   1      -7.937  -1.400 -35.000  1.00  0.00     0.165 HD
ATOM     12  CD1 TRP A   1      -6.134  -0.544 -34.291  1.00  0.00     0.096 A 
ENDBRANCH   2   3
ENDBRANCH   1   2
BRANCH   1  13
ATOM     13  N   TRP A   1      -3.665   1.891 -32.409  1.00  0.00    -0.336 N 
HETATM   14  C   UNK A   0      -4.601   2.861 -32.569  1.00  0.00     0.321 C 
HETATM   15  N   UNK A   0      -4.166   4.142 -32.703  1.00  0.00    -0.309 N 
HETATM   16  O   UNK A   0      -5.802   2.622 -32.666  1.00  0.00    -0.247 OA
HETATM   17  H   UNK A   0      -4.907   4.744 -33.041  1.00  0.00     0.170 HD
ATOM     18  H   TRP A   1      -2.750   2.103 -32.780  1.00  0.00     0.164 HD
BRANCH  15  19
HETATM   19  C   UNK A   0      -2.979   4.788 -32.308  1.00  0.00     0.036 A 
HETATM   20  C   UNK A   0      -2.770   5.345 -31.043  1.00  0.00     0.039 A 
HETATM   21  C   UNK A   0      -1.588   6.030 -30.800  1.00  0.00    -0.024 A 
HETATM   22  C   UNK A   0      -0.619   6.172 -31.779  1.00  0.00    -0.026 A 
HETATM   23  C   UNK A   0      -1.162   6.757 -29.578  1.00  0.00     0.207 C 
HETATM   24  C   UNK A   0       0.499   6.989 -31.247  1.00  0.00     0.207 C 
HETATM   25  C   UNK A   0      -0.800   5.637 -33.040  1.00  0.00     0.012 A 
HETATM   26  O   UNK A   0       0.219   7.111 -29.833  1.00  0.00    -0.382 OA
HETATM   27  C   UNK A   0      -1.989   4.948 -33.300  1.00  0.00     0.030 A 
ENDBRANCH  15  19
ENDBRANCH   1  13
BRANCH   1  28
ATOM     28  C   TRP A   1      -3.290  -0.148 -30.998  1.00  0.00     0.189 C 
BRANCH  28  29
ATOM     29  O   TRP A   1      -2.616  -1.354 -31.357  1.00  0.00    -0.399 OA
ATOM     30  H   TRP A   1      -1.760  -1.322 -30.892  1.00  0.00     0.209 HD
ENDBRANCH  28  29
ENDBRANCH   1  28
TORSDOF 6
ENDMDL
MODEL 7
REMARK VINA RESULT:      -8.6      2.641      8.100
REMARK  6 active torsions:
REMARK  status: ('A' for Active; 'I' for Inactive)
REMARK    1  A    between atoms: CG_8  and  CB_9 
REMARK    2  A    between atoms: CB_9  and  CA_10 
REMARK    3  A    between atoms: CA_10  and  N_11 
REMARK    4  A    between atoms: CA_10  and  C_12 
REMARK       I    between atoms: N_11  and  C_18 
REMARK    5  A    between atoms: C_12  and  O_13 
REMARK       I    between atoms: C_18  and  N_19 
REMARK    6  A    between atoms: N_19  and  C_20 
ROOT
ATOM      1  CA  TRP A   1      -4.526   4.371 -33.316  1.00  0.00     0.114 C 
ENDROOT
BRANCH   1   2
ATOM      2  CB  TRP A   1      -3.036   4.508 -32.935  1.00  0.00     0.068 C 
BRANCH   2   3
ATOM      3  CG  TRP A   1      -2.836   5.314 -31.682  1.00  0.00    -0.028 A 
ATOM      4  CD2 TRP A   1      -1.625   5.926 -31.223  1.00  0.00    -0.002 A 
ATOM      5  CE3 TRP A   1      -0.313   6.015 -31.728  1.00  0.00     0.014 A 
ATOM      6  CE2 TRP A   1      -1.905   6.535 -29.999  1.00  0.00     0.042 A 
ATOM      7  CZ3 TRP A   1       0.671   6.679 -30.988  1.00  0.00     0.001 A 
ATOM      8  CH2 TRP A   1       0.362   7.266 -29.763  1.00  0.00     0.002 A 
ATOM      9  CZ2 TRP A   1      -0.936   7.211 -29.247  1.00  0.00     0.030 A 
ATOM     10  NE1 TRP A   1      -3.240   6.334 -29.741  1.00  0.00    -0.365 N 
ATOM     11  HE1 TRP A   1      -3.725   6.682 -28.925  1.00  0.00     0.165 HD
ATOM     12  CD1 TRP A   1      -3.810   5.599 -30.744  1.00  0.00     0.096 A 
ENDBRANCH   2   3
ENDBRANCH   1   2
BRANCH   1  13
ATOM     13  N   TRP A   1      -5.070   3.037 -33.017  1.00  0.00    -0.336 N 
HETATM   14  C   UNK A   0      -6.216   2.826 -32.322  1.00  0.00     0.321 C 
HETATM   15  N   UNK A   0      -6.614   1.539 -32.136  1.00  0.00    -0.309 N 
HETATM   16  O   UNK A   0      -6.862   3.734 -31.803  1.00  0.00    -0.247 OA
HETATM   17  H   UNK A   0      -7.334   1.480 -31.426  1.00  0.00     0.170 HD
ATOM     18  H   TRP A   1      -4.407   2.275 -33.006  1.00  0.00     0.164 HD
BRANCH  15  19
HETATM   19  C   UNK A   0      -6.345   0.350 -32.841  1.00  0.00     0.036 A 
HETATM   20  C   UNK A   0      -5.286  -0.514 -32.550  1.00  0.00     0.039 A 
HETATM   21  C   UNK A   0      -5.075  -1.613 -33.370  1.00  0.00    -0.024 A 
HETATM   22  C   UNK A   0      -5.885  -1.867 -34.464  1.00  0.00    -0.026 A 
HETATM   23  C   UNK A   0      -3.995  -2.629 -33.312  1.00  0.00     0.207 C 
HETATM   24  C   UNK A   0      -5.386  -3.071 -35.174  1.00  0.00     0.207 C 
HETATM   25  C   UNK A   0      -6.936  -1.028 -34.780  1.00  0.00     0.012 A 
HETATM   26  O   UNK A   0      -4.383  -3.624 -34.290  1.00  0.00    -0.382 OA
HETATM   27  C   UNK A   0      -7.158   0.086 -33.964  1.00  0.00     0.030 A 
ENDBRANCH  15  19
ENDBRANCH   1  13
BRANCH   1  28
ATOM     28  C   TRP A   1      -4.759   4.793 -34.779  1.00  0.00     0.189 C 
BRANCH  28  29
ATOM     29  O   TRP A   1      -3.682   5.610 -35.238  1.00  0.00    -0.399 OA
ATOM     30  H   TRP A   1      -3.567   6.296 -34.556  1.00  0.00     0.209 HD
ENDBRANCH  28  29
ENDBRANCH   1  28
TORSDOF 6
ENDMDL
MODEL 8
REMARK VINA RESULT:      -8.5      3.330      8.787
REMARK  6 active torsions:
REMARK  status: ('A' for Active; 'I' for Inactive)
REMARK    1  A    between atoms: CG_8  and  CB_9 
REMARK    2  A    between atoms: CB_9  and  CA_10 
REMARK    3  A    between atoms: CA_10  and  N_11 
REMARK    4  A    between atoms: CA_10  and  C_12 
REMARK       I    between atoms: N_11  and  C_18 
REMARK    5  A    between atoms: C_12  and  O_13 
REMARK       I    between atoms: C_18  and  N_19 
REMARK    6  A    between atoms: N_19  and  C_20 
ROOT
ATOM      1  CA  TRP A   1      -2.485   4.865 -33.295  1.00  0.00     0.114 C 
ENDROOT
BRANCH   1   2
ATOM      2  CB  TRP A   1      -1.081   5.321 -32.844  1.00  0.00     0.068 C 
BRANCH   2   3
ATOM      3  CG  TRP A   1      -1.136   6.406 -31.806  1.00  0.00    -0.028 A 
ATOM      4  CD2 TRP A   1      -0.526   6.405 -30.510  1.00  0.00    -0.002 A 
ATOM      5  CE3 TRP A   1       0.287   5.496 -29.805  1.00  0.00     0.014 A 
ATOM      6  CE2 TRP A   1      -0.876   7.602 -29.883  1.00  0.00     0.042 A 
ATOM      7  CZ3 TRP A   1       0.695   5.799 -28.501  1.00  0.00     0.001 A 
ATOM      8  CH2 TRP A   1       0.318   6.997 -27.900  1.00  0.00     0.002 A 
ATOM      9  CZ2 TRP A   1      -0.472   7.926 -28.582  1.00  0.00     0.030 A 
ATOM     10  NE1 TRP A   1      -1.638   8.319 -30.775  1.00  0.00    -0.365 N 
ATOM     11  HE1 TRP A   1      -2.019   9.238 -30.595  1.00  0.00     0.165 HD
ATOM     12  CD1 TRP A   1      -1.804   7.610 -31.933  1.00  0.00     0.096 A 
ENDBRANCH   2   3
ENDBRANCH   1   2
BRANCH   1  13
ATOM     13  N   TRP A   1      -2.875   3.567 -32.722  1.00  0.00    -0.336 N 
HETATM   14  C   UNK A   0      -3.647   3.429 -31.615  1.00  0.00     0.321 C 
HETATM   15  N   UNK A   0      -3.948   2.168 -31.208  1.00  0.00    -0.309 N 
HETATM   16  O   UNK A   0      -4.023   4.383 -30.938  1.00  0.00    -0.247 OA
HETATM   17  H   UNK A   0      -4.323   2.169 -30.267  1.00  0.00     0.170 HD
ATOM     18  H   TRP A   1      -2.270   2.785 -32.931  1.00  0.00     0.164 HD
BRANCH  15  19
HETATM   19  C   UNK A   0      -3.994   0.935 -31.888  1.00  0.00     0.036 A 
HETATM   20  C   UNK A   0      -4.953   0.603 -32.849  1.00  0.00     0.039 A 
HETATM   21  C   UNK A   0      -4.944  -0.675 -33.389  1.00  0.00    -0.024 A 
HETATM   22  C   UNK A   0      -4.011  -1.620 -32.997  1.00  0.00    -0.026 A 
HETATM   23  C   UNK A   0      -5.883  -1.285 -34.363  1.00  0.00     0.207 C 
HETATM   24  C   UNK A   0      -4.281  -2.897 -33.703  1.00  0.00     0.207 C 
HETATM   25  C   UNK A   0      -3.055  -1.322 -32.046  1.00  0.00     0.012 A 
HETATM   26  O   UNK A   0      -5.280  -2.560 -34.694  1.00  0.00    -0.382 OA
HETATM   27  C   UNK A   0      -3.055  -0.039 -31.489  1.00  0.00     0.030 A 
ENDBRANCH  15  19
ENDBRANCH   1  13
BRANCH   1  28
ATOM     28  C   TRP A   1      -2.605   4.896 -34.831  1.00  0.00     0.189 C 
BRANCH  28  29
ATOM     29  O   TRP A   1      -3.500   5.931 -35.238  1.00  0.00    -0.399 OA
ATOM     30  H   TRP A   1      -4.298   5.474 -35.558  1.00  0.00     0.209 HD
ENDBRANCH  28  29
ENDBRANCH   1  28
TORSDOF 6
ENDMDL
MODEL 9
REMARK VINA RESULT:      -8.5      3.505      6.621
REMARK  6 active torsions:
REMARK  status: ('A' for Active; 'I' for Inactive)
REMARK    1  A    between atoms: CG_8  and  CB_9 
REMARK    2  A    between atoms: CB_9  and  CA_10 
REMARK    3  A    between atoms: CA_10  and  N_11 
REMARK    4  A    between atoms: CA_10  and  C_12 
REMARK       I    between atoms: N_11  and  C_18 
REMARK    5  A    between atoms: C_12  and  O_13 
REMARK       I    between atoms: C_18  and  N_19 
REMARK    6  A    between atoms: N_19  and  C_20 
ROOT
ATOM      1  CA  TRP A   1      -7.583   0.552 -32.440  1.00  0.00     0.114 C 
ENDROOT
BRANCH   1   2
ATOM      2  CB  TRP A   1      -6.617   0.640 -33.640  1.00  0.00     0.068 C 
BRANCH   2   3
ATOM      3  CG  TRP A   1      -5.602  -0.468 -33.643  1.00  0.00    -0.028 A 
ATOM      4  CD2 TRP A   1      -5.783  -1.815 -34.096  1.00  0.00    -0.002 A 
ATOM      5  CE3 TRP A   1      -6.856  -2.526 -34.669  1.00  0.00     0.014 A 
ATOM      6  CE2 TRP A   1      -4.584  -2.494 -33.874  1.00  0.00     0.042 A 
ATOM      7  CZ3 TRP A   1      -6.705  -3.884 -34.971  1.00  0.00     0.001 A 
ATOM      8  CH2 TRP A   1      -5.499  -4.535 -34.725  1.00  0.00     0.002 A 
ATOM      9  CZ2 TRP A   1      -4.411  -3.851 -34.177  1.00  0.00     0.030 A 
ATOM     10  NE1 TRP A   1      -3.697  -1.589 -33.342  1.00  0.00    -0.365 N 
ATOM     11  HE1 TRP A   1      -2.740  -1.801 -33.096  1.00  0.00     0.165 HD
ATOM     12  CD1 TRP A   1      -4.298  -0.368 -33.196  1.00  0.00     0.096 A 
ENDBRANCH   2   3
ENDBRANCH   1   2
BRANCH   1  13
ATOM     13  N   TRP A   1      -8.827   1.307 -32.651  1.00  0.00    -0.336 N 
HETATM   14  C   UNK A   0      -8.867   2.618 -32.998  1.00  0.00     0.321 C 
HETATM   15  N   UNK A   0     -10.089   3.186 -33.183  1.00  0.00    -0.309 N 
HETATM   16  O   UNK A   0      -7.862   3.319 -33.085  1.00  0.00    -0.247 OA
HETATM   17  H   UNK A   0     -10.020   4.196 -33.210  1.00  0.00     0.170 HD
ATOM     18  H   TRP A   1      -9.650   0.955 -32.183  1.00  0.00     0.164 HD
BRANCH  15  19
HETATM   19  C   UNK A   0     -11.350   2.645 -33.502  1.00  0.00     0.036 A 
HETATM   20  C   UNK A   0     -12.498   2.816 -32.725  1.00  0.00     0.039 A 
HETATM   21  C   UNK A   0     -13.663   2.164 -33.102  1.00  0.00    -0.024 A 
HETATM   22  C   UNK A   0     -13.710   1.352 -34.223  1.00  0.00    -0.026 A 
HETATM   23  C   UNK A   0     -14.980   2.132 -32.418  1.00  0.00     0.207 C 
HETATM   24  C   UNK A   0     -15.063   0.755 -34.340  1.00  0.00     0.207 C 
HETATM   25  C   UNK A   0     -12.589   1.161 -35.007  1.00  0.00     0.012 A 
HETATM   26  O   UNK A   0     -15.855   1.454 -33.352  1.00  0.00    -0.382 OA
HETATM   27  C   UNK A   0     -11.406   1.809 -34.637  1.00  0.00     0.030 A 
ENDBRANCH  15  19
ENDBRANCH   1  13
BRANCH   1  28
ATOM     28  C   TRP A   1      -6.868   0.939 -31.131  1.00  0.00     0.189 C 
BRANCH  28  29
ATOM     29  O   TRP A   1      -7.062  -0.072 -30.141  1.00  0.00    -0.399 OA
ATOM     30  H   TRP A   1      -7.939   0.106 -29.756  1.00  0.00     0.209 HD
ENDBRANCH  28  29
ENDBRANCH   1  28
TORSDOF 6
ENDMDL
MODEL 10
REMARK VINA RESULT:      -8.4      1.747      2.226
REMARK  6 active torsions:
REMARK  status: ('A' for Active; 'I' for Inactive)
REMARK    1  A    between atoms: CG_8  and  CB_9 
REMARK    2  A    between atoms: CB_9  and  CA_10 
REMARK    3  A    between atoms: CA_10  and  N_11 
REMARK    4  A    between atoms: CA_10  and  C_12 
REMARK       I    between atoms: N_11  and  C_18 
REMARK    5  A    between atoms: C_12  and  O_13 
REMARK       I    between atoms: C_18  and  N_19 
REMARK    6  A    between atoms: N_19  and  C_20 
ROOT
ATOM      1  CA  TRP A   1      -7.542   1.817 -32.158  1.00  0.00     0.114 C 
ENDROOT
BRANCH   1   2
ATOM      2  CB  TRP A   1      -7.225   0.532 -31.363  1.00  0.00     0.068 C 
BRANCH   2   3
ATOM      3  CG  TRP A   1      -6.056  -0.221 -31.933  1.00  0.00    -0.028 A 
ATOM      4  CD2 TRP A   1      -6.061  -1.140 -33.031  1.00  0.00    -0.002 A 
ATOM      5  CE3 TRP A   1      -7.053  -1.615 -33.912  1.00  0.00     0.014 A 
ATOM      6  CE2 TRP A   1      -4.760  -1.620 -33.179  1.00  0.00     0.042 A 
ATOM      7  CZ3 TRP A   1      -6.718  -2.566 -34.883  1.00  0.00     0.001 A 
ATOM      8  CH2 TRP A   1      -5.412  -3.035 -34.997  1.00  0.00     0.002 A 
ATOM      9  CZ2 TRP A   1      -4.404  -2.566 -34.149  1.00  0.00     0.030 A 
ATOM     10  NE1 TRP A   1      -3.985  -0.992 -32.233  1.00  0.00    -0.365 N 
ATOM     11  HE1 TRP A   1      -2.991  -1.136 -32.119  1.00  0.00     0.165 HD
ATOM     12  CD1 TRP A   1      -4.753  -0.150 -31.476  1.00  0.00     0.096 A 
ENDBRANCH   2   3
ENDBRANCH   1   2
BRANCH   1  13
ATOM     13  N   TRP A   1      -6.533   2.870 -31.967  1.00  0.00    -0.336 N 
HETATM   14  C   UNK A   0      -6.207   3.397 -30.760  1.00  0.00     0.321 C 
HETATM   15  N   UNK A   0      -5.239   4.351 -30.727  1.00  0.00    -0.309 N 
HETATM   16  O   UNK A   0      -6.791   3.100 -29.720  1.00  0.00    -0.247 OA
HETATM   17  H   UNK A   0      -5.234   4.834 -29.836  1.00  0.00     0.170 HD
ATOM     18  H   TRP A   1      -6.345   3.461 -32.765  1.00  0.00     0.164 HD
BRANCH  15  19
HETATM   19  C   UNK A   0      -4.178   4.658 -31.600  1.00  0.00     0.036 A 
HETATM   20  C   UNK A   0      -3.759   5.957 -31.902  1.00  0.00     0.039 A 
HETATM   21  C   UNK A   0      -2.755   6.134 -32.843  1.00  0.00    -0.024 A 
HETATM   22  C   UNK A   0      -2.166   5.058 -33.485  1.00  0.00    -0.026 A 
HETATM   23  C   UNK A   0      -2.187   7.396 -33.378  1.00  0.00     0.207 C 
HETATM   24  C   UNK A   0      -1.170   5.557 -34.465  1.00  0.00     0.207 C 
HETATM   25  C   UNK A   0      -2.562   3.763 -33.210  1.00  0.00     0.012 A 
HETATM   26  O   UNK A   0      -1.060   6.972 -34.183  1.00  0.00    -0.382 OA
HETATM   27  C   UNK A   0      -3.577   3.570 -32.267  1.00  0.00     0.030 A 
ENDBRANCH  15  19
ENDBRANCH   1  13
BRANCH   1  28
ATOM     28  C   TRP A   1      -8.974   2.306 -31.863  1.00  0.00     0.189 C 
BRANCH  28  29
ATOM     29  O   TRP A   1      -9.401   1.843 -30.581  1.00  0.00    -0.399 OA
ATOM     30  H   TRP A   1      -8.773   2.227 -29.943  1.00  0.00     0.209 HD
ENDBRANCH  28  29
ENDBRANCH   1  28
TORSDOF 6
ENDMDL
