MODEL 1
REMARK VINA RESULT:      -9.7      0.000      0.000
REMARK  6 active torsions:
REMARK  status: ('A' for Active; 'I' for Inactive)
REMARK    1  A    between atoms: C_3  and  C_4 
REMARK       I    between atoms: C_4  and  N_5 
REMARK    2  A    between atoms: N_5  and  C_6 
REMARK    3  A    between atoms: C_14  and  N_15 
REMARK       I    between atoms: N_15  and  C_16 
REMARK    4  A    between atoms: C_16  and  C_17 
REMARK    5  A    between atoms: C_17  and  S_18 
REMARK    6  A    between atoms: S_18  and  C_19 
ROOT
HETATM    1  C   UNL     1      -6.235  -4.646 -34.902  1.00  0.00     0.001 A 
HETATM    2  C   UNL     1      -6.904  -3.426 -34.821  1.00  0.00     0.019 A 
HETATM    3  C   UNL     1      -6.213  -2.256 -34.447  1.00  0.00     0.059 A 
HETATM    4  C   UNL     1      -4.845  -2.321 -34.098  1.00  0.00     0.050 A 
HETATM    5  C   UNL     1      -4.192  -3.557 -34.202  1.00  0.00     0.030 A 
HETATM    6  C   UNL     1      -4.879  -4.706 -34.605  1.00  0.00     0.002 A 
ENDROOT
BRANCH   4   7
HETATM    7  N   UNL     1      -4.183  -1.162 -33.622  1.00  0.00    -0.326 N 
HETATM    8  C   UNL     1      -4.390  -0.482 -32.440  1.00  0.00     0.231 C 
HETATM    9  O   UNL     1      -5.137  -0.860 -31.535  1.00  0.00    -0.272 OA
HETATM   10  H   UNL     1      -3.479  -0.775 -34.255  1.00  0.00     0.169 HD
BRANCH   8  11
HETATM   11  C   UNL     1      -3.665   0.850 -32.286  1.00  0.00     0.185 C 
BRANCH  11  12
HETATM   12  S   UNL     1      -4.728   2.318 -32.368  1.00  0.00    -0.083 SA
BRANCH  12  13
HETATM   13  C   UNL     1      -3.545   3.569 -32.413  1.00  0.00     0.168 A 
HETATM   14  N   UNL     1      -2.457   3.652 -31.688  1.00  0.00    -0.223 NA
HETATM   15  C   UNL     1      -1.896   4.855 -32.043  1.00  0.00     0.086 A 
HETATM   16  C   UNL     1      -2.656   5.495 -33.021  1.00  0.00     0.063 A 
HETATM   17  C   UNL     1      -0.730   5.474 -31.572  1.00  0.00     0.034 A 
HETATM   18  N   UNL     1      -3.713   4.646 -33.229  1.00  0.00    -0.333 N 
HETATM   19  C   UNL     1      -2.312   6.729 -33.575  1.00  0.00     0.032 A 
HETATM   20  H   UNL     1      -4.492   4.790 -33.853  1.00  0.00     0.168 HD
HETATM   21  C   UNL     1      -1.142   7.328 -33.093  1.00  0.00     0.002 A 
HETATM   22  C   UNL     1      -0.364   6.716 -32.106  1.00  0.00     0.002 A 
ENDBRANCH  12  13
ENDBRANCH  11  12
ENDBRANCH   8  11
ENDBRANCH   4   7
BRANCH   3  23
HETATM   23  C   UNL     1      -6.946  -0.951 -34.451  1.00  0.00     0.258 C 
HETATM   24  N   UNL     1      -7.870  -0.794 -33.431  1.00  0.00    -0.323 N 
HETATM   25  H   UNL     1      -8.068  -1.608 -32.862  1.00  0.00     0.169 HD
HETATM   26  O   UNL     1      -6.739  -0.155 -35.359  1.00  0.00    -0.267 OA
BRANCH  24  27
HETATM   27  C   UNL     1      -8.654   0.346 -33.156  1.00  0.00     0.035 A 
HETATM   28  C   UNL     1      -9.664   0.821 -33.999  1.00  0.00     0.032 A 
HETATM   29  C   UNL     1     -10.394   1.962 -33.656  1.00  0.00     0.044 A 
HETATM   30  C   UNL     1     -10.110   2.632 -32.473  1.00  0.00     0.116 A 
HETATM   31  F   UNL     1     -10.810   3.725 -32.146  1.00  0.00    -0.206 F 
HETATM   32  C   UNL     1      -9.106   2.182 -31.627  1.00  0.00     0.044 A 
HETATM   33  C   UNL     1      -8.376   1.041 -31.969  1.00  0.00     0.032 A 
ENDBRANCH  24  27
ENDBRANCH   3  23
TORSDOF 6
ENDMDL
MODEL 2
REMARK VINA RESULT:      -9.4      2.420      4.996
REMARK  6 active torsions:
REMARK  status: ('A' for Active; 'I' for Inactive)
REMARK    1  A    between atoms: C_3  and  C_4 
REMARK       I    between atoms: C_4  and  N_5 
REMARK    2  A    between atoms: N_5  and  C_6 
REMARK    3  A    between atoms: C_14  and  N_15 
REMARK       I    between atoms: N_15  and  C_16 
REMARK    4  A    between atoms: C_16  and  C_17 
REMARK    5  A    between atoms: C_17  and  S_18 
REMARK    6  A    between atoms: S_18  and  C_19 
ROOT
HETATM    1  C   UNL     1     -11.246   1.749 -34.024  1.00  0.00     0.001 A 
HETATM    2  C   UNL     1     -10.101   1.084 -34.459  1.00  0.00     0.019 A 
HETATM    3  C   UNL     1      -8.858   1.324 -33.843  1.00  0.00     0.059 A 
HETATM    4  C   UNL     1      -8.752   2.284 -32.810  1.00  0.00     0.050 A 
HETATM    5  C   UNL     1      -9.919   2.928 -32.381  1.00  0.00     0.030 A 
HETATM    6  C   UNL     1     -11.155   2.659 -32.977  1.00  0.00     0.002 A 
ENDROOT
BRANCH   4   7
HETATM    7  N   UNL     1      -7.480   2.598 -32.267  1.00  0.00    -0.326 N 
HETATM    8  C   UNL     1      -6.758   1.904 -31.320  1.00  0.00     0.231 C 
HETATM    9  O   UNL     1      -7.076   0.803 -30.863  1.00  0.00    -0.272 OA
HETATM   10  H   UNL     1      -7.064   3.466 -32.614  1.00  0.00     0.169 HD
BRANCH   8  11
HETATM   11  C   UNL     1      -5.507   2.587 -30.781  1.00  0.00     0.185 C 
BRANCH  11  12
HETATM   12  S   UNL     1      -3.937   1.874 -31.346  1.00  0.00    -0.083 SA
BRANCH  12  13
HETATM   13  C   UNL     1      -3.131   3.286 -31.918  1.00  0.00     0.168 A 
HETATM   14  N   UNL     1      -2.039   3.821 -31.433  1.00  0.00    -0.223 NA
HETATM   15  C   UNL     1      -1.848   4.956 -32.183  1.00  0.00     0.086 A 
HETATM   16  C   UNL     1      -2.838   5.088 -33.155  1.00  0.00     0.063 A 
HETATM   17  C   UNL     1      -0.845   5.932 -32.094  1.00  0.00     0.034 A 
HETATM   18  N   UNL     1      -3.652   4.004 -32.951  1.00  0.00    -0.333 N 
HETATM   19  C   UNL     1      -2.883   6.145 -34.067  1.00  0.00     0.032 A 
HETATM   20  H   UNL     1      -4.497   3.777 -33.453  1.00  0.00     0.168 HD
HETATM   21  C   UNL     1      -1.870   7.106 -33.963  1.00  0.00     0.002 A 
HETATM   22  C   UNL     1      -0.868   7.006 -32.992  1.00  0.00     0.002 A 
ENDBRANCH  12  13
ENDBRANCH  11  12
ENDBRANCH   8  11
ENDBRANCH   4   7
BRANCH   3  23
HETATM   23  C   UNL     1      -7.666   0.531 -34.283  1.00  0.00     0.258 C 
HETATM   24  N   UNL     1      -7.513  -0.694 -33.654  1.00  0.00    -0.323 N 
HETATM   25  H   UNL     1      -8.125  -0.888 -32.872  1.00  0.00     0.169 HD
HETATM   26  O   UNL     1      -6.893   1.022 -35.095  1.00  0.00    -0.267 OA
BRANCH  24  27
HETATM   27  C   UNL     1      -6.525  -1.668 -33.910  1.00  0.00     0.035 A 
HETATM   28  C   UNL     1      -6.744  -2.823 -34.668  1.00  0.00     0.032 A 
HETATM   29  C   UNL     1      -5.711  -3.742 -34.871  1.00  0.00     0.044 A 
HETATM   30  C   UNL     1      -4.462  -3.509 -34.313  1.00  0.00     0.116 A 
HETATM   31  F   UNL     1      -3.474  -4.391 -34.509  1.00  0.00    -0.206 F 
HETATM   32  C   UNL     1      -4.225  -2.374 -33.550  1.00  0.00     0.044 A 
HETATM   33  C   UNL     1      -5.258  -1.454 -33.347  1.00  0.00     0.032 A 
ENDBRANCH  24  27
ENDBRANCH   3  23
TORSDOF 6
ENDMDL
MODEL 3
REMARK VINA RESULT:      -9.3      2.648      5.362
REMARK  6 active torsions:
REMARK  status: ('A' for Active; 'I' for Inactive)
REMARK    1  A    between atoms: C_3  and  C_4 
REMARK       I    between atoms: C_4  and  N_5 
REMARK    2  A    between atoms: N_5  and  C_6 
REMARK    3  A    between atoms: C_14  and  N_15 
REMARK       I    between atoms: N_15  and  C_16 
REMARK    4  A    between atoms: C_16  and  C_17 
REMARK    5  A    between atoms: C_17  and  S_18 
REMARK    6  A    between atoms: S_18  and  C_19 
ROOT
HETATM    1  C   UNL     1      -4.238  -3.531 -34.152  1.00  0.00     0.001 A 
HETATM    2  C   UNL     1      -4.251  -2.312 -33.478  1.00  0.00     0.019 A 
HETATM    3  C   UNL     1      -5.426  -1.537 -33.424  1.00  0.00     0.059 A 
HETATM    4  C   UNL     1      -6.590  -1.967 -34.101  1.00  0.00     0.050 A 
HETATM    5  C   UNL     1      -6.556  -3.203 -34.760  1.00  0.00     0.030 A 
HETATM    6  C   UNL     1      -5.394  -3.980 -34.780  1.00  0.00     0.002 A 
ENDROOT
BRANCH   4   7
HETATM    7  N   UNL     1      -7.736  -1.133 -34.132  1.00  0.00    -0.326 N 
HETATM    8  C   UNL     1      -7.914   0.054 -34.810  1.00  0.00     0.231 C 
HETATM    9  O   UNL     1      -7.108   0.532 -35.611  1.00  0.00    -0.272 OA
HETATM   10  H   UNL     1      -8.518  -1.452 -33.554  1.00  0.00     0.169 HD
BRANCH   8  11
HETATM   11  C   UNL     1      -9.186   0.833 -34.496  1.00  0.00     0.185 C 
BRANCH  11  12
HETATM   12  S   UNL     1      -9.950   0.447 -32.897  1.00  0.00    -0.083 SA
BRANCH  12  13
HETATM   13  C   UNL     1      -9.349   1.743 -31.933  1.00  0.00     0.168 A 
HETATM   14  N   UNL     1      -9.765   2.984 -31.933  1.00  0.00    -0.223 NA
HETATM   15  C   UNL     1      -8.928   3.629 -31.054  1.00  0.00     0.086 A 
HETATM   16  C   UNL     1      -8.005   2.745 -30.499  1.00  0.00     0.063 A 
HETATM   17  C   UNL     1      -8.893   4.978 -30.676  1.00  0.00     0.034 A 
HETATM   18  N   UNL     1      -8.297   1.543 -31.091  1.00  0.00    -0.333 N 
HETATM   19  C   UNL     1      -7.042   3.127 -29.564  1.00  0.00     0.032 A 
HETATM   20  H   UNL     1      -7.816   0.667 -30.956  1.00  0.00     0.168 HD
HETATM   21  C   UNL     1      -7.027   4.478 -29.196  1.00  0.00     0.002 A 
HETATM   22  C   UNL     1      -7.934   5.391 -29.743  1.00  0.00     0.002 A 
ENDBRANCH  12  13
ENDBRANCH  11  12
ENDBRANCH   8  11
ENDBRANCH   4   7
BRANCH   3  23
HETATM   23  C   UNL     1      -5.424  -0.274 -32.621  1.00  0.00     0.258 C 
HETATM   24  N   UNL     1      -4.814   0.809 -33.233  1.00  0.00    -0.323 N 
HETATM   25  H   UNL     1      -4.311   0.626 -34.093  1.00  0.00     0.169 HD
HETATM   26  O   UNL     1      -5.888  -0.288 -31.487  1.00  0.00    -0.267 OA
BRANCH  24  27
HETATM   27  C   UNL     1      -4.718   2.127 -32.741  1.00  0.00     0.035 A 
HETATM   28  C   UNL     1      -5.573   3.167 -33.122  1.00  0.00     0.032 A 
HETATM   29  C   UNL     1      -5.408   4.449 -32.589  1.00  0.00     0.044 A 
HETATM   30  C   UNL     1      -4.387   4.692 -31.681  1.00  0.00     0.116 A 
HETATM   31  F   UNL     1      -4.230   5.921 -31.173  1.00  0.00    -0.206 F 
HETATM   32  C   UNL     1      -3.522   3.676 -31.297  1.00  0.00     0.044 A 
HETATM   33  C   UNL     1      -3.686   2.394 -31.828  1.00  0.00     0.032 A 
ENDBRANCH  24  27
ENDBRANCH   3  23
TORSDOF 6
ENDMDL
MODEL 4
REMARK VINA RESULT:      -9.2      2.686      5.223
REMARK  6 active torsions:
REMARK  status: ('A' for Active; 'I' for Inactive)
REMARK    1  A    between atoms: C_3  and  C_4 
REMARK       I    between atoms: C_4  and  N_5 
REMARK    2  A    between atoms: N_5  and  C_6 
REMARK    3  A    between atoms: C_14  and  N_15 
REMARK       I    between atoms: N_15  and  C_16 
REMARK    4  A    between atoms: C_16  and  C_17 
REMARK    5  A    between atoms: C_17  and  S_18 
REMARK    6  A    between atoms: S_18  and  C_19 
ROOT
HETATM    1  C   UNL     1     -11.124   1.846 -33.631  1.00  0.00     0.001 A 
HETATM    2  C   UNL     1     -10.095   1.056 -34.139  1.00  0.00     0.019 A 
HETATM    3  C   UNL     1      -8.756   1.486 -34.055  1.00  0.00     0.059 A 
HETATM    4  C   UNL     1      -8.451   2.750 -33.502  1.00  0.00     0.050 A 
HETATM    5  C   UNL     1      -9.502   3.519 -32.985  1.00  0.00     0.030 A 
HETATM    6  C   UNL     1     -10.824   3.069 -33.043  1.00  0.00     0.002 A 
ENDROOT
BRANCH   4   7
HETATM    7  N   UNL     1      -7.114   3.222 -33.517  1.00  0.00    -0.326 N 
HETATM    8  C   UNL     1      -6.159   3.123 -32.528  1.00  0.00     0.231 C 
HETATM    9  O   UNL     1      -6.298   2.487 -31.480  1.00  0.00    -0.272 OA
HETATM   10  H   UNL     1      -6.841   3.719 -34.369  1.00  0.00     0.169 HD
BRANCH   8  11
HETATM   11  C   UNL     1      -4.867   3.900 -32.749  1.00  0.00     0.185 C 
BRANCH  11  12
HETATM   12  S   UNL     1      -3.348   3.009 -32.311  1.00  0.00    -0.083 SA
BRANCH  12  13
HETATM   13  C   UNL     1      -2.411   4.285 -31.633  1.00  0.00     0.168 A 
HETATM   14  N   UNL     1      -1.117   4.455 -31.737  1.00  0.00    -0.223 NA
HETATM   15  C   UNL     1      -0.851   5.563 -30.969  1.00  0.00     0.086 A 
HETATM   16  C   UNL     1      -2.019   6.081 -30.413  1.00  0.00     0.063 A 
HETATM   17  C   UNL     1       0.372   6.193 -30.697  1.00  0.00     0.034 A 
HETATM   18  N   UNL     1      -3.002   5.231 -30.851  1.00  0.00    -0.333 N 
HETATM   19  C   UNL     1      -2.044   7.214 -29.598  1.00  0.00     0.032 A 
HETATM   20  H   UNL     1      -3.984   5.273 -30.626  1.00  0.00     0.168 HD
HETATM   21  C   UNL     1      -0.813   7.830 -29.342  1.00  0.00     0.002 A 
HETATM   22  C   UNL     1       0.377   7.329 -29.878  1.00  0.00     0.002 A 
ENDBRANCH  12  13
ENDBRANCH  11  12
ENDBRANCH   8  11
ENDBRANCH   4   7
BRANCH   3  23
HETATM   23  C   UNL     1      -7.671   0.573 -34.538  1.00  0.00     0.258 C 
HETATM   24  N   UNL     1      -7.343  -0.457 -33.672  1.00  0.00    -0.323 N 
HETATM   25  H   UNL     1      -7.757  -0.429 -32.748  1.00  0.00     0.169 HD
HETATM   26  O   UNL     1      -7.116   0.821 -35.601  1.00  0.00    -0.267 OA
BRANCH  24  27
HETATM   27  C   UNL     1      -6.409  -1.491 -33.889  1.00  0.00     0.035 A 
HETATM   28  C   UNL     1      -6.694  -2.664 -34.596  1.00  0.00     0.032 A 
HETATM   29  C   UNL     1      -5.712  -3.645 -34.764  1.00  0.00     0.044 A 
HETATM   30  C   UNL     1      -4.449  -3.455 -34.221  1.00  0.00     0.116 A 
HETATM   31  F   UNL     1      -3.510  -4.396 -34.383  1.00  0.00    -0.206 F 
HETATM   32  C   UNL     1      -4.148  -2.302 -33.508  1.00  0.00     0.044 A 
HETATM   33  C   UNL     1      -5.130  -1.322 -33.340  1.00  0.00     0.032 A 
ENDBRANCH  24  27
ENDBRANCH   3  23
TORSDOF 6
ENDMDL
MODEL 5
REMARK VINA RESULT:      -9.1      4.166      9.560
REMARK  6 active torsions:
REMARK  status: ('A' for Active; 'I' for Inactive)
REMARK    1  A    between atoms: C_3  and  C_4 
REMARK       I    between atoms: C_4  and  N_5 
REMARK    2  A    between atoms: N_5  and  C_6 
REMARK    3  A    between atoms: C_14  and  N_15 
REMARK       I    between atoms: N_15  and  C_16 
REMARK    4  A    between atoms: C_16  and  C_17 
REMARK    5  A    between atoms: C_17  and  S_18 
REMARK    6  A    between atoms: S_18  and  C_19 
ROOT
HETATM    1  C   UNL     1      -1.101   6.257 -34.337  1.00  0.00     0.001 A 
HETATM    2  C   UNL     1      -1.054   6.661 -33.004  1.00  0.00     0.019 A 
HETATM    3  C   UNL     1      -1.726   5.922 -32.010  1.00  0.00     0.059 A 
HETATM    4  C   UNL     1      -2.499   4.794 -32.366  1.00  0.00     0.050 A 
HETATM    5  C   UNL     1      -2.518   4.401 -33.711  1.00  0.00     0.030 A 
HETATM    6  C   UNL     1      -1.821   5.121 -34.685  1.00  0.00     0.002 A 
ENDROOT
BRANCH   4   7
HETATM    7  N   UNL     1      -3.258   4.119 -31.377  1.00  0.00    -0.326 N 
HETATM    8  C   UNL     1      -4.629   4.030 -31.260  1.00  0.00     0.231 C 
HETATM    9  O   UNL     1      -5.432   4.453 -32.095  1.00  0.00    -0.272 OA
HETATM   10  H   UNL     1      -2.706   3.660 -30.648  1.00  0.00     0.169 HD
BRANCH   8  11
HETATM   11  C   UNL     1      -5.164   3.402 -29.979  1.00  0.00     0.185 C 
BRANCH  11  12
HETATM   12  S   UNL     1      -6.820   2.673 -30.113  1.00  0.00    -0.083 SA
BRANCH  12  13
HETATM   13  C   UNL     1      -6.505   1.355 -31.178  1.00  0.00     0.168 A 
HETATM   14  N   UNL     1      -5.428   0.612 -31.215  1.00  0.00    -0.223 NA
HETATM   15  C   UNL     1      -5.634  -0.242 -32.273  1.00  0.00     0.086 A 
HETATM   16  C   UNL     1      -6.875  -0.017 -32.865  1.00  0.00     0.063 A 
HETATM   17  C   UNL     1      -4.802  -1.244 -32.791  1.00  0.00     0.034 A 
HETATM   18  N   UNL     1      -7.405   1.022 -32.144  1.00  0.00    -0.333 N 
HETATM   19  C   UNL     1      -7.350  -0.750 -33.954  1.00  0.00     0.032 A 
HETATM   20  H   UNL     1      -8.289   1.480 -32.302  1.00  0.00     0.168 HD
HETATM   21  C   UNL     1      -6.505  -1.749 -34.454  1.00  0.00     0.002 A 
HETATM   22  C   UNL     1      -5.251  -1.992 -33.887  1.00  0.00     0.002 A 
ENDBRANCH  12  13
ENDBRANCH  11  12
ENDBRANCH   8  11
ENDBRANCH   4   7
BRANCH   3  23
HETATM   23  C   UNL     1      -1.585   6.339 -30.579  1.00  0.00     0.258 C 
HETATM   24  N   UNL     1      -0.283   6.399 -30.110  1.00  0.00    -0.323 N 
HETATM   25  H   UNL     1       0.440   6.033 -30.718  1.00  0.00     0.169 HD
HETATM   26  O   UNL     1      -2.595   6.534 -29.914  1.00  0.00    -0.267 OA
BRANCH  24  27
HETATM   27  C   UNL     1       0.148   6.814 -28.833  1.00  0.00     0.035 A 
HETATM   28  C   UNL     1      -0.220   6.181 -27.641  1.00  0.00     0.032 A 
HETATM   29  C   UNL     1       0.248   6.658 -26.413  1.00  0.00     0.044 A 
HETATM   30  C   UNL     1       1.077   7.771 -26.377  1.00  0.00     0.116 A 
HETATM   31  F   UNL     1       1.523   8.227 -25.200  1.00  0.00    -0.206 F 
HETATM   32  C   UNL     1       1.446   8.420 -27.548  1.00  0.00     0.044 A 
HETATM   33  C   UNL     1       0.979   7.943 -28.776  1.00  0.00     0.032 A 
ENDBRANCH  24  27
ENDBRANCH   3  23
TORSDOF 6
ENDMDL
MODEL 6
REMARK VINA RESULT:      -8.8      2.950      5.709
REMARK  6 active torsions:
REMARK  status: ('A' for Active; 'I' for Inactive)
REMARK    1  A    between atoms: C_3  and  C_4 
REMARK       I    between atoms: C_4  and  N_5 
REMARK    2  A    between atoms: N_5  and  C_6 
REMARK    3  A    between atoms: C_14  and  N_15 
REMARK       I    between atoms: N_15  and  C_16 
REMARK    4  A    between atoms: C_16  and  C_17 
REMARK    5  A    between atoms: C_17  and  S_18 
REMARK    6  A    between atoms: S_18  and  C_19 
ROOT
HETATM    1  C   UNL     1      -9.617   3.664 -30.469  1.00  0.00     0.001 A 
HETATM    2  C   UNL     1      -8.998   2.476 -30.854  1.00  0.00     0.019 A 
HETATM    3  C   UNL     1      -7.597   2.409 -30.981  1.00  0.00     0.059 A 
HETATM    4  C   UNL     1      -6.810   3.564 -30.772  1.00  0.00     0.050 A 
HETATM    5  C   UNL     1      -7.454   4.743 -30.372  1.00  0.00     0.030 A 
HETATM    6  C   UNL     1      -8.842   4.790 -30.216  1.00  0.00     0.002 A 
ENDROOT
BRANCH   4   7
HETATM    7  N   UNL     1      -5.412   3.516 -31.005  1.00  0.00    -0.326 N 
HETATM    8  C   UNL     1      -4.746   3.431 -32.209  1.00  0.00     0.231 C 
HETATM    9  O   UNL     1      -5.287   3.496 -33.315  1.00  0.00    -0.272 OA
HETATM   10  H   UNL     1      -4.833   3.524 -30.161  1.00  0.00     0.169 HD
BRANCH   8  11
HETATM   11  C   UNL     1      -3.242   3.196 -32.141  1.00  0.00     0.185 C 
BRANCH  11  12
HETATM   12  S   UNL     1      -2.231   4.422 -33.015  1.00  0.00    -0.083 SA
BRANCH  12  13
HETATM   13  C   UNL     1      -1.407   5.160 -31.694  1.00  0.00     0.168 A 
HETATM   14  N   UNL     1      -0.537   4.597 -30.894  1.00  0.00    -0.223 NA
HETATM   15  C   UNL     1      -0.232   5.572 -29.974  1.00  0.00     0.086 A 
HETATM   16  C   UNL     1      -0.919   6.753 -30.248  1.00  0.00     0.063 A 
HETATM   17  C   UNL     1       0.629   5.524 -28.870  1.00  0.00     0.034 A 
HETATM   18  N   UNL     1      -1.673   6.452 -31.353  1.00  0.00    -0.333 N 
HETATM   19  C   UNL     1      -0.789   7.913 -29.482  1.00  0.00     0.032 A 
HETATM   20  H   UNL     1      -2.325   7.058 -31.826  1.00  0.00     0.168 HD
HETATM   21  C   UNL     1       0.079   7.845 -28.385  1.00  0.00     0.002 A 
HETATM   22  C   UNL     1       0.776   6.672 -28.080  1.00  0.00     0.002 A 
ENDBRANCH  12  13
ENDBRANCH  11  12
ENDBRANCH   8  11
ENDBRANCH   4   7
BRANCH   3  23
HETATM   23  C   UNL     1      -6.963   1.094 -31.316  1.00  0.00     0.258 C 
HETATM   24  N   UNL     1      -6.995   0.753 -32.658  1.00  0.00    -0.323 N 
HETATM   25  H   UNL     1      -7.552   1.340 -33.267  1.00  0.00     0.169 HD
HETATM   26  O   UNL     1      -6.526   0.397 -30.409  1.00  0.00    -0.267 OA
BRANCH  24  27
HETATM   27  C   UNL     1      -6.427  -0.388 -33.263  1.00  0.00     0.035 A 
HETATM   28  C   UNL     1      -5.055  -0.661 -33.280  1.00  0.00     0.032 A 
HETATM   29  C   UNL     1      -4.571  -1.813 -33.906  1.00  0.00     0.044 A 
HETATM   30  C   UNL     1      -5.458  -2.688 -34.520  1.00  0.00     0.116 A 
HETATM   31  F   UNL     1      -4.992  -3.791 -35.119  1.00  0.00    -0.206 F 
HETATM   32  C   UNL     1      -6.822  -2.430 -34.522  1.00  0.00     0.044 A 
HETATM   33  C   UNL     1      -7.306  -1.279 -33.896  1.00  0.00     0.032 A 
ENDBRANCH  24  27
ENDBRANCH   3  23
TORSDOF 6
ENDMDL
MODEL 7
REMARK VINA RESULT:      -8.7      3.519      8.661
REMARK  6 active torsions:
REMARK  status: ('A' for Active; 'I' for Inactive)
REMARK    1  A    between atoms: C_3  and  C_4 
REMARK       I    between atoms: C_4  and  N_5 
REMARK    2  A    between atoms: N_5  and  C_6 
REMARK    3  A    between atoms: C_14  and  N_15 
REMARK       I    between atoms: N_15  and  C_16 
REMARK    4  A    between atoms: C_16  and  C_17 
REMARK    5  A    between atoms: C_17  and  S_18 
REMARK    6  A    between atoms: S_18  and  C_19 
ROOT
HETATM    1  C   UNL     1      -2.744   4.124 -31.570  1.00  0.00     0.001 A 
HETATM    2  C   UNL     1      -3.278   2.843 -31.690  1.00  0.00     0.019 A 
HETATM    3  C   UNL     1      -4.670   2.656 -31.797  1.00  0.00     0.059 A 
HETATM    4  C   UNL     1      -5.542   3.766 -31.729  1.00  0.00     0.050 A 
HETATM    5  C   UNL     1      -4.980   5.046 -31.623  1.00  0.00     0.030 A 
HETATM    6  C   UNL     1      -3.595   5.223 -31.550  1.00  0.00     0.002 A 
ENDROOT
BRANCH   4   7
HETATM    7  N   UNL     1      -6.944   3.562 -31.731  1.00  0.00    -0.326 N 
HETATM    8  C   UNL     1      -7.792   3.423 -30.652  1.00  0.00     0.231 C 
HETATM    9  O   UNL     1      -7.457   3.570 -29.474  1.00  0.00    -0.272 OA
HETATM   10  H   UNL     1      -7.369   3.488 -32.659  1.00  0.00     0.169 HD
BRANCH   8  11
HETATM   11  C   UNL     1      -9.227   3.015 -30.961  1.00  0.00     0.185 C 
BRANCH  11  12
HETATM   12  S   UNL     1     -10.190   4.236 -31.897  1.00  0.00    -0.083 SA
BRANCH  12  13
HETATM   13  C   UNL     1     -11.478   3.251 -32.478  1.00  0.00     0.168 A 
HETATM   14  N   UNL     1     -11.417   2.353 -33.429  1.00  0.00    -0.223 NA
HETATM   15  C   UNL     1     -12.709   1.904 -33.563  1.00  0.00     0.086 A 
HETATM   16  C   UNL     1     -13.557   2.532 -32.653  1.00  0.00     0.063 A 
HETATM   17  C   UNL     1     -13.240   0.953 -34.446  1.00  0.00     0.034 A 
HETATM   18  N   UNL     1     -12.736   3.399 -31.978  1.00  0.00    -0.333 N 
HETATM   19  C   UNL     1     -14.922   2.258 -32.560  1.00  0.00     0.032 A 
HETATM   20  H   UNL     1     -13.004   4.049 -31.255  1.00  0.00     0.168 HD
HETATM   21  C   UNL     1     -15.431   1.302 -33.448  1.00  0.00     0.002 A 
HETATM   22  C   UNL     1     -14.608   0.661 -34.378  1.00  0.00     0.002 A 
ENDBRANCH  12  13
ENDBRANCH  11  12
ENDBRANCH   8  11
ENDBRANCH   4   7
BRANCH   3  23
HETATM   23  C   UNL     1      -5.200   1.271 -32.007  1.00  0.00     0.258 C 
HETATM   24  N   UNL     1      -5.109   0.799 -33.306  1.00  0.00    -0.323 N 
HETATM   25  H   UNL     1      -4.825   1.462 -34.016  1.00  0.00     0.169 HD
HETATM   26  O   UNL     1      -5.722   0.686 -31.066  1.00  0.00    -0.267 OA
BRANCH  24  27
HETATM   27  C   UNL     1      -5.472  -0.480 -33.777  1.00  0.00     0.035 A 
HETATM   28  C   UNL     1      -6.758  -0.815 -34.215  1.00  0.00     0.032 A 
HETATM   29  C   UNL     1      -7.038  -2.109 -34.664  1.00  0.00     0.044 A 
HETATM   30  C   UNL     1      -6.034  -3.068 -34.670  1.00  0.00     0.116 A 
HETATM   31  F   UNL     1      -6.305  -4.307 -35.100  1.00  0.00    -0.206 F 
HETATM   32  C   UNL     1      -4.754  -2.759 -34.231  1.00  0.00     0.044 A 
HETATM   33  C   UNL     1      -4.474  -1.465 -33.783  1.00  0.00     0.032 A 
ENDBRANCH  24  27
ENDBRANCH   3  23
TORSDOF 6
ENDMDL
MODEL 8
REMARK VINA RESULT:      -8.6      5.792     10.092
REMARK  6 active torsions:
REMARK  status: ('A' for Active; 'I' for Inactive)
REMARK    1  A    between atoms: C_3  and  C_4 
REMARK       I    between atoms: C_4  and  N_5 
REMARK    2  A    between atoms: N_5  and  C_6 
REMARK    3  A    between atoms: C_14  and  N_15 
REMARK       I    between atoms: N_15  and  C_16 
REMARK    4  A    between atoms: C_16  and  C_17 
REMARK    5  A    between atoms: C_17  and  S_18 
REMARK    6  A    between atoms: S_18  and  C_19 
ROOT
HETATM    1  C   UNL     1       1.838   8.585 -27.154  1.00  0.00     0.001 A 
HETATM    2  C   UNL     1       1.151   8.251 -28.319  1.00  0.00     0.019 A 
HETATM    3  C   UNL     1      -0.251   8.113 -28.309  1.00  0.00     0.059 A 
HETATM    4  C   UNL     1      -0.968   8.261 -27.100  1.00  0.00     0.050 A 
HETATM    5  C   UNL     1      -0.257   8.611 -25.944  1.00  0.00     0.030 A 
HETATM    6  C   UNL     1       1.131   8.778 -25.972  1.00  0.00     0.002 A 
ENDROOT
BRANCH   4   7
HETATM    7  N   UNL     1      -2.364   8.017 -27.074  1.00  0.00    -0.326 N 
HETATM    8  C   UNL     1      -3.036   6.935 -26.545  1.00  0.00     0.231 C 
HETATM    9  O   UNL     1      -2.508   6.033 -25.892  1.00  0.00    -0.272 OA
HETATM   10  H   UNL     1      -2.937   8.732 -27.531  1.00  0.00     0.169 HD
BRANCH   8  11
HETATM   11  C   UNL     1      -4.529   6.849 -26.841  1.00  0.00     0.185 C 
BRANCH  11  12
HETATM   12  S   UNL     1      -5.104   7.895 -28.207  1.00  0.00    -0.083 SA
BRANCH  12  13
HETATM   13  C   UNL     1      -5.083   6.765 -29.508  1.00  0.00     0.168 A 
HETATM   14  N   UNL     1      -5.289   7.019 -30.776  1.00  0.00    -0.223 NA
HETATM   15  C   UNL     1      -5.237   5.789 -31.387  1.00  0.00     0.086 A 
HETATM   16  C   UNL     1      -4.969   4.780 -30.463  1.00  0.00     0.063 A 
HETATM   17  C   UNL     1      -5.409   5.450 -32.736  1.00  0.00     0.034 A 
HETATM   18  N   UNL     1      -4.885   5.440 -29.264  1.00  0.00    -0.333 N 
HETATM   19  C   UNL     1      -4.848   3.434 -30.810  1.00  0.00     0.032 A 
HETATM   20  H   UNL     1      -4.728   5.031 -28.356  1.00  0.00     0.168 HD
HETATM   21  C   UNL     1      -5.019   3.118 -32.164  1.00  0.00     0.002 A 
HETATM   22  C   UNL     1      -5.298   4.106 -33.112  1.00  0.00     0.002 A 
ENDBRANCH  12  13
ENDBRANCH  11  12
ENDBRANCH   8  11
ENDBRANCH   4   7
BRANCH   3  23
HETATM   23  C   UNL     1      -0.961   7.834 -29.597  1.00  0.00     0.258 C 
HETATM   24  N   UNL     1      -0.318   6.943 -30.440  1.00  0.00    -0.323 N 
HETATM   25  H   UNL     1       0.622   6.665 -30.183  1.00  0.00     0.169 HD
HETATM   26  O   UNL     1      -1.997   8.437 -29.847  1.00  0.00    -0.267 OA
BRANCH  24  27
HETATM   27  C   UNL     1      -0.779   6.454 -31.680  1.00  0.00     0.035 A 
HETATM   28  C   UNL     1      -0.766   7.197 -32.865  1.00  0.00     0.032 A 
HETATM   29  C   UNL     1      -1.247   6.640 -34.054  1.00  0.00     0.044 A 
HETATM   30  C   UNL     1      -1.746   5.345 -34.056  1.00  0.00     0.116 A 
HETATM   31  F   UNL     1      -2.207   4.814 -35.195  1.00  0.00    -0.206 F 
HETATM   32  C   UNL     1      -1.777   4.594 -32.888  1.00  0.00     0.044 A 
HETATM   33  C   UNL     1      -1.296   5.150 -31.700  1.00  0.00     0.032 A 
ENDBRANCH  24  27
ENDBRANCH   3  23
TORSDOF 6
ENDMDL
MODEL 9
REMARK VINA RESULT:      -8.5      3.716      7.435
REMARK  6 active torsions:
REMARK  status: ('A' for Active; 'I' for Inactive)
REMARK    1  A    between atoms: C_3  and  C_4 
REMARK       I    between atoms: C_4  and  N_5 
REMARK    2  A    between atoms: N_5  and  C_6 
REMARK    3  A    between atoms: C_14  and  N_15 
REMARK       I    between atoms: N_15  and  C_16 
REMARK    4  A    between atoms: C_16  and  C_17 
REMARK    5  A    between atoms: C_17  and  S_18 
REMARK    6  A    between atoms: S_18  and  C_19 
ROOT
HETATM    1  C   UNL     1      -5.131   3.906 -32.715  1.00  0.00     0.001 A 
HETATM    2  C   UNL     1      -5.065   2.517 -32.633  1.00  0.00     0.019 A 
HETATM    3  C   UNL     1      -6.242   1.744 -32.618  1.00  0.00     0.059 A 
HETATM    4  C   UNL     1      -7.506   2.378 -32.631  1.00  0.00     0.050 A 
HETATM    5  C   UNL     1      -7.546   3.776 -32.729  1.00  0.00     0.030 A 
HETATM    6  C   UNL     1      -6.371   4.531 -32.776  1.00  0.00     0.002 A 
ENDROOT
BRANCH   4   7
HETATM    7  N   UNL     1      -8.685   1.602 -32.509  1.00  0.00    -0.326 N 
HETATM    8  C   UNL     1      -9.321   0.850 -33.474  1.00  0.00     0.231 C 
HETATM    9  O   UNL     1      -8.879   0.645 -34.607  1.00  0.00    -0.272 OA
HETATM   10  H   UNL     1      -9.127   1.628 -31.586  1.00  0.00     0.169 HD
BRANCH   8  11
HETATM   11  C   UNL     1     -10.685   0.279 -33.105  1.00  0.00     0.185 C 
BRANCH  11  12
HETATM   12  S   UNL     1     -12.103   1.139 -33.840  1.00  0.00    -0.083 SA
BRANCH  12  13
HETATM   13  C   UNL     1     -11.561   2.773 -33.768  1.00  0.00     0.168 A 
HETATM   14  N   UNL     1     -11.418   3.509 -32.695  1.00  0.00    -0.223 NA
HETATM   15  C   UNL     1     -11.035   4.741 -33.169  1.00  0.00     0.086 A 
HETATM   16  C   UNL     1     -10.922   4.731 -34.559  1.00  0.00     0.063 A 
HETATM   17  C   UNL     1     -10.761   5.925 -32.471  1.00  0.00     0.034 A 
HETATM   18  N   UNL     1     -11.276   3.454 -34.912  1.00  0.00    -0.333 N 
HETATM   19  C   UNL     1     -10.535   5.844 -35.306  1.00  0.00     0.032 A 
HETATM   20  H   UNL     1     -11.340   3.079 -35.846  1.00  0.00     0.168 HD
HETATM   21  C   UNL     1     -10.263   7.016 -34.589  1.00  0.00     0.002 A 
HETATM   22  C   UNL     1     -10.376   7.060 -33.196  1.00  0.00     0.002 A 
ENDBRANCH  12  13
ENDBRANCH  11  12
ENDBRANCH   8  11
ENDBRANCH   4   7
BRANCH   3  23
HETATM   23  C   UNL     1      -6.129   0.251 -32.612  1.00  0.00     0.258 C 
HETATM   24  N   UNL     1      -5.947  -0.328 -33.857  1.00  0.00    -0.323 N 
HETATM   25  H   UNL     1      -6.041   0.278 -34.663  1.00  0.00     0.169 HD
HETATM   26  O   UNL     1      -6.263  -0.351 -31.554  1.00  0.00    -0.267 OA
BRANCH  24  27
HETATM   27  C   UNL     1      -5.752  -1.695 -34.143  1.00  0.00     0.035 A 
HETATM   28  C   UNL     1      -6.760  -2.548 -34.606  1.00  0.00     0.032 A 
HETATM   29  C   UNL     1      -6.485  -3.894 -34.862  1.00  0.00     0.044 A 
HETATM   30  C   UNL     1      -5.205  -4.389 -34.649  1.00  0.00     0.116 A 
HETATM   31  F   UNL     1      -4.944  -5.679 -34.895  1.00  0.00    -0.206 F 
HETATM   32  C   UNL     1      -4.193  -3.562 -34.182  1.00  0.00     0.044 A 
HETATM   33  C   UNL     1      -4.467  -2.215 -33.926  1.00  0.00     0.032 A 
ENDBRANCH  24  27
ENDBRANCH   3  23
TORSDOF 6
ENDMDL
MODEL 10
REMARK VINA RESULT:      -8.5      3.543      8.635
REMARK  6 active torsions:
REMARK  status: ('A' for Active; 'I' for Inactive)
REMARK    1  A    between atoms: C_3  and  C_4 
REMARK       I    between atoms: C_4  and  N_5 
REMARK    2  A    between atoms: N_5  and  C_6 
REMARK    3  A    between atoms: C_14  and  N_15 
REMARK       I    between atoms: N_15  and  C_16 
REMARK    4  A    between atoms: C_16  and  C_17 
REMARK    5  A    between atoms: C_17  and  S_18 
REMARK    6  A    between atoms: S_18  and  C_19 
ROOT
HETATM    1  C   UNL     1      -2.940   3.179 -31.467  1.00  0.00     0.001 A 
HETATM    2  C   UNL     1      -3.547   2.119 -32.138  1.00  0.00     0.019 A 
HETATM    3  C   UNL     1      -4.878   2.224 -32.584  1.00  0.00     0.059 A 
HETATM    4  C   UNL     1      -5.630   3.389 -32.305  1.00  0.00     0.050 A 
HETATM    5  C   UNL     1      -4.993   4.446 -31.642  1.00  0.00     0.030 A 
HETATM    6  C   UNL     1      -3.660   4.344 -31.232  1.00  0.00     0.002 A 
ENDROOT
BRANCH   4   7
HETATM    7  N   UNL     1      -7.000   3.446 -32.663  1.00  0.00    -0.326 N 
HETATM    8  C   UNL     1      -7.624   4.317 -33.531  1.00  0.00     0.231 C 
HETATM    9  O   UNL     1      -7.039   5.142 -34.237  1.00  0.00    -0.272 OA
HETATM   10  H   UNL     1      -7.598   2.762 -32.193  1.00  0.00     0.169 HD
BRANCH   8  11
HETATM   11  C   UNL     1      -9.147   4.268 -33.567  1.00  0.00     0.185 C 
BRANCH  11  12
HETATM   12  S   UNL     1      -9.945   3.949 -31.970  1.00  0.00    -0.083 SA
BRANCH  12  13
HETATM   13  C   UNL     1     -11.396   3.175 -32.486  1.00  0.00     0.168 A 
HETATM   14  N   UNL     1     -12.619   3.618 -32.343  1.00  0.00    -0.223 NA
HETATM   15  C   UNL     1     -13.411   2.614 -32.848  1.00  0.00     0.086 A 
HETATM   16  C   UNL     1     -12.638   1.557 -33.325  1.00  0.00     0.063 A 
HETATM   17  C   UNL     1     -14.808   2.532 -32.935  1.00  0.00     0.034 A 
HETATM   18  N   UNL     1     -11.349   1.945 -33.068  1.00  0.00    -0.333 N 
HETATM   19  C   UNL     1     -13.182   0.409 -33.903  1.00  0.00     0.032 A 
HETATM   20  H   UNL     1     -10.509   1.418 -33.251  1.00  0.00     0.168 HD
HETATM   21  C   UNL     1     -14.579   0.349 -33.984  1.00  0.00     0.002 A 
HETATM   22  C   UNL     1     -15.381   1.389 -33.506  1.00  0.00     0.002 A 
ENDBRANCH  12  13
ENDBRANCH  11  12
ENDBRANCH   8  11
ENDBRANCH   4   7
BRANCH   3  23
HETATM   23  C   UNL     1      -5.469   1.097 -33.373  1.00  0.00     0.258 C 
HETATM   24  N   UNL     1      -4.862  -0.134 -33.182  1.00  0.00    -0.323 N 
HETATM   25  H   UNL     1      -4.004  -0.143 -32.644  1.00  0.00     0.169 HD
HETATM   26  O   UNL     1      -6.379   1.333 -34.158  1.00  0.00    -0.267 OA
BRANCH  24  27
HETATM   27  C   UNL     1      -5.242  -1.370 -33.744  1.00  0.00     0.035 A 
HETATM   28  C   UNL     1      -4.339  -2.379 -34.095  1.00  0.00     0.032 A 
HETATM   29  C   UNL     1      -4.797  -3.576 -34.652  1.00  0.00     0.044 A 
HETATM   30  C   UNL     1      -6.156  -3.762 -34.863  1.00  0.00     0.116 A 
HETATM   31  F   UNL     1      -6.593  -4.910 -35.397  1.00  0.00    -0.206 F 
HETATM   32  C   UNL     1      -7.069  -2.770 -34.531  1.00  0.00     0.044 A 
HETATM   33  C   UNL     1      -6.611  -1.573 -33.974  1.00  0.00     0.032 A 
ENDBRANCH  24  27
ENDBRANCH   3  23
TORSDOF 6
ENDMDL
