MODEL 1
REMARK VINA RESULT:      -7.7      0.000      0.000
REMARK  4 active torsions:
REMARK  status: ('A' for Active; 'I' for Inactive)
REMARK    1  A    between atoms: C_5  and  N_6 
REMARK    2  A    between atoms: N_10  and  C_11 
REMARK    3  A    between atoms: C_11  and  C_12 
REMARK    4  A    between atoms: C_13  and  O_14 
ROOT
HETATM    1  N   UNL     1     -10.248   1.546 -33.429  1.00  0.00    -0.312 N 
HETATM    2  C   UNL     1      -9.544   2.761 -33.371  1.00  0.00     0.253 C 
HETATM    3  O   UNL     1      -9.925   3.817 -33.884  1.00  0.00    -0.271 OA
HETATM    4  C   UNL     1      -8.286   2.796 -32.492  1.00  0.00     0.375 C 
HETATM    5  N   UNL     1      -7.503   1.544 -32.452  1.00  0.00     0.103 N 
HETATM    6  C   UNL     1      -8.407   0.454 -32.080  1.00  0.00     0.293 C 
HETATM    7  C   UNL     1      -9.595   0.293 -33.031  1.00  0.00     0.162 C 
ENDROOT
BRANCH   5   8
HETATM    8  C   UNL     1      -6.794   1.284 -33.718  1.00  0.00     0.314 C 
BRANCH   8   9
HETATM    9  C   UNL     1      -5.912   0.055 -33.647  1.00  0.00     0.006 A 
HETATM   10  C   UNL     1      -6.196  -1.102 -34.382  1.00  0.00     0.095 A 
HETATM   11  C   UNL     1      -5.347  -2.215 -34.321  1.00  0.00     0.069 A 
HETATM   12 CL   UNL     1      -5.702  -3.631 -35.240  1.00  0.00    -0.081 Cl
HETATM   13  C   UNL     1      -4.206  -2.191 -33.522  1.00  0.00     0.050 A 
HETATM   14  C   UNL     1      -3.921  -1.048 -32.782  1.00  0.00     0.036 A 
HETATM   15 CL   UNL     1      -2.513  -1.003 -31.794  1.00  0.00    -0.084 Cl
HETATM   16  C   UNL     1      -4.761   0.065 -32.837  1.00  0.00     0.035 A 
BRANCH  10  17
HETATM   17  O   UNL     1      -7.316  -1.118 -35.170  1.00  0.00    -0.358 OA
HETATM   18  H   UNL     1      -7.056  -1.457 -36.047  1.00  0.00     0.218 HD
ENDBRANCH  10  17
ENDBRANCH   8   9
ENDBRANCH   5   8
BRANCH   1  19
HETATM   19  C   UNL     1     -11.521   1.508 -34.037  1.00  0.00     0.073 A 
HETATM   20  C   UNL     1     -11.991   2.078 -35.250  1.00  0.00     0.169 A 
HETATM   21  N   UNL     1     -13.289   1.841 -35.472  1.00  0.00    -0.183 NA
HETATM   22  N   UNL     1     -13.659   1.119 -34.405  1.00  0.00    -0.283 N 
HETATM   23  C   UNL     1     -15.028   0.685 -34.269  1.00  0.00     0.179 C 
HETATM   24  C   UNL     1     -12.641   0.884 -33.526  1.00  0.00     0.143 A 
ENDBRANCH   1  19
TORSDOF 4
ENDMDL
MODEL 2
REMARK VINA RESULT:      -7.7      0.984      2.119
REMARK  4 active torsions:
REMARK  status: ('A' for Active; 'I' for Inactive)
REMARK    1  A    between atoms: C_5  and  N_6 
REMARK    2  A    between atoms: N_10  and  C_11 
REMARK    3  A    between atoms: C_11  and  C_12 
REMARK    4  A    between atoms: C_13  and  O_14 
ROOT
HETATM    1  N   UNL     1     -10.239   1.437 -33.576  1.00  0.00    -0.312 N 
HETATM    2  C   UNL     1      -9.454   2.603 -33.616  1.00  0.00     0.253 C 
HETATM    3  O   UNL     1      -9.790   3.656 -34.164  1.00  0.00    -0.271 OA
HETATM    4  C   UNL     1      -8.153   2.594 -32.802  1.00  0.00     0.375 C 
HETATM    5  N   UNL     1      -7.453   1.294 -32.735  1.00  0.00     0.103 N 
HETATM    6  C   UNL     1      -8.407   0.289 -32.263  1.00  0.00     0.293 C 
HETATM    7  C   UNL     1      -9.650   0.163 -33.145  1.00  0.00     0.162 C 
ENDROOT
BRANCH   5   8
HETATM    8  C   UNL     1      -6.830   0.925 -34.019  1.00  0.00     0.314 C 
BRANCH   8   9
HETATM    9  C   UNL     1      -5.960  -0.310 -33.908  1.00  0.00     0.006 A 
HETATM   10  C   UNL     1      -4.814  -0.337 -33.105  1.00  0.00     0.095 A 
HETATM   11  C   UNL     1      -4.043  -1.502 -32.996  1.00  0.00     0.069 A 
HETATM   12 CL   UNL     1      -2.638  -1.525 -31.995  1.00  0.00    -0.081 Cl
HETATM   13  C   UNL     1      -4.401  -2.654 -33.692  1.00  0.00     0.050 A 
HETATM   14  C   UNL     1      -5.535  -2.633 -34.498  1.00  0.00     0.036 A 
HETATM   15 CL   UNL     1      -5.992  -4.051 -35.360  1.00  0.00    -0.084 Cl
HETATM   16  C   UNL     1      -6.309  -1.477 -34.612  1.00  0.00     0.035 A 
BRANCH  10  17
HETATM   17  O   UNL     1      -4.469   0.798 -32.419  1.00  0.00    -0.358 OA
HETATM   18  H   UNL     1      -5.289   1.293 -32.233  1.00  0.00     0.218 HD
ENDBRANCH  10  17
ENDBRANCH   8   9
ENDBRANCH   5   8
BRANCH   1  19
HETATM   19  C   UNL     1     -11.541   1.458 -34.118  1.00  0.00     0.073 A 
HETATM   20  C   UNL     1     -12.059   2.099 -35.275  1.00  0.00     0.169 A 
HETATM   21  N   UNL     1     -13.371   1.901 -35.441  1.00  0.00    -0.183 NA
HETATM   22  N   UNL     1     -13.705   1.133 -34.395  1.00  0.00    -0.283 N 
HETATM   23  C   UNL     1     -15.075   0.721 -34.210  1.00  0.00     0.179 C 
HETATM   24  C   UNL     1     -12.649   0.832 -33.583  1.00  0.00     0.143 A 
ENDBRANCH   1  19
TORSDOF 4
ENDMDL
MODEL 3
REMARK VINA RESULT:      -7.5      3.853      7.505
REMARK  4 active torsions:
REMARK  status: ('A' for Active; 'I' for Inactive)
REMARK    1  A    between atoms: C_5  and  N_6 
REMARK    2  A    between atoms: N_10  and  C_11 
REMARK    3  A    between atoms: C_11  and  C_12 
REMARK    4  A    between atoms: C_13  and  O_14 
ROOT
HETATM    1  N   UNL     1      -5.776  -0.449 -33.795  1.00  0.00    -0.312 N 
HETATM    2  C   UNL     1      -5.582   0.831 -33.248  1.00  0.00     0.253 C 
HETATM    3  O   UNL     1      -4.753   1.101 -32.373  1.00  0.00    -0.271 OA
HETATM    4  C   UNL     1      -6.363   1.988 -33.887  1.00  0.00     0.375 C 
HETATM    5  N   UNL     1      -7.713   1.648 -34.379  1.00  0.00     0.103 N 
HETATM    6  C   UNL     1      -7.593   0.499 -35.279  1.00  0.00     0.293 C 
HETATM    7  C   UNL     1      -6.956  -0.727 -34.622  1.00  0.00     0.162 C 
ENDROOT
BRANCH   5   8
HETATM    8  C   UNL     1      -8.668   1.411 -33.281  1.00  0.00     0.314 C 
BRANCH   8   9
HETATM    9  C   UNL     1     -10.109   1.537 -33.729  1.00  0.00     0.006 A 
HETATM   10  C   UNL     1     -11.064   0.557 -33.431  1.00  0.00     0.095 A 
HETATM   11  C   UNL     1     -12.398   0.713 -33.832  1.00  0.00     0.069 A 
HETATM   12 CL   UNL     1     -13.568  -0.497 -33.449  1.00  0.00    -0.081 Cl
HETATM   13  C   UNL     1     -12.796   1.844 -34.540  1.00  0.00     0.050 A 
HETATM   14  C   UNL     1     -11.851   2.818 -34.847  1.00  0.00     0.036 A 
HETATM   15 CL   UNL     1     -12.331   4.223 -35.717  1.00  0.00    -0.084 Cl
HETATM   16  C   UNL     1     -10.521   2.672 -34.451  1.00  0.00     0.035 A 
BRANCH  10  17
HETATM   17  O   UNL     1     -10.668  -0.551 -32.730  1.00  0.00    -0.358 OA
HETATM   18  H   UNL     1     -10.671  -0.319 -31.783  1.00  0.00     0.218 HD
ENDBRANCH  10  17
ENDBRANCH   8   9
ENDBRANCH   5   8
BRANCH   1  19
HETATM   19  C   UNL     1      -4.932  -1.509 -33.402  1.00  0.00     0.073 A 
HETATM   20  C   UNL     1      -4.035  -1.629 -32.307  1.00  0.00     0.169 A 
HETATM   21  N   UNL     1      -3.382  -2.796 -32.290  1.00  0.00    -0.183 NA
HETATM   22  N   UNL     1      -3.853  -3.431 -33.371  1.00  0.00    -0.283 N 
HETATM   23  C   UNL     1      -3.356  -4.742 -33.711  1.00  0.00     0.179 C 
HETATM   24  C   UNL     1      -4.786  -2.712 -34.062  1.00  0.00     0.143 A 
ENDBRANCH   1  19
TORSDOF 4
ENDMDL
MODEL 4
REMARK VINA RESULT:      -7.4      1.959      2.973
REMARK  4 active torsions:
REMARK  status: ('A' for Active; 'I' for Inactive)
REMARK    1  A    between atoms: C_5  and  N_6 
REMARK    2  A    between atoms: N_10  and  C_11 
REMARK    3  A    between atoms: C_11  and  C_12 
REMARK    4  A    between atoms: C_13  and  O_14 
ROOT
HETATM    1  N   UNL     1     -10.740   2.302 -33.068  1.00  0.00    -0.312 N 
HETATM    2  C   UNL     1      -9.546   2.649 -32.412  1.00  0.00     0.253 C 
HETATM    3  O   UNL     1      -9.190   3.805 -32.167  1.00  0.00    -0.271 OA
HETATM    4  C   UNL     1      -8.704   1.498 -31.844  1.00  0.00     0.375 C 
HETATM    5  N   UNL     1      -8.718   0.250 -32.634  1.00  0.00     0.103 N 
HETATM    6  C   UNL     1     -10.113  -0.139 -32.846  1.00  0.00     0.293 C 
HETATM    7  C   UNL     1     -10.946   0.932 -33.553  1.00  0.00     0.162 C 
ENDROOT
BRANCH   5   8
HETATM    8  C   UNL     1      -7.967   0.376 -33.897  1.00  0.00     0.314 C 
BRANCH   8   9
HETATM    9  C   UNL     1      -6.771  -0.551 -33.956  1.00  0.00     0.006 A 
HETATM   10  C   UNL     1      -5.524  -0.182 -33.439  1.00  0.00     0.095 A 
HETATM   11  C   UNL     1      -4.441  -1.071 -33.481  1.00  0.00     0.069 A 
HETATM   12 CL   UNL     1      -2.911  -0.608 -32.830  1.00  0.00    -0.081 Cl
HETATM   13  C   UNL     1      -4.586  -2.336 -34.043  1.00  0.00     0.050 A 
HETATM   14  C   UNL     1      -5.821  -2.708 -34.566  1.00  0.00     0.036 A 
HETATM   15 CL   UNL     1      -6.015  -4.271 -35.260  1.00  0.00    -0.084 Cl
HETATM   16  C   UNL     1      -6.905  -1.829 -34.529  1.00  0.00     0.035 A 
BRANCH  10  17
HETATM   17  O   UNL     1      -5.388   1.062 -32.883  1.00  0.00    -0.358 OA
HETATM   18  H   UNL     1      -4.946   1.633 -33.539  1.00  0.00     0.218 HD
ENDBRANCH  10  17
ENDBRANCH   8   9
ENDBRANCH   5   8
BRANCH   1  19
HETATM   19  C   UNL     1     -11.660   3.313 -33.417  1.00  0.00     0.073 A 
HETATM   20  C   UNL     1     -12.788   3.826 -32.723  1.00  0.00     0.169 A 
HETATM   21  N   UNL     1     -13.436   4.776 -33.406  1.00  0.00    -0.183 NA
HETATM   22  N   UNL     1     -12.730   4.880 -34.540  1.00  0.00    -0.283 N 
HETATM   23  C   UNL     1     -13.143   5.807 -35.564  1.00  0.00     0.179 C 
HETATM   24  C   UNL     1     -11.656   4.038 -34.591  1.00  0.00     0.143 A 
ENDBRANCH   1  19
TORSDOF 4
ENDMDL
MODEL 5
REMARK VINA RESULT:      -7.4      5.839      8.790
REMARK  4 active torsions:
REMARK  status: ('A' for Active; 'I' for Inactive)
REMARK    1  A    between atoms: C_5  and  N_6 
REMARK    2  A    between atoms: N_10  and  C_11 
REMARK    3  A    between atoms: C_11  and  C_12 
REMARK    4  A    between atoms: C_13  and  O_14 
ROOT
HETATM    1  N   UNL     1      -2.483   5.578 -31.141  1.00  0.00    -0.312 N 
HETATM    2  C   UNL     1      -3.835   5.294 -30.883  1.00  0.00     0.253 C 
HETATM    3  O   UNL     1      -4.489   5.779 -29.955  1.00  0.00    -0.271 OA
HETATM    4  C   UNL     1      -4.573   4.428 -31.913  1.00  0.00     0.375 C 
HETATM    5  N   UNL     1      -3.761   3.377 -32.560  1.00  0.00     0.103 N 
HETATM    6  C   UNL     1      -2.567   4.010 -33.125  1.00  0.00     0.293 C 
HETATM    7  C   UNL     1      -1.722   4.755 -32.090  1.00  0.00     0.162 C 
ENDROOT
BRANCH   5   8
HETATM    8  C   UNL     1      -3.435   2.273 -31.640  1.00  0.00     0.314 C 
BRANCH   8   9
HETATM    9  C   UNL     1      -3.866   0.924 -32.178  1.00  0.00     0.006 A 
HETATM   10  C   UNL     1      -3.241  -0.264 -31.781  1.00  0.00     0.095 A 
HETATM   11  C   UNL     1      -3.678  -1.501 -32.272  1.00  0.00     0.069 A 
HETATM   12 CL   UNL     1      -2.907  -2.960 -31.767  1.00  0.00    -0.081 Cl
HETATM   13  C   UNL     1      -4.742  -1.571 -33.168  1.00  0.00     0.050 A 
HETATM   14  C   UNL     1      -5.364  -0.393 -33.574  1.00  0.00     0.036 A 
HETATM   15 CL   UNL     1      -6.682  -0.465 -34.678  1.00  0.00    -0.084 Cl
HETATM   16  C   UNL     1      -4.934   0.843 -33.090  1.00  0.00     0.035 A 
BRANCH  10  17
HETATM   17  O   UNL     1      -2.199  -0.191 -30.896  1.00  0.00    -0.358 OA
HETATM   18  H   UNL     1      -1.370  -0.245 -31.408  1.00  0.00     0.218 HD
ENDBRANCH  10  17
ENDBRANCH   8   9
ENDBRANCH   5   8
BRANCH   1  19
HETATM   19  C   UNL     1      -1.812   6.540 -30.356  1.00  0.00     0.073 A 
HETATM   20  C   UNL     1      -2.073   7.921 -30.151  1.00  0.00     0.169 A 
HETATM   21  N   UNL     1      -1.181   8.509 -29.347  1.00  0.00    -0.183 NA
HETATM   22  N   UNL     1      -0.343   7.512 -29.031  1.00  0.00    -0.283 N 
HETATM   23  C   UNL     1       0.794   7.767 -28.180  1.00  0.00     0.179 C 
HETATM   24  C   UNL     1      -0.680   6.317 -29.598  1.00  0.00     0.143 A 
ENDBRANCH   1  19
TORSDOF 4
ENDMDL
MODEL 6
REMARK VINA RESULT:      -7.3      4.020      7.491
REMARK  4 active torsions:
REMARK  status: ('A' for Active; 'I' for Inactive)
REMARK    1  A    between atoms: C_5  and  N_6 
REMARK    2  A    between atoms: N_10  and  C_11 
REMARK    3  A    between atoms: C_11  and  C_12 
REMARK    4  A    between atoms: C_13  and  O_14 
ROOT
HETATM    1  N   UNL     1      -6.684  -1.200 -34.054  1.00  0.00    -0.312 N 
HETATM    2  C   UNL     1      -6.556  -0.538 -32.821  1.00  0.00     0.253 C 
HETATM    3  O   UNL     1      -5.988  -1.005 -31.830  1.00  0.00    -0.271 OA
HETATM    4  C   UNL     1      -7.037   0.919 -32.759  1.00  0.00     0.375 C 
HETATM    5  N   UNL     1      -8.217   1.235 -33.590  1.00  0.00     0.103 N 
HETATM    6  C   UNL     1      -7.936   0.803 -34.961  1.00  0.00     0.293 C 
HETATM    7  C   UNL     1      -7.602  -0.685 -35.078  1.00  0.00     0.162 C 
ENDROOT
BRANCH   5   8
HETATM    8  C   UNL     1      -9.456   0.644 -33.054  1.00  0.00     0.314 C 
BRANCH   8   9
HETATM    9  C   UNL     1     -10.701   1.267 -33.649  1.00  0.00     0.006 A 
HETATM   10  C   UNL     1     -11.940   0.616 -33.622  1.00  0.00     0.095 A 
HETATM   11  C   UNL     1     -13.082   1.227 -34.154  1.00  0.00     0.069 A 
HETATM   12 CL   UNL     1     -14.606   0.418 -34.105  1.00  0.00    -0.081 Cl
HETATM   13  C   UNL     1     -13.004   2.495 -34.726  1.00  0.00     0.050 A 
HETATM   14  C   UNL     1     -11.775   3.147 -34.764  1.00  0.00     0.036 A 
HETATM   15 CL   UNL     1     -11.665   4.715 -35.463  1.00  0.00    -0.084 Cl
HETATM   16  C   UNL     1     -10.632   2.544 -34.236  1.00  0.00     0.035 A 
BRANCH  10  17
HETATM   17  O   UNL     1     -12.012  -0.629 -33.055  1.00  0.00    -0.358 OA
HETATM   18  H   UNL     1     -12.275  -1.258 -33.753  1.00  0.00     0.218 HD
ENDBRANCH  10  17
ENDBRANCH   8   9
ENDBRANCH   5   8
BRANCH   1  19
HETATM   19  C   UNL     1      -6.066  -2.455 -34.237  1.00  0.00     0.073 A 
HETATM   20  C   UNL     1      -6.587  -3.691 -34.705  1.00  0.00     0.169 A 
HETATM   21  N   UNL     1      -5.680  -4.674 -34.708  1.00  0.00    -0.183 NA
HETATM   22  N   UNL     1      -4.574  -4.078 -34.242  1.00  0.00    -0.283 N 
HETATM   23  C   UNL     1      -3.361  -4.840 -34.074  1.00  0.00     0.179 C 
HETATM   24  C   UNL     1      -4.748  -2.754 -33.957  1.00  0.00     0.143 A 
ENDBRANCH   1  19
TORSDOF 4
ENDMDL
MODEL 7
REMARK VINA RESULT:      -7.2      1.669      2.124
REMARK  4 active torsions:
REMARK  status: ('A' for Active; 'I' for Inactive)
REMARK    1  A    between atoms: C_5  and  N_6 
REMARK    2  A    between atoms: N_10  and  C_11 
REMARK    3  A    between atoms: C_11  and  C_12 
REMARK    4  A    between atoms: C_13  and  O_14 
ROOT
HETATM    1  N   UNL     1      -8.549   1.978 -32.528  1.00  0.00    -0.312 N 
HETATM    2  C   UNL     1      -7.445   2.846 -32.480  1.00  0.00     0.253 C 
HETATM    3  O   UNL     1      -7.457   4.018 -32.867  1.00  0.00    -0.271 OA
HETATM    4  C   UNL     1      -6.186   2.333 -31.768  1.00  0.00     0.375 C 
HETATM    5  N   UNL     1      -5.918   0.887 -31.913  1.00  0.00     0.103 N 
HETATM    6  C   UNL     1      -7.120   0.159 -31.502  1.00  0.00     0.293 C 
HETATM    7  C   UNL     1      -8.368   0.539 -32.302  1.00  0.00     0.162 C 
ENDROOT
BRANCH   5   8
HETATM    8  C   UNL     1      -5.478   0.531 -33.274  1.00  0.00     0.314 C 
BRANCH   8   9
HETATM    9  C   UNL     1      -5.102  -0.931 -33.398  1.00  0.00     0.006 A 
HETATM   10  C   UNL     1      -5.703  -1.772 -34.342  1.00  0.00     0.095 A 
HETATM   11  C   UNL     1      -5.316  -3.113 -34.455  1.00  0.00     0.069 A 
HETATM   12 CL   UNL     1      -6.057  -4.137 -35.630  1.00  0.00    -0.081 Cl
HETATM   13  C   UNL     1      -4.327  -3.636 -33.626  1.00  0.00     0.050 A 
HETATM   14  C   UNL     1      -3.729  -2.809 -32.680  1.00  0.00     0.036 A 
HETATM   15 CL   UNL     1      -2.502  -3.441 -31.651  1.00  0.00    -0.084 Cl
HETATM   16  C   UNL     1      -4.109  -1.471 -32.560  1.00  0.00     0.035 A 
BRANCH  10  17
HETATM   17  O   UNL     1      -6.672  -1.251 -35.158  1.00  0.00    -0.358 OA
HETATM   18  H   UNL     1      -7.496  -1.191 -34.639  1.00  0.00     0.218 HD
ENDBRANCH  10  17
ENDBRANCH   8   9
ENDBRANCH   5   8
BRANCH   1  19
HETATM   19  C   UNL     1      -9.798   2.465 -32.969  1.00  0.00     0.073 A 
HETATM   20  C   UNL     1     -10.785   3.238 -32.302  1.00  0.00     0.169 A 
HETATM   21  N   UNL     1     -11.862   3.478 -33.059  1.00  0.00    -0.183 NA
HETATM   22  N   UNL     1     -11.574   2.862 -34.214  1.00  0.00    -0.283 N 
HETATM   23  C   UNL     1     -12.528   2.877 -35.296  1.00  0.00     0.179 C 
HETATM   24  C   UNL     1     -10.352   2.253 -34.216  1.00  0.00     0.143 A 
ENDBRANCH   1  19
TORSDOF 4
ENDMDL
MODEL 8
REMARK VINA RESULT:      -7.2      2.599      4.720
REMARK  4 active torsions:
REMARK  status: ('A' for Active; 'I' for Inactive)
REMARK    1  A    between atoms: C_5  and  N_6 
REMARK    2  A    between atoms: N_10  and  C_11 
REMARK    3  A    between atoms: C_11  and  C_12 
REMARK    4  A    between atoms: C_13  and  O_14 
ROOT
HETATM    1  N   UNL     1      -8.428   2.759 -32.287  1.00  0.00    -0.312 N 
HETATM    2  C   UNL     1      -7.954   1.513 -31.843  1.00  0.00     0.253 C 
HETATM    3  O   UNL     1      -7.244   1.347 -30.847  1.00  0.00    -0.271 OA
HETATM    4  C   UNL     1      -8.475   0.268 -32.575  1.00  0.00     0.375 C 
HETATM    5  N   UNL     1      -8.717   0.437 -34.023  1.00  0.00     0.103 N 
HETATM    6  C   UNL     1      -9.595   1.594 -34.205  1.00  0.00     0.293 C 
HETATM    7  C   UNL     1      -9.030   2.889 -33.619  1.00  0.00     0.162 C 
ENDROOT
BRANCH   5   8
HETATM    8  C   UNL     1      -7.464   0.550 -34.792  1.00  0.00     0.314 C 
BRANCH   8   9
HETATM    9  C   UNL     1      -6.506  -0.589 -34.511  1.00  0.00     0.006 A 
HETATM   10  C   UNL     1      -5.364  -0.417 -33.720  1.00  0.00     0.095 A 
HETATM   11  C   UNL     1      -4.510  -1.495 -33.452  1.00  0.00     0.069 A 
HETATM   12 CL   UNL     1      -3.112  -1.272 -32.466  1.00  0.00    -0.081 Cl
HETATM   13  C   UNL     1      -4.780  -2.757 -33.974  1.00  0.00     0.050 A 
HETATM   14  C   UNL     1      -5.909  -2.935 -34.768  1.00  0.00     0.036 A 
HETATM   15 CL   UNL     1      -6.256  -4.491 -35.416  1.00  0.00    -0.084 Cl
HETATM   16  C   UNL     1      -6.765  -1.867 -35.040  1.00  0.00     0.035 A 
BRANCH  10  17
HETATM   17  O   UNL     1      -5.107   0.826 -33.205  1.00  0.00    -0.358 OA
HETATM   18  H   UNL     1      -5.964   1.259 -33.034  1.00  0.00     0.218 HD
ENDBRANCH  10  17
ENDBRANCH   8   9
ENDBRANCH   5   8
BRANCH   1  19
HETATM   19  C   UNL     1      -8.161   3.916 -31.524  1.00  0.00     0.073 A 
HETATM   20  C   UNL     1      -7.056   4.808 -31.539  1.00  0.00     0.169 A 
HETATM   21  N   UNL     1      -7.159   5.785 -30.631  1.00  0.00    -0.183 NA
HETATM   22  N   UNL     1      -8.328   5.527 -30.028  1.00  0.00    -0.283 N 
HETATM   23  C   UNL     1      -8.784   6.369 -28.949  1.00  0.00     0.179 C 
HETATM   24  C   UNL     1      -8.969   4.431 -30.530  1.00  0.00     0.143 A 
ENDBRANCH   1  19
TORSDOF 4
ENDMDL
MODEL 9
REMARK VINA RESULT:      -7.1      1.894      2.926
REMARK  4 active torsions:
REMARK  status: ('A' for Active; 'I' for Inactive)
REMARK    1  A    between atoms: C_5  and  N_6 
REMARK    2  A    between atoms: N_10  and  C_11 
REMARK    3  A    between atoms: C_11  and  C_12 
REMARK    4  A    between atoms: C_13  and  O_14 
ROOT
HETATM    1  N   UNL     1      -8.623   1.876 -32.840  1.00  0.00    -0.312 N 
HETATM    2  C   UNL     1      -7.496   2.711 -32.929  1.00  0.00     0.253 C 
HETATM    3  O   UNL     1      -7.504   3.852 -33.401  1.00  0.00    -0.271 OA
HETATM    4  C   UNL     1      -6.205   2.212 -32.264  1.00  0.00     0.375 C 
HETATM    5  N   UNL     1      -5.986   0.752 -32.318  1.00  0.00     0.103 N 
HETATM    6  C   UNL     1      -7.176   0.094 -31.777  1.00  0.00     0.293 C 
HETATM    7  C   UNL     1      -8.465   0.452 -32.519  1.00  0.00     0.162 C 
ENDROOT
BRANCH   5   8
HETATM    8  C   UNL     1      -5.647   0.284 -33.674  1.00  0.00     0.314 C 
BRANCH   8   9
HETATM    9  C   UNL     1      -5.191  -1.159 -33.693  1.00  0.00     0.006 A 
HETATM   10  C   UNL     1      -4.180  -1.626 -32.845  1.00  0.00     0.095 A 
HETATM   11  C   UNL     1      -3.796  -2.973 -32.862  1.00  0.00     0.069 A 
HETATM   12 CL   UNL     1      -2.556  -3.538 -31.803  1.00  0.00    -0.081 Cl
HETATM   13  C   UNL     1      -4.412  -3.873 -33.728  1.00  0.00     0.050 A 
HETATM   14  C   UNL     1      -5.412  -3.415 -34.581  1.00  0.00     0.036 A 
HETATM   15 CL   UNL     1      -6.184  -4.517 -35.654  1.00  0.00    -0.084 Cl
HETATM   16  C   UNL     1      -5.800  -2.075 -34.570  1.00  0.00     0.035 A 
BRANCH  10  17
HETATM   17  O   UNL     1      -3.581  -0.738 -31.990  1.00  0.00    -0.358 OA
HETATM   18  H   UNL     1      -3.514  -1.167 -31.116  1.00  0.00     0.218 HD
ENDBRANCH  10  17
ENDBRANCH   8   9
ENDBRANCH   5   8
BRANCH   1  19
HETATM   19  C   UNL     1      -9.885   2.368 -33.234  1.00  0.00     0.073 A 
HETATM   20  C   UNL     1     -10.809   3.210 -32.560  1.00  0.00     0.169 A 
HETATM   21  N   UNL     1     -11.926   3.430 -33.262  1.00  0.00    -0.183 NA
HETATM   22  N   UNL     1     -11.728   2.733 -34.389  1.00  0.00    -0.283 N 
HETATM   23  C   UNL     1     -12.748   2.704 -35.408  1.00  0.00     0.179 C 
HETATM   24  C   UNL     1     -10.523   2.091 -34.427  1.00  0.00     0.143 A 
ENDBRANCH   1  19
TORSDOF 4
ENDMDL
MODEL 10
REMARK VINA RESULT:      -7.0     14.657     17.390
REMARK  4 active torsions:
REMARK  status: ('A' for Active; 'I' for Inactive)
REMARK    1  A    between atoms: C_5  and  N_6 
REMARK    2  A    between atoms: N_10  and  C_11 
REMARK    3  A    between atoms: C_11  and  C_12 
REMARK    4  A    between atoms: C_13  and  O_14 
ROOT
HETATM    1  N   UNL     1      -3.294 -13.606 -39.429  1.00  0.00    -0.312 N 
HETATM    2  C   UNL     1      -3.861 -12.490 -38.791  1.00  0.00     0.253 C 
HETATM    3  O   UNL     1      -3.415 -11.967 -37.765  1.00  0.00    -0.271 OA
HETATM    4  C   UNL     1      -5.032 -11.801 -39.504  1.00  0.00     0.375 C 
HETATM    5  N   UNL     1      -5.936 -12.697 -40.255  1.00  0.00     0.103 N 
HETATM    6  C   UNL     1      -5.122 -13.495 -41.174  1.00  0.00     0.293 C 
HETATM    7  C   UNL     1      -4.039 -14.319 -40.475  1.00  0.00     0.162 C 
ENDROOT
BRANCH   5   8
HETATM    8  C   UNL     1      -6.768 -13.528 -39.367  1.00  0.00     0.314 C 
BRANCH   8   9
HETATM    9  C   UNL     1      -8.213 -13.591 -39.818  1.00  0.00     0.006 A 
HETATM   10  C   UNL     1      -8.852 -14.807 -40.083  1.00  0.00     0.095 A 
HETATM   11  C   UNL     1     -10.199 -14.838 -40.470  1.00  0.00     0.069 A 
HETATM   12 CL   UNL     1     -10.979 -16.345 -40.784  1.00  0.00    -0.081 Cl
HETATM   13  C   UNL     1     -10.924 -13.657 -40.603  1.00  0.00     0.050 A 
HETATM   14  C   UNL     1     -10.293 -12.443 -40.348  1.00  0.00     0.036 A 
HETATM   15 CL   UNL     1     -11.179 -10.975 -40.504  1.00  0.00    -0.084 Cl
HETATM   16  C   UNL     1      -8.953 -12.403 -39.962  1.00  0.00     0.035 A 
BRANCH  10  17
HETATM   17  O   UNL     1      -8.136 -15.966 -39.947  1.00  0.00    -0.358 OA
HETATM   18  H   UNL     1      -8.597 -16.662 -40.453  1.00  0.00     0.218 HD
ENDBRANCH  10  17
ENDBRANCH   8   9
ENDBRANCH   5   8
BRANCH   1  19
HETATM   19  C   UNL     1      -2.085 -14.147 -38.941  1.00  0.00     0.073 A 
HETATM   20  C   UNL     1      -1.836 -15.081 -37.900  1.00  0.00     0.169 A 
HETATM   21  N   UNL     1      -0.534 -15.324 -37.715  1.00  0.00    -0.183 NA
HETATM   22  N   UNL     1       0.060 -14.550 -38.633  1.00  0.00    -0.283 N 
HETATM   23  C   UNL     1       1.499 -14.520 -38.729  1.00  0.00     0.179 C 
HETATM   24  C   UNL     1      -0.819 -13.837 -39.396  1.00  0.00     0.143 A 
ENDBRANCH   1  19
TORSDOF 4
ENDMDL
