MODEL 1
REMARK VINA RESULT:      -9.2      0.000      0.000
REMARK  9 active torsions:
REMARK  status: ('A' for Active; 'I' for Inactive)
REMARK    1  A    between atoms: O_2  and  C_3 
REMARK    2  A    between atoms: C_6  and  N_7 
REMARK    3  A    between atoms: N_10  and  C_11 
REMARK    4  A    between atoms: C_11  and  C_12 
REMARK    5  A    between atoms: C_14  and  O_15 
REMARK    6  A    between atoms: C_17  and  O_18 
REMARK    7  A    between atoms: C_22  and  C_23 
REMARK    8  A    between atoms: C_23  and  C_24 
REMARK       I    between atoms: C_24  and  N_25 
REMARK    9  A    between atoms: N_25  and  C_26 
ROOT
HETATM    1  N   UNL     1      -4.798   3.886 -32.263  1.00  0.00    -0.232 N 
HETATM    2  C   UNL     1      -4.913   2.608 -31.758  1.00  0.00     0.333 C 
HETATM    3  O   UNL     1      -4.078   1.937 -31.169  1.00  0.00    -0.246 OA
HETATM    4  N   UNL     1      -6.197   2.144 -32.026  1.00  0.00    -0.315 N 
HETATM    5  C   UNL     1      -7.047   3.173 -32.583  1.00  0.00     0.191 C 
HETATM    6  C   UNL     1      -5.980   4.227 -32.882  1.00  0.00     0.256 C 
HETATM    7  O   UNL     1      -6.208   5.198 -33.600  1.00  0.00    -0.270 OA
ENDROOT
BRANCH   4   8
HETATM    8  C   UNL     1      -6.683   0.842 -31.591  1.00  0.00     0.167 C 
BRANCH   8   9
HETATM    9  C   UNL     1      -6.373  -0.248 -32.592  1.00  0.00    -0.037 A 
HETATM   10  C   UNL     1      -5.208  -1.023 -32.468  1.00  0.00     0.048 A 
HETATM   11  C   UNL     1      -4.922  -2.046 -33.382  1.00  0.00     0.102 A 
HETATM   12  C   UNL     1      -5.809  -2.297 -34.449  1.00  0.00     0.101 A 
HETATM   13  C   UNL     1      -6.958  -1.514 -34.585  1.00  0.00     0.040 A 
HETATM   14  C   UNL     1      -7.233  -0.496 -33.669  1.00  0.00     0.012 A 
BRANCH  11  15
HETATM   15  O   UNL     1      -3.815  -2.855 -33.320  1.00  0.00    -0.353 OA
HETATM   16  C   UNL     1      -3.144  -2.966 -32.073  1.00  0.00     0.210 C 
ENDBRANCH  11  15
BRANCH  12  17
HETATM   17  O   UNL     1      -5.464  -3.322 -35.295  1.00  0.00    -0.353 OA
HETATM   18  C   UNL     1      -6.300  -4.470 -35.316  1.00  0.00     0.210 C 
ENDBRANCH  12  17
ENDBRANCH   8   9
ENDBRANCH   4   8
BRANCH   5  19
HETATM   19  C   UNL     1      -7.816   2.808 -33.843  1.00  0.00     0.138 C 
BRANCH  19  20
HETATM   20  C   UNL     1      -9.295   2.673 -33.527  1.00  0.00     0.224 C 
HETATM   21  N   UNL     1      -9.949   1.783 -34.354  1.00  0.00    -0.327 N 
HETATM   22  H   UNL     1      -9.423   1.437 -35.156  1.00  0.00     0.169 HD
HETATM   23  O   UNL     1      -9.795   3.351 -32.635  1.00  0.00    -0.273 OA
BRANCH  21  24
HETATM   24  C   UNL     1     -11.306   1.408 -34.336  1.00  0.00     0.034 A 
HETATM   25  C   UNL     1     -12.314   2.070 -35.035  1.00  0.00     0.029 A 
HETATM   26  C   UNL     1     -13.637   1.621 -34.957  1.00  0.00     0.002 A 
HETATM   27  C   UNL     1     -13.961   0.514 -34.174  1.00  0.00     0.000 A 
HETATM   28  C   UNL     1     -12.962  -0.148 -33.467  1.00  0.00     0.002 A 
HETATM   29  C   UNL     1     -11.642   0.296 -33.549  1.00  0.00     0.029 A 
ENDBRANCH  21  24
ENDBRANCH  19  20
ENDBRANCH   5  19
BRANCH   1  30
HETATM   30  C   UNL     1      -3.618   4.690 -32.255  1.00  0.00     0.047 A 
HETATM   31  C   UNL     1      -3.417   5.707 -31.311  1.00  0.00     0.033 A 
HETATM   32  C   UNL     1      -2.232   6.459 -31.290  1.00  0.00     0.039 A 
HETATM   33  C   UNL     1      -1.216   6.218 -32.209  1.00  0.00     0.068 A 
HETATM   34  C   UNL     1      -1.411   5.246 -33.180  1.00  0.00     0.039 A 
HETATM   35  C   UNL     1      -2.597   4.496 -33.201  1.00  0.00     0.033 A 
BRANCH  33  36
HETATM   36  O   UNL     1      -0.102   6.996 -32.067  1.00  0.00    -0.356 OA
HETATM   37  C   UNL     1       0.703   6.741 -30.922  1.00  0.00     0.210 C 
ENDBRANCH  33  36
ENDBRANCH   1  30
TORSDOF 9
ENDMDL
MODEL 2
REMARK VINA RESULT:      -8.6      2.181      8.004
REMARK  9 active torsions:
REMARK  status: ('A' for Active; 'I' for Inactive)
REMARK    1  A    between atoms: O_2  and  C_3 
REMARK    2  A    between atoms: C_6  and  N_7 
REMARK    3  A    between atoms: N_10  and  C_11 
REMARK    4  A    between atoms: C_11  and  C_12 
REMARK    5  A    between atoms: C_14  and  O_15 
REMARK    6  A    between atoms: C_17  and  O_18 
REMARK    7  A    between atoms: C_22  and  C_23 
REMARK    8  A    between atoms: C_23  and  C_24 
REMARK       I    between atoms: C_24  and  N_25 
REMARK    9  A    between atoms: N_25  and  C_26 
ROOT
HETATM    1  N   UNL     1      -9.340   2.967 -32.076  1.00  0.00    -0.232 N 
HETATM    2  C   UNL     1      -8.646   4.159 -32.105  1.00  0.00     0.333 C 
HETATM    3  O   UNL     1      -8.898   5.179 -32.729  1.00  0.00    -0.246 OA
HETATM    4  N   UNL     1      -7.540   4.042 -31.269  1.00  0.00    -0.315 N 
HETATM    5  C   UNL     1      -7.546   2.806 -30.518  1.00  0.00     0.191 C 
HETATM    6  C   UNL     1      -8.668   2.081 -31.264  1.00  0.00     0.256 C 
HETATM    7  O   UNL     1      -8.866   0.876 -31.129  1.00  0.00    -0.270 OA
ENDROOT
BRANCH   4   8
HETATM    8  C   UNL     1      -6.607   5.133 -31.022  1.00  0.00     0.167 C 
BRANCH   8   9
HETATM    9  C   UNL     1      -5.331   4.987 -31.820  1.00  0.00    -0.037 A 
HETATM   10  C   UNL     1      -4.130   4.624 -31.189  1.00  0.00     0.048 A 
HETATM   11  C   UNL     1      -2.946   4.471 -31.925  1.00  0.00     0.102 A 
HETATM   12  C   UNL     1      -2.955   4.696 -33.315  1.00  0.00     0.101 A 
HETATM   13  C   UNL     1      -4.145   5.078 -33.941  1.00  0.00     0.040 A 
HETATM   14  C   UNL     1      -5.318   5.228 -33.199  1.00  0.00     0.012 A 
BRANCH  11  15
HETATM   15  O   UNL     1      -1.739   4.104 -31.384  1.00  0.00    -0.353 OA
HETATM   16  C   UNL     1      -0.929   5.123 -30.817  1.00  0.00     0.210 C 
ENDBRANCH  11  15
BRANCH  12  17
HETATM   17  O   UNL     1      -1.760   4.517 -33.966  1.00  0.00    -0.353 OA
HETATM   18  C   UNL     1      -1.368   5.504 -34.909  1.00  0.00     0.210 C 
ENDBRANCH  12  17
ENDBRANCH   8   9
ENDBRANCH   4   8
BRANCH   5  19
HETATM   19  C   UNL     1      -6.263   1.991 -30.543  1.00  0.00     0.138 C 
BRANCH  19  20
HETATM   20  C   UNL     1      -6.103   1.319 -31.896  1.00  0.00     0.224 C 
HETATM   21  N   UNL     1      -6.122  -0.059 -31.823  1.00  0.00    -0.327 N 
HETATM   22  H   UNL     1      -6.091  -0.466 -30.889  1.00  0.00     0.169 HD
HETATM   23  O   UNL     1      -5.938   2.000 -32.903  1.00  0.00    -0.273 OA
BRANCH  21  24
HETATM   24  C   UNL     1      -6.014  -0.991 -32.874  1.00  0.00     0.034 A 
HETATM   25  C   UNL     1      -7.087  -1.429 -33.649  1.00  0.00     0.029 A 
HETATM   26  C   UNL     1      -6.881  -2.357 -34.676  1.00  0.00     0.002 A 
HETATM   27  C   UNL     1      -5.605  -2.858 -34.928  1.00  0.00     0.000 A 
HETATM   28  C   UNL     1      -4.530  -2.432 -34.155  1.00  0.00     0.002 A 
HETATM   29  C   UNL     1      -4.734  -1.501 -33.134  1.00  0.00     0.029 A 
ENDBRANCH  21  24
ENDBRANCH  19  20
ENDBRANCH   5  19
BRANCH   1  30
HETATM   30  C   UNL     1     -10.500   2.651 -32.847  1.00  0.00     0.047 A 
HETATM   31  C   UNL     1     -10.442   1.814 -33.970  1.00  0.00     0.033 A 
HETATM   32  C   UNL     1     -11.598   1.479 -34.690  1.00  0.00     0.039 A 
HETATM   33  C   UNL     1     -12.844   1.970 -34.312  1.00  0.00     0.068 A 
HETATM   34  C   UNL     1     -12.919   2.835 -33.229  1.00  0.00     0.039 A 
HETATM   35  C   UNL     1     -11.762   3.170 -32.510  1.00  0.00     0.033 A 
BRANCH  33  36
HETATM   36  O   UNL     1     -13.896   1.548 -35.075  1.00  0.00    -0.356 OA
HETATM   37  C   UNL     1     -14.913   0.816 -34.399  1.00  0.00     0.210 C 
ENDBRANCH  33  36
ENDBRANCH   1  30
TORSDOF 9
ENDMDL
MODEL 3
REMARK VINA RESULT:      -8.5      3.187     10.905
REMARK  9 active torsions:
REMARK  status: ('A' for Active; 'I' for Inactive)
REMARK    1  A    between atoms: O_2  and  C_3 
REMARK    2  A    between atoms: C_6  and  N_7 
REMARK    3  A    between atoms: N_10  and  C_11 
REMARK    4  A    between atoms: C_11  and  C_12 
REMARK    5  A    between atoms: C_14  and  O_15 
REMARK    6  A    between atoms: C_17  and  O_18 
REMARK    7  A    between atoms: C_22  and  C_23 
REMARK    8  A    between atoms: C_23  and  C_24 
REMARK       I    between atoms: C_24  and  N_25 
REMARK    9  A    between atoms: N_25  and  C_26 
ROOT
HETATM    1  N   UNL     1      -4.611   3.915 -32.016  1.00  0.00    -0.232 N 
HETATM    2  C   UNL     1      -4.711   5.243 -32.373  1.00  0.00     0.333 C 
HETATM    3  O   UNL     1      -5.657   5.835 -32.872  1.00  0.00    -0.246 OA
HETATM    4  N   UNL     1      -3.507   5.871 -32.072  1.00  0.00    -0.315 N 
HETATM    5  C   UNL     1      -2.605   5.007 -31.343  1.00  0.00     0.191 C 
HETATM    6  C   UNL     1      -3.345   3.681 -31.526  1.00  0.00     0.256 C 
HETATM    7  O   UNL     1      -2.816   2.601 -31.278  1.00  0.00    -0.270 OA
ENDROOT
BRANCH   4   8
HETATM    8  C   UNL     1      -3.274   7.294 -32.275  1.00  0.00     0.167 C 
BRANCH   8   9
HETATM    9  C   UNL     1      -3.169   8.050 -30.971  1.00  0.00    -0.037 A 
HETATM   10  C   UNL     1      -3.956   7.684 -29.866  1.00  0.00     0.048 A 
HETATM   11  C   UNL     1      -3.851   8.370 -28.648  1.00  0.00     0.102 A 
HETATM   12  C   UNL     1      -2.954   9.450 -28.529  1.00  0.00     0.101 A 
HETATM   13  C   UNL     1      -2.187   9.829 -29.634  1.00  0.00     0.040 A 
HETATM   14  C   UNL     1      -2.298   9.139 -30.843  1.00  0.00     0.012 A 
BRANCH  11  15
HETATM   15  O   UNL     1      -4.572   8.063 -27.520  1.00  0.00    -0.353 OA
HETATM   16  C   UNL     1      -4.179   6.920 -26.773  1.00  0.00     0.210 C 
ENDBRANCH  11  15
BRANCH  12  17
HETATM   17  O   UNL     1      -2.903  10.064 -27.302  1.00  0.00    -0.353 OA
HETATM   18  C   UNL     1      -1.626  10.252 -26.712  1.00  0.00     0.210 C 
ENDBRANCH  12  17
ENDBRANCH   8   9
ENDBRANCH   4   8
BRANCH   5  19
HETATM   19  C   UNL     1      -1.182   4.911 -31.872  1.00  0.00     0.138 C 
BRANCH  19  20
HETATM   20  C   UNL     1      -0.196   5.265 -30.772  1.00  0.00     0.224 C 
HETATM   21  N   UNL     1      -0.685   6.201 -29.884  1.00  0.00    -0.327 N 
HETATM   22  H   UNL     1      -1.565   6.651 -30.136  1.00  0.00     0.169 HD
HETATM   23  O   UNL     1       0.921   4.756 -30.764  1.00  0.00    -0.273 OA
BRANCH  21  24
HETATM   24  C   UNL     1      -0.052   6.742 -28.749  1.00  0.00     0.034 A 
HETATM   25  C   UNL     1      -0.239   6.277 -27.448  1.00  0.00     0.029 A 
HETATM   26  C   UNL     1       0.437   6.879 -26.381  1.00  0.00     0.002 A 
HETATM   27  C   UNL     1       1.298   7.952 -26.606  1.00  0.00     0.000 A 
HETATM   28  C   UNL     1       1.485   8.427 -27.901  1.00  0.00     0.002 A 
HETATM   29  C   UNL     1       0.814   7.824 -28.966  1.00  0.00     0.029 A 
ENDBRANCH  21  24
ENDBRANCH  19  20
ENDBRANCH   5  19
BRANCH   1  30
HETATM   30  C   UNL     1      -5.606   2.912 -32.221  1.00  0.00     0.047 A 
HETATM   31  C   UNL     1      -5.850   2.352 -33.482  1.00  0.00     0.033 A 
HETATM   32  C   UNL     1      -6.801   1.336 -33.659  1.00  0.00     0.039 A 
HETATM   33  C   UNL     1      -7.537   0.851 -32.582  1.00  0.00     0.068 A 
HETATM   34  C   UNL     1      -7.344   1.421 -31.331  1.00  0.00     0.039 A 
HETATM   35  C   UNL     1      -6.393   2.437 -31.157  1.00  0.00     0.033 A 
BRANCH  33  36
HETATM   36  O   UNL     1      -8.411  -0.157 -32.877  1.00  0.00    -0.356 OA
HETATM   37  C   UNL     1      -9.795   0.161 -32.788  1.00  0.00     0.210 C 
ENDBRANCH  33  36
ENDBRANCH   1  30
TORSDOF 9
ENDMDL
MODEL 4
REMARK VINA RESULT:      -8.4      1.568      7.144
REMARK  9 active torsions:
REMARK  status: ('A' for Active; 'I' for Inactive)
REMARK    1  A    between atoms: O_2  and  C_3 
REMARK    2  A    between atoms: C_6  and  N_7 
REMARK    3  A    between atoms: N_10  and  C_11 
REMARK    4  A    between atoms: C_11  and  C_12 
REMARK    5  A    between atoms: C_14  and  O_15 
REMARK    6  A    between atoms: C_17  and  O_18 
REMARK    7  A    between atoms: C_22  and  C_23 
REMARK    8  A    between atoms: C_23  and  C_24 
REMARK       I    between atoms: C_24  and  N_25 
REMARK    9  A    between atoms: N_25  and  C_26 
ROOT
HETATM    1  N   UNL     1      -5.919   0.608 -33.498  1.00  0.00    -0.232 N 
HETATM    2  C   UNL     1      -5.610   1.127 -32.258  1.00  0.00     0.333 C 
HETATM    3  O   UNL     1      -5.187   0.550 -31.267  1.00  0.00    -0.246 OA
HETATM    4  N   UNL     1      -5.861   2.495 -32.281  1.00  0.00    -0.315 N 
HETATM    5  C   UNL     1      -6.197   2.970 -33.605  1.00  0.00     0.191 C 
HETATM    6  C   UNL     1      -6.399   1.621 -34.297  1.00  0.00     0.256 C 
HETATM    7  O   UNL     1      -6.943   1.529 -35.395  1.00  0.00    -0.270 OA
ENDROOT
BRANCH   4   8
HETATM    8  C   UNL     1      -5.601   3.374 -31.149  1.00  0.00     0.167 C 
BRANCH   8   9
HETATM    9  C   UNL     1      -4.399   4.262 -31.377  1.00  0.00    -0.037 A 
HETATM   10  C   UNL     1      -4.529   5.661 -31.361  1.00  0.00     0.048 A 
HETATM   11  C   UNL     1      -3.417   6.491 -31.555  1.00  0.00     0.102 A 
HETATM   12  C   UNL     1      -2.150   5.918 -31.782  1.00  0.00     0.101 A 
HETATM   13  C   UNL     1      -2.022   4.527 -31.819  1.00  0.00     0.040 A 
HETATM   14  C   UNL     1      -3.137   3.709 -31.624  1.00  0.00     0.012 A 
BRANCH  11  15
HETATM   15  O   UNL     1      -3.460   7.863 -31.538  1.00  0.00    -0.353 OA
HETATM   16  C   UNL     1      -4.647   8.483 -31.064  1.00  0.00     0.210 C 
ENDBRANCH  11  15
BRANCH  12  17
HETATM   17  O   UNL     1      -1.109   6.797 -31.953  1.00  0.00    -0.353 OA
HETATM   18  C   UNL     1       0.107   6.521 -31.273  1.00  0.00     0.210 C 
ENDBRANCH  12  17
ENDBRANCH   8   9
ENDBRANCH   4   8
BRANCH   5  19
HETATM   19  C   UNL     1      -7.445   3.831 -33.720  1.00  0.00     0.138 C 
BRANCH  19  20
HETATM   20  C   UNL     1      -8.659   3.048 -33.251  1.00  0.00     0.224 C 
HETATM   21  N   UNL     1      -9.498   2.679 -34.282  1.00  0.00    -0.327 N 
HETATM   22  H   UNL     1      -9.301   3.085 -35.196  1.00  0.00     0.169 HD
HETATM   23  O   UNL     1      -8.829   2.839 -32.054  1.00  0.00    -0.273 OA
BRANCH  21  24
HETATM   24  C   UNL     1     -10.696   1.941 -34.213  1.00  0.00     0.034 A 
HETATM   25  C   UNL     1     -10.844   0.749 -33.505  1.00  0.00     0.029 A 
HETATM   26  C   UNL     1     -12.076   0.086 -33.492  1.00  0.00     0.002 A 
HETATM   27  C   UNL     1     -13.164   0.607 -34.191  1.00  0.00     0.000 A 
HETATM   28  C   UNL     1     -13.023   1.793 -34.905  1.00  0.00     0.002 A 
HETATM   29  C   UNL     1     -11.795   2.457 -34.914  1.00  0.00     0.029 A 
ENDBRANCH  21  24
ENDBRANCH  19  20
ENDBRANCH   5  19
BRANCH   1  30
HETATM   30  C   UNL     1      -5.864  -0.770 -33.870  1.00  0.00     0.047 A 
HETATM   31  C   UNL     1      -4.651  -1.462 -33.984  1.00  0.00     0.033 A 
HETATM   32  C   UNL     1      -4.617  -2.827 -34.308  1.00  0.00     0.039 A 
HETATM   33  C   UNL     1      -5.793  -3.539 -34.527  1.00  0.00     0.068 A 
HETATM   34  C   UNL     1      -7.004  -2.864 -34.461  1.00  0.00     0.039 A 
HETATM   35  C   UNL     1      -7.035  -1.499 -34.139  1.00  0.00     0.033 A 
BRANCH  33  36
HETATM   36  O   UNL     1      -5.629  -4.867 -34.806  1.00  0.00    -0.356 OA
HETATM   37  C   UNL     1      -4.475  -5.489 -34.253  1.00  0.00     0.210 C 
ENDBRANCH  33  36
ENDBRANCH   1  30
TORSDOF 9
ENDMDL
MODEL 5
REMARK VINA RESULT:      -8.3      2.165      8.089
REMARK  9 active torsions:
REMARK  status: ('A' for Active; 'I' for Inactive)
REMARK    1  A    between atoms: O_2  and  C_3 
REMARK    2  A    between atoms: C_6  and  N_7 
REMARK    3  A    between atoms: N_10  and  C_11 
REMARK    4  A    between atoms: C_11  and  C_12 
REMARK    5  A    between atoms: C_14  and  O_15 
REMARK    6  A    between atoms: C_17  and  O_18 
REMARK    7  A    between atoms: C_22  and  C_23 
REMARK    8  A    between atoms: C_23  and  C_24 
REMARK       I    between atoms: C_24  and  N_25 
REMARK    9  A    between atoms: N_25  and  C_26 
ROOT
HETATM    1  N   UNL     1      -7.165   0.181 -33.077  1.00  0.00    -0.232 N 
HETATM    2  C   UNL     1      -7.850   1.042 -33.910  1.00  0.00     0.333 C 
HETATM    3  O   UNL     1      -7.945   1.019 -35.128  1.00  0.00    -0.246 OA
HETATM    4  N   UNL     1      -8.467   2.012 -33.126  1.00  0.00    -0.315 N 
HETATM    5  C   UNL     1      -8.346   1.735 -31.712  1.00  0.00     0.191 C 
HETATM    6  C   UNL     1      -7.306   0.614 -31.778  1.00  0.00     0.256 C 
HETATM    7  O   UNL     1      -6.704   0.226 -30.780  1.00  0.00    -0.270 OA
ENDROOT
BRANCH   4   8
HETATM    8  C   UNL     1      -9.317   3.060 -33.674  1.00  0.00     0.167 C 
BRANCH   8   9
HETATM    9  C   UNL     1     -10.780   2.680 -33.657  1.00  0.00    -0.037 A 
HETATM   10  C   UNL     1     -11.656   3.247 -32.717  1.00  0.00     0.048 A 
HETATM   11  C   UNL     1     -13.017   2.912 -32.705  1.00  0.00     0.102 A 
HETATM   12  C   UNL     1     -13.514   1.983 -33.640  1.00  0.00     0.101 A 
HETATM   13  C   UNL     1     -12.640   1.401 -34.562  1.00  0.00     0.040 A 
HETATM   14  C   UNL     1     -11.286   1.742 -34.565  1.00  0.00     0.012 A 
BRANCH  11  15
HETATM   15  O   UNL     1     -13.937   3.434 -31.831  1.00  0.00    -0.353 OA
HETATM   16  C   UNL     1     -13.450   4.092 -30.670  1.00  0.00     0.210 C 
ENDBRANCH  11  15
BRANCH  12  17
HETATM   17  O   UNL     1     -14.859   1.713 -33.571  1.00  0.00    -0.353 OA
HETATM   18  C   UNL     1     -15.362   0.655 -34.373  1.00  0.00     0.210 C 
ENDBRANCH  12  17
ENDBRANCH   8   9
ENDBRANCH   4   8
BRANCH   5  19
HETATM   19  C   UNL     1      -7.857   2.877 -30.836  1.00  0.00     0.138 C 
BRANCH  19  20
HETATM   20  C   UNL     1      -6.996   3.825 -31.654  1.00  0.00     0.224 C 
HETATM   21  N   UNL     1      -5.810   3.258 -32.072  1.00  0.00    -0.327 N 
HETATM   22  H   UNL     1      -5.576   2.348 -31.676  1.00  0.00     0.169 HD
HETATM   23  O   UNL     1      -7.369   4.978 -31.848  1.00  0.00    -0.273 OA
BRANCH  21  24
HETATM   24  C   UNL     1      -4.791   3.839 -32.851  1.00  0.00     0.034 A 
HETATM   25  C   UNL     1      -5.010   4.534 -34.040  1.00  0.00     0.029 A 
HETATM   26  C   UNL     1      -3.932   5.080 -34.746  1.00  0.00     0.002 A 
HETATM   27  C   UNL     1      -2.629   4.926 -34.273  1.00  0.00     0.000 A 
HETATM   28  C   UNL     1      -2.401   4.228 -33.092  1.00  0.00     0.002 A 
HETATM   29  C   UNL     1      -3.477   3.688 -32.384  1.00  0.00     0.029 A 
ENDBRANCH  21  24
ENDBRANCH  19  20
ENDBRANCH   5  19
BRANCH   1  30
HETATM   30  C   UNL     1      -6.346  -0.913 -33.490  1.00  0.00     0.047 A 
HETATM   31  C   UNL     1      -4.974  -0.962 -33.213  1.00  0.00     0.033 A 
HETATM   32  C   UNL     1      -4.192  -2.065 -33.587  1.00  0.00     0.039 A 
HETATM   33  C   UNL     1      -4.757  -3.150 -34.250  1.00  0.00     0.068 A 
HETATM   34  C   UNL     1      -6.106  -3.105 -34.573  1.00  0.00     0.039 A 
HETATM   35  C   UNL     1      -6.887  -2.000 -34.199  1.00  0.00     0.033 A 
BRANCH  33  36
HETATM   36  O   UNL     1      -3.898  -4.174 -34.534  1.00  0.00    -0.356 OA
HETATM   37  C   UNL     1      -3.356  -4.871 -33.418  1.00  0.00     0.210 C 
ENDBRANCH  33  36
ENDBRANCH   1  30
TORSDOF 9
ENDMDL
MODEL 6
REMARK VINA RESULT:      -8.3      2.243      5.776
REMARK  9 active torsions:
REMARK  status: ('A' for Active; 'I' for Inactive)
REMARK    1  A    between atoms: O_2  and  C_3 
REMARK    2  A    between atoms: C_6  and  N_7 
REMARK    3  A    between atoms: N_10  and  C_11 
REMARK    4  A    between atoms: C_11  and  C_12 
REMARK    5  A    between atoms: C_14  and  O_15 
REMARK    6  A    between atoms: C_17  and  O_18 
REMARK    7  A    between atoms: C_22  and  C_23 
REMARK    8  A    between atoms: C_23  and  C_24 
REMARK       I    between atoms: C_24  and  N_25 
REMARK    9  A    between atoms: N_25  and  C_26 
ROOT
HETATM    1  N   UNL     1      -3.091   4.479 -32.149  1.00  0.00    -0.232 N 
HETATM    2  C   UNL     1      -4.077   4.884 -33.025  1.00  0.00     0.333 C 
HETATM    3  O   UNL     1      -4.270   5.990 -33.506  1.00  0.00    -0.246 OA
HETATM    4  N   UNL     1      -4.885   3.788 -33.312  1.00  0.00    -0.315 N 
HETATM    5  C   UNL     1      -4.362   2.560 -32.756  1.00  0.00     0.191 C 
HETATM    6  C   UNL     1      -3.284   3.151 -31.845  1.00  0.00     0.256 C 
HETATM    7  O   UNL     1      -2.733   2.484 -30.973  1.00  0.00    -0.270 OA
ENDROOT
BRANCH   4   8
HETATM    8  C   UNL     1      -6.003   3.842 -34.244  1.00  0.00     0.167 C 
BRANCH   8   9
HETATM    9  C   UNL     1      -7.339   3.810 -33.538  1.00  0.00    -0.037 A 
HETATM   10  C   UNL     1      -8.228   2.740 -33.736  1.00  0.00     0.048 A 
HETATM   11  C   UNL     1      -9.462   2.695 -33.072  1.00  0.00     0.102 A 
HETATM   12  C   UNL     1      -9.825   3.743 -32.203  1.00  0.00     0.101 A 
HETATM   13  C   UNL     1      -8.951   4.818 -32.021  1.00  0.00     0.040 A 
HETATM   14  C   UNL     1      -7.725   4.853 -32.687  1.00  0.00     0.012 A 
BRANCH  11  15
HETATM   15  O   UNL     1     -10.375   1.678 -33.200  1.00  0.00    -0.353 OA
HETATM   16  C   UNL     1      -9.958   0.365 -32.854  1.00  0.00     0.210 C 
ENDBRANCH  11  15
BRANCH  12  17
HETATM   17  O   UNL     1     -11.044   3.622 -31.583  1.00  0.00    -0.353 OA
HETATM   18  C   UNL     1     -12.062   4.544 -31.945  1.00  0.00     0.210 C 
ENDBRANCH  12  17
ENDBRANCH   8   9
ENDBRANCH   4   8
BRANCH   5  19
HETATM   19  C   UNL     1      -5.337   1.707 -31.960  1.00  0.00     0.138 C 
BRANCH  19  20
HETATM   20  C   UNL     1      -5.088   0.235 -32.243  1.00  0.00     0.224 C 
HETATM   21  N   UNL     1      -5.801  -0.237 -33.325  1.00  0.00    -0.327 N 
HETATM   22  H   UNL     1      -6.507   0.388 -33.713  1.00  0.00     0.169 HD
HETATM   23  O   UNL     1      -4.344  -0.412 -31.512  1.00  0.00    -0.273 OA
BRANCH  21  24
HETATM   24  C   UNL     1      -5.802  -1.535 -33.872  1.00  0.00     0.034 A 
HETATM   25  C   UNL     1      -6.953  -2.245 -34.210  1.00  0.00     0.029 A 
HETATM   26  C   UNL     1      -6.853  -3.532 -34.751  1.00  0.00     0.002 A 
HETATM   27  C   UNL     1      -5.604  -4.118 -34.950  1.00  0.00     0.000 A 
HETATM   28  C   UNL     1      -4.451  -3.419 -34.610  1.00  0.00     0.002 A 
HETATM   29  C   UNL     1      -4.550  -2.134 -34.074  1.00  0.00     0.029 A 
ENDBRANCH  21  24
ENDBRANCH  19  20
ENDBRANCH   5  19
BRANCH   1  30
HETATM   30  C   UNL     1      -2.098   5.317 -31.557  1.00  0.00     0.047 A 
HETATM   31  C   UNL     1      -2.409   6.249 -30.558  1.00  0.00     0.033 A 
HETATM   32  C   UNL     1      -1.414   7.034 -29.956  1.00  0.00     0.039 A 
HETATM   33  C   UNL     1      -0.081   6.912 -30.334  1.00  0.00     0.068 A 
HETATM   34  C   UNL     1       0.245   6.027 -31.352  1.00  0.00     0.039 A 
HETATM   35  C   UNL     1      -0.751   5.244 -31.954  1.00  0.00     0.033 A 
BRANCH  33  36
HETATM   36  O   UNL     1       0.795   7.710 -29.654  1.00  0.00    -0.356 OA
HETATM   37  C   UNL     1       0.584   7.827 -28.252  1.00  0.00     0.210 C 
ENDBRANCH  33  36
ENDBRANCH   1  30
TORSDOF 9
ENDMDL
MODEL 7
REMARK VINA RESULT:      -8.3      1.839      8.291
REMARK  9 active torsions:
REMARK  status: ('A' for Active; 'I' for Inactive)
REMARK    1  A    between atoms: O_2  and  C_3 
REMARK    2  A    between atoms: C_6  and  N_7 
REMARK    3  A    between atoms: N_10  and  C_11 
REMARK    4  A    between atoms: C_11  and  C_12 
REMARK    5  A    between atoms: C_14  and  O_15 
REMARK    6  A    between atoms: C_17  and  O_18 
REMARK    7  A    between atoms: C_22  and  C_23 
REMARK    8  A    between atoms: C_23  and  C_24 
REMARK       I    between atoms: C_24  and  N_25 
REMARK    9  A    between atoms: N_25  and  C_26 
ROOT
HETATM    1  N   UNL     1      -6.806   2.593 -32.467  1.00  0.00    -0.232 N 
HETATM    2  C   UNL     1      -5.848   3.296 -33.167  1.00  0.00     0.333 C 
HETATM    3  O   UNL     1      -5.974   3.964 -34.182  1.00  0.00    -0.246 OA
HETATM    4  N   UNL     1      -4.626   3.135 -32.520  1.00  0.00    -0.315 N 
HETATM    5  C   UNL     1      -4.760   2.442 -31.258  1.00  0.00     0.191 C 
HETATM    6  C   UNL     1      -6.203   1.956 -31.406  1.00  0.00     0.256 C 
HETATM    7  O   UNL     1      -6.679   1.099 -30.665  1.00  0.00    -0.270 OA
ENDROOT
BRANCH   4   8
HETATM    8  C   UNL     1      -3.398   3.781 -32.961  1.00  0.00     0.167 C 
BRANCH   8   9
HETATM    9  C   UNL     1      -2.883   4.783 -31.952  1.00  0.00    -0.037 A 
HETATM   10  C   UNL     1      -1.520   4.819 -31.611  1.00  0.00     0.048 A 
HETATM   11  C   UNL     1      -1.033   5.755 -30.689  1.00  0.00     0.102 A 
HETATM   12  C   UNL     1      -1.920   6.667 -30.085  1.00  0.00     0.101 A 
HETATM   13  C   UNL     1      -3.279   6.618 -30.407  1.00  0.00     0.040 A 
HETATM   14  C   UNL     1      -3.755   5.681 -31.326  1.00  0.00     0.012 A 
BRANCH  11  15
HETATM   15  O   UNL     1       0.284   5.864 -30.317  1.00  0.00    -0.353 OA
HETATM   16  C   UNL     1       0.857   4.791 -29.583  1.00  0.00     0.210 C 
ENDBRANCH  11  15
BRANCH  12  17
HETATM   17  O   UNL     1      -1.365   7.558 -29.200  1.00  0.00    -0.353 OA
HETATM   18  C   UNL     1      -1.908   7.611 -27.889  1.00  0.00     0.210 C 
ENDBRANCH  12  17
ENDBRANCH   8   9
ENDBRANCH   4   8
BRANCH   5  19
HETATM   19  C   UNL     1      -3.815   1.274 -31.023  1.00  0.00     0.138 C 
BRANCH  19  20
HETATM   20  C   UNL     1      -3.826   0.349 -32.227  1.00  0.00     0.224 C 
HETATM   21  N   UNL     1      -4.858  -0.566 -32.201  1.00  0.00    -0.327 N 
HETATM   22  H   UNL     1      -5.395  -0.621 -31.335  1.00  0.00     0.169 HD
HETATM   23  O   UNL     1      -2.946   0.441 -33.078  1.00  0.00    -0.273 OA
BRANCH  21  24
HETATM   24  C   UNL     1      -5.174  -1.554 -33.152  1.00  0.00     0.034 A 
HETATM   25  C   UNL     1      -4.296  -2.553 -33.569  1.00  0.00     0.029 A 
HETATM   26  C   UNL     1      -4.702  -3.496 -34.521  1.00  0.00     0.002 A 
HETATM   27  C   UNL     1      -5.984  -3.441 -35.066  1.00  0.00     0.000 A 
HETATM   28  C   UNL     1      -6.864  -2.443 -34.660  1.00  0.00     0.002 A 
HETATM   29  C   UNL     1      -6.462  -1.506 -33.707  1.00  0.00     0.029 A 
ENDBRANCH  21  24
ENDBRANCH  19  20
ENDBRANCH   5  19
BRANCH   1  30
HETATM   30  C   UNL     1      -8.178   2.446 -32.835  1.00  0.00     0.047 A 
HETATM   31  C   UNL     1      -8.605   1.464 -33.739  1.00  0.00     0.033 A 
HETATM   32  C   UNL     1      -9.962   1.305 -34.057  1.00  0.00     0.039 A 
HETATM   33  C   UNL     1     -10.931   2.123 -33.484  1.00  0.00     0.068 A 
HETATM   34  C   UNL     1     -10.527   3.132 -32.620  1.00  0.00     0.039 A 
HETATM   35  C   UNL     1      -9.169   3.290 -32.304  1.00  0.00     0.033 A 
BRANCH  33  36
HETATM   36  O   UNL     1     -12.218   1.851 -33.852  1.00  0.00    -0.356 OA
HETATM   37  C   UNL     1     -12.646   0.502 -33.699  1.00  0.00     0.210 C 
ENDBRANCH  33  36
ENDBRANCH   1  30
TORSDOF 9
ENDMDL
MODEL 8
REMARK VINA RESULT:      -8.2      2.267      5.601
REMARK  9 active torsions:
REMARK  status: ('A' for Active; 'I' for Inactive)
REMARK    1  A    between atoms: O_2  and  C_3 
REMARK    2  A    between atoms: C_6  and  N_7 
REMARK    3  A    between atoms: N_10  and  C_11 
REMARK    4  A    between atoms: C_11  and  C_12 
REMARK    5  A    between atoms: C_14  and  O_15 
REMARK    6  A    between atoms: C_17  and  O_18 
REMARK    7  A    between atoms: C_22  and  C_23 
REMARK    8  A    between atoms: C_23  and  C_24 
REMARK       I    between atoms: C_24  and  N_25 
REMARK    9  A    between atoms: N_25  and  C_26 
ROOT
HETATM    1  N   UNL     1      -4.090   4.677 -31.107  1.00  0.00    -0.232 N 
HETATM    2  C   UNL     1      -5.234   4.246 -30.466  1.00  0.00     0.333 C 
HETATM    3  O   UNL     1      -6.031   4.891 -29.801  1.00  0.00    -0.246 OA
HETATM    4  N   UNL     1      -5.373   2.880 -30.691  1.00  0.00    -0.315 N 
HETATM    5  C   UNL     1      -4.402   2.377 -31.636  1.00  0.00     0.191 C 
HETATM    6  C   UNL     1      -3.481   3.597 -31.703  1.00  0.00     0.256 C 
HETATM    7  O   UNL     1      -2.362   3.539 -32.206  1.00  0.00    -0.270 OA
ENDROOT
BRANCH   4   8
HETATM    8  C   UNL     1      -6.501   2.101 -30.198  1.00  0.00     0.167 C 
BRANCH   8   9
HETATM    9  C   UNL     1      -7.553   1.880 -31.261  1.00  0.00    -0.037 A 
HETATM   10  C   UNL     1      -7.946   2.929 -32.108  1.00  0.00     0.048 A 
HETATM   11  C   UNL     1      -8.908   2.728 -33.107  1.00  0.00     0.102 A 
HETATM   12  C   UNL     1      -9.502   1.459 -33.258  1.00  0.00     0.101 A 
HETATM   13  C   UNL     1      -9.128   0.420 -32.403  1.00  0.00     0.040 A 
HETATM   14  C   UNL     1      -8.168   0.631 -31.411  1.00  0.00     0.012 A 
BRANCH  11  15
HETATM   15  O   UNL     1      -9.332   3.697 -33.983  1.00  0.00    -0.353 OA
HETATM   16  C   UNL     1      -8.645   4.940 -33.979  1.00  0.00     0.210 C 
ENDBRANCH  11  15
BRANCH  12  17
HETATM   17  O   UNL     1     -10.428   1.340 -34.265  1.00  0.00    -0.353 OA
HETATM   18  C   UNL     1     -11.781   1.120 -33.893  1.00  0.00     0.210 C 
ENDBRANCH  12  17
ENDBRANCH   8   9
ENDBRANCH   4   8
BRANCH   5  19
HETATM   19  C   UNL     1      -3.630   1.136 -31.219  1.00  0.00     0.138 C 
BRANCH  19  20
HETATM   20  C   UNL     1      -3.647   0.113 -32.342  1.00  0.00     0.224 C 
HETATM   21  N   UNL     1      -4.790  -0.660 -32.355  1.00  0.00    -0.327 N 
HETATM   22  H   UNL     1      -5.410  -0.569 -31.551  1.00  0.00     0.169 HD
HETATM   23  O   UNL     1      -2.685   0.017 -33.098  1.00  0.00    -0.273 OA
BRANCH  21  24
HETATM   24  C   UNL     1      -5.141  -1.684 -33.255  1.00  0.00     0.034 A 
HETATM   25  C   UNL     1      -4.298  -2.733 -33.620  1.00  0.00     0.029 A 
HETATM   26  C   UNL     1      -4.738  -3.708 -34.523  1.00  0.00     0.002 A 
HETATM   27  C   UNL     1      -6.018  -3.637 -35.070  1.00  0.00     0.000 A 
HETATM   28  C   UNL     1      -6.863  -2.590 -34.717  1.00  0.00     0.002 A 
HETATM   29  C   UNL     1      -6.426  -1.619 -33.812  1.00  0.00     0.029 A 
ENDBRANCH  21  24
ENDBRANCH  19  20
ENDBRANCH   5  19
BRANCH   1  30
HETATM   30  C   UNL     1      -3.554   6.000 -31.068  1.00  0.00     0.047 A 
HETATM   31  C   UNL     1      -3.425   6.784 -32.223  1.00  0.00     0.033 A 
HETATM   32  C   UNL     1      -2.936   8.098 -32.161  1.00  0.00     0.039 A 
HETATM   33  C   UNL     1      -2.562   8.666 -30.947  1.00  0.00     0.068 A 
HETATM   34  C   UNL     1      -2.640   7.893 -29.797  1.00  0.00     0.039 A 
HETATM   35  C   UNL     1      -3.128   6.579 -29.860  1.00  0.00     0.033 A 
BRANCH  33  36
HETATM   36  O   UNL     1      -2.130   9.960 -31.015  1.00  0.00    -0.356 OA
HETATM   37  C   UNL     1      -2.628  10.845 -30.018  1.00  0.00     0.210 C 
ENDBRANCH  33  36
ENDBRANCH   1  30
TORSDOF 9
ENDMDL
MODEL 9
REMARK VINA RESULT:      -8.2      2.557      7.428
REMARK  9 active torsions:
REMARK  status: ('A' for Active; 'I' for Inactive)
REMARK    1  A    between atoms: O_2  and  C_3 
REMARK    2  A    between atoms: C_6  and  N_7 
REMARK    3  A    between atoms: N_10  and  C_11 
REMARK    4  A    between atoms: C_11  and  C_12 
REMARK    5  A    between atoms: C_14  and  O_15 
REMARK    6  A    between atoms: C_17  and  O_18 
REMARK    7  A    between atoms: C_22  and  C_23 
REMARK    8  A    between atoms: C_23  and  C_24 
REMARK       I    between atoms: C_24  and  N_25 
REMARK    9  A    between atoms: N_25  and  C_26 
ROOT
HETATM    1  N   UNL     1      -7.824   3.995 -32.595  1.00  0.00    -0.232 N 
HETATM    2  C   UNL     1      -8.199   2.734 -32.181  1.00  0.00     0.333 C 
HETATM    3  O   UNL     1      -9.312   2.230 -32.163  1.00  0.00    -0.246 OA
HETATM    4  N   UNL     1      -7.061   2.056 -31.755  1.00  0.00    -0.315 N 
HETATM    5  C   UNL     1      -5.848   2.796 -32.025  1.00  0.00     0.191 C 
HETATM    6  C   UNL     1      -6.469   4.142 -32.402  1.00  0.00     0.256 C 
HETATM    7  O   UNL     1      -5.799   5.169 -32.476  1.00  0.00    -0.270 OA
ENDROOT
BRANCH   4   8
HETATM    8  C   UNL     1      -7.079   0.675 -31.292  1.00  0.00     0.167 C 
BRANCH   8   9
HETATM    9  C   UNL     1      -6.616  -0.292 -32.358  1.00  0.00    -0.037 A 
HETATM   10  C   UNL     1      -5.332  -0.859 -32.300  1.00  0.00     0.048 A 
HETATM   11  C   UNL     1      -4.902  -1.769 -33.275  1.00  0.00     0.102 A 
HETATM   12  C   UNL     1      -5.762  -2.114 -34.336  1.00  0.00     0.101 A 
HETATM   13  C   UNL     1      -7.032  -1.535 -34.406  1.00  0.00     0.040 A 
HETATM   14  C   UNL     1      -7.451  -0.629 -33.430  1.00  0.00     0.012 A 
BRANCH  11  15
HETATM   15  O   UNL     1      -3.670  -2.377 -33.280  1.00  0.00    -0.353 OA
HETATM   16  C   UNL     1      -3.287  -3.107 -32.124  1.00  0.00     0.210 C 
ENDBRANCH  11  15
BRANCH  12  17
HETATM   17  O   UNL     1      -5.271  -3.019 -35.245  1.00  0.00    -0.353 OA
HETATM   18  C   UNL     1      -5.880  -4.301 -35.294  1.00  0.00     0.210 C 
ENDBRANCH  12  17
ENDBRANCH   8   9
ENDBRANCH   4   8
BRANCH   5  19
HETATM   19  C   UNL     1      -4.877   2.952 -30.866  1.00  0.00     0.138 C 
BRANCH  19  20
HETATM   20  C   UNL     1      -3.523   3.409 -31.381  1.00  0.00     0.224 C 
HETATM   21  N   UNL     1      -3.127   4.626 -30.865  1.00  0.00    -0.327 N 
HETATM   22  H   UNL     1      -3.826   5.141 -30.330  1.00  0.00     0.169 HD
HETATM   23  O   UNL     1      -2.919   2.727 -32.204  1.00  0.00    -0.273 OA
BRANCH  21  24
HETATM   24  C   UNL     1      -1.936   5.333 -31.113  1.00  0.00     0.034 A 
HETATM   25  C   UNL     1      -0.691   4.983 -30.591  1.00  0.00     0.029 A 
HETATM   26  C   UNL     1       0.441   5.748 -30.896  1.00  0.00     0.002 A 
HETATM   27  C   UNL     1       0.334   6.870 -31.716  1.00  0.00     0.000 A 
HETATM   28  C   UNL     1      -0.906   7.230 -32.236  1.00  0.00     0.002 A 
HETATM   29  C   UNL     1      -2.034   6.465 -31.936  1.00  0.00     0.029 A 
ENDBRANCH  21  24
ENDBRANCH  19  20
ENDBRANCH   5  19
BRANCH   1  30
HETATM   30  C   UNL     1      -8.703   5.027 -33.044  1.00  0.00     0.047 A 
HETATM   31  C   UNL     1      -9.181   5.078 -34.360  1.00  0.00     0.033 A 
HETATM   32  C   UNL     1     -10.078   6.075 -34.773  1.00  0.00     0.039 A 
HETATM   33  C   UNL     1     -10.523   7.049 -33.885  1.00  0.00     0.068 A 
HETATM   34  C   UNL     1     -10.029   7.044 -32.587  1.00  0.00     0.039 A 
HETATM   35  C   UNL     1      -9.130   6.048 -32.177  1.00  0.00     0.033 A 
BRANCH  33  36
HETATM   36  O   UNL     1     -11.416   7.946 -34.399  1.00  0.00    -0.356 OA
HETATM   37  C   UNL     1     -11.539   7.971 -35.817  1.00  0.00     0.210 C 
ENDBRANCH  33  36
ENDBRANCH   1  30
TORSDOF 9
ENDMDL
MODEL 10
REMARK VINA RESULT:      -8.1      1.522      6.910
REMARK  9 active torsions:
REMARK  status: ('A' for Active; 'I' for Inactive)
REMARK    1  A    between atoms: O_2  and  C_3 
REMARK    2  A    between atoms: C_6  and  N_7 
REMARK    3  A    between atoms: N_10  and  C_11 
REMARK    4  A    between atoms: C_11  and  C_12 
REMARK    5  A    between atoms: C_14  and  O_15 
REMARK    6  A    between atoms: C_17  and  O_18 
REMARK    7  A    between atoms: C_22  and  C_23 
REMARK    8  A    between atoms: C_23  and  C_24 
REMARK       I    between atoms: C_24  and  N_25 
REMARK    9  A    between atoms: N_25  and  C_26 
ROOT
HETATM    1  N   UNL     1      -6.114   0.868 -33.426  1.00  0.00    -0.232 N 
HETATM    2  C   UNL     1      -5.926   1.432 -32.181  1.00  0.00     0.333 C 
HETATM    3  O   UNL     1      -5.553   0.900 -31.146  1.00  0.00    -0.246 OA
HETATM    4  N   UNL     1      -6.238   2.785 -32.261  1.00  0.00    -0.315 N 
HETATM    5  C   UNL     1      -6.494   3.211 -33.619  1.00  0.00     0.191 C 
HETATM    6  C   UNL     1      -6.579   1.837 -34.287  1.00  0.00     0.256 C 
HETATM    7  O   UNL     1      -7.033   1.692 -35.419  1.00  0.00    -0.270 OA
ENDROOT
BRANCH   4   8
HETATM    8  C   UNL     1      -6.107   3.703 -31.137  1.00  0.00     0.167 C 
BRANCH   8   9
HETATM    9  C   UNL     1      -5.073   4.776 -31.391  1.00  0.00    -0.037 A 
HETATM   10  C   UNL     1      -3.708   4.453 -31.463  1.00  0.00     0.048 A 
HETATM   11  C   UNL     1      -2.746   5.440 -31.715  1.00  0.00     0.102 A 
HETATM   12  C   UNL     1      -3.148   6.779 -31.888  1.00  0.00     0.101 A 
HETATM   13  C   UNL     1      -4.503   7.106 -31.796  1.00  0.00     0.040 A 
HETATM   14  C   UNL     1      -5.454   6.115 -31.544  1.00  0.00     0.012 A 
BRANCH  11  15
HETATM   15  O   UNL     1      -1.397   5.201 -31.815  1.00  0.00    -0.353 OA
HETATM   16  C   UNL     1      -0.646   5.129 -30.612  1.00  0.00     0.210 C 
ENDBRANCH  11  15
BRANCH  12  17
HETATM   17  O   UNL     1      -2.147   7.685 -32.140  1.00  0.00    -0.353 OA
HETATM   18  C   UNL     1      -2.179   8.917 -31.434  1.00  0.00     0.210 C 
ENDBRANCH  12  17
ENDBRANCH   8   9
ENDBRANCH   4   8
BRANCH   5  19
HETATM   19  C   UNL     1      -7.768   4.007 -33.851  1.00  0.00     0.138 C 
BRANCH  19  20
HETATM   20  C   UNL     1      -8.970   3.212 -33.371  1.00  0.00     0.224 C 
HETATM   21  N   UNL     1      -9.753   2.734 -34.402  1.00  0.00    -0.327 N 
HETATM   22  H   UNL     1      -9.534   3.079 -35.336  1.00  0.00     0.169 HD
HETATM   23  O   UNL     1      -9.180   3.084 -32.168  1.00  0.00    -0.273 OA
BRANCH  21  24
HETATM   24  C   UNL     1     -10.923   1.955 -34.322  1.00  0.00     0.034 A 
HETATM   25  C   UNL     1     -12.119   2.264 -34.969  1.00  0.00     0.029 A 
HETATM   26  C   UNL     1     -13.231   1.426 -34.831  1.00  0.00     0.002 A 
HETATM   27  C   UNL     1     -13.157   0.280 -34.041  1.00  0.00     0.000 A 
HETATM   28  C   UNL     1     -11.970  -0.032 -33.387  1.00  0.00     0.002 A 
HETATM   29  C   UNL     1     -10.858   0.801 -33.528  1.00  0.00     0.029 A 
ENDBRANCH  21  24
ENDBRANCH  19  20
ENDBRANCH   5  19
BRANCH   1  30
HETATM   30  C   UNL     1      -5.967  -0.514 -33.754  1.00  0.00     0.047 A 
HETATM   31  C   UNL     1      -7.065  -1.324 -34.073  1.00  0.00     0.033 A 
HETATM   32  C   UNL     1      -6.898  -2.669 -34.435  1.00  0.00     0.039 A 
HETATM   33  C   UNL     1      -5.631  -3.244 -34.489  1.00  0.00     0.068 A 
HETATM   34  C   UNL     1      -4.533  -2.472 -34.135  1.00  0.00     0.039 A 
HETATM   35  C   UNL     1      -4.702  -1.127 -33.772  1.00  0.00     0.033 A 
BRANCH  33  36
HETATM   36  O   UNL     1      -5.599  -4.552 -34.883  1.00  0.00    -0.356 OA
HETATM   37  C   UNL     1      -4.594  -5.364 -34.287  1.00  0.00     0.210 C 
ENDBRANCH  33  36
ENDBRANCH   1  30
TORSDOF 9
ENDMDL
