MODEL 1
REMARK VINA RESULT:      -9.8      0.000      0.000
REMARK  4 active torsions:
REMARK  status: ('A' for Active; 'I' for Inactive)
REMARK    1  A    between atoms: C_7  and  C_8 
REMARK    2  A    between atoms: C_8  and  N_9 
REMARK    3  A    between atoms: N_9  and  C_10 
REMARK    4  A    between atoms: N_16  and  C_17 
ROOT
HETATM    1  C   UNL     1      -5.733   2.853 -33.349  1.00  0.00     0.141 A 
HETATM    2  N   UNL     1      -6.087   3.907 -34.127  1.00  0.00    -0.224 NA
HETATM    3  C   UNL     1      -5.270   4.979 -34.179  1.00  0.00     0.237 A 
HETATM    4  N   UNL     1      -4.118   5.167 -33.527  1.00  0.00    -0.221 NA
HETATM    5  C   UNL     1      -3.796   4.121 -32.739  1.00  0.00     0.186 A 
HETATM    6  C   UNL     1      -4.546   2.962 -32.609  1.00  0.00     0.077 A 
HETATM    7  N   UNL     1      -2.685   3.968 -31.913  1.00  0.00    -0.041 N 
HETATM    8  N   UNL     1      -2.707   2.751 -31.268  1.00  0.00    -0.162 NA
HETATM    9  C   UNL     1      -3.831   2.175 -31.691  1.00  0.00     0.159 A 
ENDROOT
BRANCH   1  10
HETATM   10  N   UNL     1      -6.547   1.732 -33.275  1.00  0.00    -0.367 N 
HETATM   11  H   UNL     1      -6.491   1.224 -32.402  1.00  0.00     0.161 HD
BRANCH  10  12
HETATM   12  C   UNL     1      -6.658   0.874 -34.452  1.00  0.00     0.199 C 
BRANCH  12  13
HETATM   13  C   UNL     1      -6.052  -0.485 -34.314  1.00  0.00     0.123 A 
HETATM   14  N   UNL     1      -4.938  -0.693 -33.540  1.00  0.00    -0.341 N 
HETATM   15  C   UNL     1      -4.620  -2.024 -33.586  1.00  0.00     0.063 A 
HETATM   16  H   UNL     1      -4.448   0.041 -33.045  1.00  0.00     0.167 HD
HETATM   17  C   UNL     1      -5.581  -2.579 -34.426  1.00  0.00     0.091 A 
HETATM   18  C   UNL     1      -3.600  -2.764 -32.987  1.00  0.00     0.032 A 
HETATM   19  C   UNL     1      -5.546  -3.958 -34.713  1.00  0.00    -0.031 A 
HETATM   20  N   UNL     1      -6.462  -1.613 -34.861  1.00  0.00    -0.231 NA
HETATM   21  C   UNL     1      -6.536  -4.631 -35.617  1.00  0.00     0.050 C 
HETATM   22  C   UNL     1      -4.521  -4.717 -34.112  1.00  0.00     0.009 A 
HETATM   23  C   UNL     1      -3.573  -4.132 -33.268  1.00  0.00     0.003 A 
ENDBRANCH  12  13
ENDBRANCH  10  12
ENDBRANCH   1  10
BRANCH   7  24
HETATM   24  C   UNL     1      -1.611   4.903 -31.704  1.00  0.00     0.750 A 
HETATM   25  N   UNL     1      -1.674   6.116 -32.295  1.00  0.00    -0.073 NA
HETATM   26  C   UNL     1      -0.649   6.960 -32.071  1.00  0.00     0.138 A 
HETATM   27  C   UNL     1       0.434   6.648 -31.286  1.00  0.00     0.040 A 
HETATM   28  C   UNL     1       0.416   5.396 -30.726  1.00  0.00     0.138 A 
HETATM   29  N   UNL     1      -0.581   4.513 -30.915  1.00  0.00    -0.073 NA
ENDBRANCH   7  24
TORSDOF 4
ENDMDL
MODEL 2
REMARK VINA RESULT:      -9.5      0.313      1.555
REMARK  4 active torsions:
REMARK  status: ('A' for Active; 'I' for Inactive)
REMARK    1  A    between atoms: C_7  and  C_8 
REMARK    2  A    between atoms: C_8  and  N_9 
REMARK    3  A    between atoms: N_9  and  C_10 
REMARK    4  A    between atoms: N_16  and  C_17 
ROOT
HETATM    1  C   UNL     1      -5.726   2.806 -33.350  1.00  0.00     0.141 A 
HETATM    2  N   UNL     1      -6.104   3.865 -34.109  1.00  0.00    -0.224 NA
HETATM    3  C   UNL     1      -5.309   4.954 -34.146  1.00  0.00     0.237 A 
HETATM    4  N   UNL     1      -4.159   5.155 -33.495  1.00  0.00    -0.221 NA
HETATM    5  C   UNL     1      -3.813   4.102 -32.725  1.00  0.00     0.186 A 
HETATM    6  C   UNL     1      -4.539   2.927 -32.611  1.00  0.00     0.077 A 
HETATM    7  N   UNL     1      -2.696   3.959 -31.905  1.00  0.00    -0.041 N 
HETATM    8  N   UNL     1      -2.692   2.731 -31.280  1.00  0.00    -0.162 NA
HETATM    9  C   UNL     1      -3.805   2.139 -31.709  1.00  0.00     0.159 A 
ENDROOT
BRANCH   1  10
HETATM   10  N   UNL     1      -6.517   1.668 -33.291  1.00  0.00    -0.367 N 
HETATM   11  H   UNL     1      -6.489   1.176 -32.408  1.00  0.00     0.161 HD
BRANCH  10  12
HETATM   12  C   UNL     1      -6.555   0.787 -34.456  1.00  0.00     0.199 C 
BRANCH  12  13
HETATM   13  C   UNL     1      -5.949  -0.565 -34.258  1.00  0.00     0.123 A 
HETATM   14  N   UNL     1      -6.383  -1.652 -34.973  1.00  0.00    -0.341 N 
HETATM   15  C   UNL     1      -5.643  -2.742 -34.598  1.00  0.00     0.063 A 
HETATM   16  H   UNL     1      -7.139  -1.622 -35.645  1.00  0.00     0.167 HD
HETATM   17  C   UNL     1      -4.773  -2.250 -33.630  1.00  0.00     0.091 A 
HETATM   18  C   UNL     1      -5.666  -4.075 -35.009  1.00  0.00     0.032 A 
HETATM   19  C   UNL     1      -3.858  -3.121 -33.006  1.00  0.00    -0.031 A 
HETATM   20  N   UNL     1      -4.972  -0.900 -33.438  1.00  0.00    -0.231 NA
HETATM   21  C   UNL     1      -2.896  -2.674 -31.945  1.00  0.00     0.050 C 
HETATM   22  C   UNL     1      -3.870  -4.471 -33.413  1.00  0.00     0.009 A 
HETATM   23  C   UNL     1      -4.753  -4.934 -34.393  1.00  0.00     0.003 A 
ENDBRANCH  12  13
ENDBRANCH  10  12
ENDBRANCH   1  10
BRANCH   7  24
HETATM   24  C   UNL     1      -1.640   4.912 -31.684  1.00  0.00     0.750 A 
HETATM   25  N   UNL     1      -1.767   6.158 -32.188  1.00  0.00    -0.073 NA
HETATM   26  C   UNL     1      -0.757   7.018 -31.957  1.00  0.00     0.138 A 
HETATM   27  C   UNL     1       0.371   6.689 -31.245  1.00  0.00     0.040 A 
HETATM   28  C   UNL     1       0.416   5.404 -30.770  1.00  0.00     0.138 A 
HETATM   29  N   UNL     1      -0.563   4.504 -30.971  1.00  0.00    -0.073 NA
ENDBRANCH   7  24
TORSDOF 4
ENDMDL
MODEL 3
REMARK VINA RESULT:      -9.1      1.957      7.992
REMARK  4 active torsions:
REMARK  status: ('A' for Active; 'I' for Inactive)
REMARK    1  A    between atoms: C_7  and  C_8 
REMARK    2  A    between atoms: C_8  and  N_9 
REMARK    3  A    between atoms: N_9  and  C_10 
REMARK    4  A    between atoms: N_16  and  C_17 
ROOT
HETATM    1  C   UNL     1      -7.371   1.936 -32.447  1.00  0.00     0.141 A 
HETATM    2  N   UNL     1      -7.087   1.602 -31.163  1.00  0.00    -0.224 NA
HETATM    3  C   UNL     1      -6.556   0.388 -30.911  1.00  0.00     0.237 A 
HETATM    4  N   UNL     1      -6.277  -0.585 -31.785  1.00  0.00    -0.221 NA
HETATM    5  C   UNL     1      -6.591  -0.244 -33.052  1.00  0.00     0.186 A 
HETATM    6  C   UNL     1      -7.130   0.973 -33.438  1.00  0.00     0.077 A 
HETATM    7  N   UNL     1      -6.450  -1.002 -34.212  1.00  0.00    -0.041 N 
HETATM    8  N   UNL     1      -6.880  -0.302 -35.319  1.00  0.00    -0.162 NA
HETATM    9  C   UNL     1      -7.290   0.867 -34.830  1.00  0.00     0.159 A 
ENDROOT
BRANCH   1  10
HETATM   10  N   UNL     1      -7.914   3.179 -32.744  1.00  0.00    -0.367 N 
HETATM   11  H   UNL     1      -8.245   3.281 -33.694  1.00  0.00     0.161 HD
BRANCH  10  12
HETATM   12  C   UNL     1      -7.252   4.370 -32.218  1.00  0.00     0.199 C 
BRANCH  12  13
HETATM   13  C   UNL     1      -5.842   4.573 -32.670  1.00  0.00     0.123 A 
HETATM   14  N   UNL     1      -5.546   4.830 -33.986  1.00  0.00    -0.341 N 
HETATM   15  C   UNL     1      -4.191   4.987 -34.103  1.00  0.00     0.063 A 
HETATM   16  H   UNL     1      -6.238   4.872 -34.723  1.00  0.00     0.167 HD
HETATM   17  C   UNL     1      -3.710   4.798 -32.811  1.00  0.00     0.091 A 
HETATM   18  C   UNL     1      -3.373   5.263 -35.198  1.00  0.00     0.032 A 
HETATM   19  C   UNL     1      -2.326   4.877 -32.563  1.00  0.00    -0.031 A 
HETATM   20  N   UNL     1      -4.746   4.551 -31.938  1.00  0.00    -0.231 NA
HETATM   21  C   UNL     1      -1.725   4.674 -31.203  1.00  0.00     0.050 C 
HETATM   22  C   UNL     1      -1.487   5.157 -33.661  1.00  0.00     0.009 A 
HETATM   23  C   UNL     1      -2.001   5.347 -34.947  1.00  0.00     0.003 A 
ENDBRANCH  12  13
ENDBRANCH  10  12
ENDBRANCH   1  10
BRANCH   7  24
HETATM   24  C   UNL     1      -5.934  -2.340 -34.331  1.00  0.00     0.750 A 
HETATM   25  N   UNL     1      -4.642  -2.574 -34.012  1.00  0.00    -0.073 NA
HETATM   26  C   UNL     1      -4.201  -3.840 -34.136  1.00  0.00     0.138 A 
HETATM   27  C   UNL     1      -4.989  -4.880 -34.564  1.00  0.00     0.040 A 
HETATM   28  C   UNL     1      -6.286  -4.552 -34.867  1.00  0.00     0.138 A 
HETATM   29  N   UNL     1      -6.781  -3.306 -34.761  1.00  0.00    -0.073 NA
ENDBRANCH   7  24
TORSDOF 4
ENDMDL
MODEL 4
REMARK VINA RESULT:      -9.0      1.783      2.699
REMARK  4 active torsions:
REMARK  status: ('A' for Active; 'I' for Inactive)
REMARK    1  A    between atoms: C_7  and  C_8 
REMARK    2  A    between atoms: C_8  and  N_9 
REMARK    3  A    between atoms: N_9  and  C_10 
REMARK    4  A    between atoms: N_16  and  C_17 
ROOT
HETATM    1  C   UNL     1      -6.375   3.708 -31.291  1.00  0.00     0.141 A 
HETATM    2  N   UNL     1      -6.722   4.581 -30.312  1.00  0.00    -0.224 NA
HETATM    3  C   UNL     1      -5.792   5.441 -29.851  1.00  0.00     0.237 A 
HETATM    4  N   UNL     1      -4.513   5.547 -30.224  1.00  0.00    -0.221 NA
HETATM    5  C   UNL     1      -4.179   4.654 -31.179  1.00  0.00     0.186 A 
HETATM    6  C   UNL     1      -5.046   3.728 -31.739  1.00  0.00     0.077 A 
HETATM    7  N   UNL     1      -2.945   4.466 -31.795  1.00  0.00    -0.041 N 
HETATM    8  N   UNL     1      -3.004   3.454 -32.728  1.00  0.00    -0.162 NA
HETATM    9  C   UNL     1      -4.263   3.023 -32.669  1.00  0.00     0.159 A 
ENDROOT
BRANCH   1  10
HETATM   10  N   UNL     1      -7.308   2.811 -31.794  1.00  0.00    -0.367 N 
HETATM   11  H   UNL     1      -8.208   3.215 -32.016  1.00  0.00     0.161 HD
BRANCH  10  12
HETATM   12  C   UNL     1      -7.389   1.482 -31.193  1.00  0.00     0.199 C 
BRANCH  12  13
HETATM   13  C   UNL     1      -6.724   0.388 -31.964  1.00  0.00     0.123 A 
HETATM   14  N   UNL     1      -7.309  -0.153 -33.082  1.00  0.00    -0.341 N 
HETATM   15  C   UNL     1      -6.475  -1.114 -33.587  1.00  0.00     0.063 A 
HETATM   16  H   UNL     1      -8.216   0.125 -33.436  1.00  0.00     0.167 HD
HETATM   17  C   UNL     1      -5.391  -1.121 -32.714  1.00  0.00     0.091 A 
HETATM   18  C   UNL     1      -6.578  -1.954 -34.695  1.00  0.00     0.032 A 
HETATM   19  C   UNL     1      -4.326  -2.018 -32.929  1.00  0.00    -0.031 A 
HETATM   20  N   UNL     1      -5.560  -0.181 -31.721  1.00  0.00    -0.231 NA
HETATM   21  C   UNL     1      -3.129  -2.099 -32.029  1.00  0.00     0.050 C 
HETATM   22  C   UNL     1      -4.417  -2.873 -34.048  1.00  0.00     0.009 A 
HETATM   23  C   UNL     1      -5.517  -2.838 -34.909  1.00  0.00     0.003 A 
ENDBRANCH  12  13
ENDBRANCH  10  12
ENDBRANCH   1  10
BRANCH   7  24
HETATM   24  C   UNL     1      -1.723   5.186 -31.553  1.00  0.00     0.750 A 
HETATM   25  N   UNL     1      -0.741   4.590 -30.841  1.00  0.00    -0.073 NA
HETATM   26  C   UNL     1       0.386   5.298 -30.640  1.00  0.00     0.138 A 
HETATM   27  C   UNL     1       0.577   6.573 -31.117  1.00  0.00     0.040 A 
HETATM   28  C   UNL     1      -0.471   7.100 -31.828  1.00  0.00     0.138 A 
HETATM   29  N   UNL     1      -1.618   6.438 -32.059  1.00  0.00    -0.073 NA
ENDBRANCH   7  24
TORSDOF 4
ENDMDL
MODEL 5
REMARK VINA RESULT:      -9.0      2.072      7.931
REMARK  4 active torsions:
REMARK  status: ('A' for Active; 'I' for Inactive)
REMARK    1  A    between atoms: C_7  and  C_8 
REMARK    2  A    between atoms: C_8  and  N_9 
REMARK    3  A    between atoms: N_9  and  C_10 
REMARK    4  A    between atoms: N_16  and  C_17 
ROOT
HETATM    1  C   UNL     1      -5.561   1.946 -30.357  1.00  0.00     0.141 A 
HETATM    2  N   UNL     1      -6.870   1.620 -30.505  1.00  0.00    -0.224 NA
HETATM    3  C   UNL     1      -7.184   0.463 -31.123  1.00  0.00     0.237 A 
HETATM    4  N   UNL     1      -6.351  -0.440 -31.651  1.00  0.00    -0.221 NA
HETATM    5  C   UNL     1      -5.056  -0.086 -31.518  1.00  0.00     0.186 A 
HETATM    6  C   UNL     1      -4.607   1.070 -30.896  1.00  0.00     0.077 A 
HETATM    7  N   UNL     1      -3.923  -0.768 -31.952  1.00  0.00    -0.041 N 
HETATM    8  N   UNL     1      -2.773  -0.084 -31.623  1.00  0.00    -0.162 NA
HETATM    9  C   UNL     1      -3.208   1.012 -31.004  1.00  0.00     0.159 A 
ENDROOT
BRANCH   1  10
HETATM   10  N   UNL     1      -5.200   3.127 -29.723  1.00  0.00    -0.367 N 
HETATM   11  H   UNL     1      -5.421   3.163 -28.737  1.00  0.00     0.161 HD
BRANCH  10  12
HETATM   12  C   UNL     1      -5.421   4.389 -30.425  1.00  0.00     0.199 C 
BRANCH  12  13
HETATM   13  C   UNL     1      -4.302   4.835 -31.310  1.00  0.00     0.123 A 
HETATM   14  N   UNL     1      -4.243   4.459 -32.628  1.00  0.00    -0.341 N 
HETATM   15  C   UNL     1      -3.130   5.023 -33.191  1.00  0.00     0.063 A 
HETATM   16  H   UNL     1      -4.919   3.851 -33.074  1.00  0.00     0.167 HD
HETATM   17  C   UNL     1      -2.537   5.728 -32.148  1.00  0.00     0.091 A 
HETATM   18  C   UNL     1      -2.606   4.971 -34.483  1.00  0.00     0.032 A 
HETATM   19  C   UNL     1      -1.338   6.433 -32.374  1.00  0.00    -0.031 A 
HETATM   20  N   UNL     1      -3.280   5.606 -30.994  1.00  0.00    -0.231 NA
HETATM   21  C   UNL     1      -0.629   7.206 -31.302  1.00  0.00     0.050 C 
HETATM   22  C   UNL     1      -0.799   6.390 -33.676  1.00  0.00     0.009 A 
HETATM   23  C   UNL     1      -1.421   5.677 -34.705  1.00  0.00     0.003 A 
ENDBRANCH  12  13
ENDBRANCH  10  12
ENDBRANCH   1  10
BRANCH   7  24
HETATM   24  C   UNL     1      -3.868  -2.023 -32.654  1.00  0.00     0.750 A 
HETATM   25  N   UNL     1      -4.421  -2.110 -33.883  1.00  0.00    -0.073 NA
HETATM   26  C   UNL     1      -4.346  -3.302 -34.506  1.00  0.00     0.138 A 
HETATM   27  C   UNL     1      -3.744  -4.408 -33.957  1.00  0.00     0.040 A 
HETATM   28  C   UNL     1      -3.209  -4.230 -32.706  1.00  0.00     0.138 A 
HETATM   29  N   UNL     1      -3.255  -3.063 -32.039  1.00  0.00    -0.073 NA
ENDBRANCH   7  24
TORSDOF 4
ENDMDL
MODEL 6
REMARK VINA RESULT:      -8.9      1.402      2.318
REMARK  4 active torsions:
REMARK  status: ('A' for Active; 'I' for Inactive)
REMARK    1  A    between atoms: C_7  and  C_8 
REMARK    2  A    between atoms: C_8  and  N_9 
REMARK    3  A    between atoms: N_9  and  C_10 
REMARK    4  A    between atoms: N_16  and  C_17 
ROOT
HETATM    1  C   UNL     1      -5.538   2.036 -32.511  1.00  0.00     0.141 A 
HETATM    2  N   UNL     1      -4.594   1.478 -31.712  1.00  0.00    -0.224 NA
HETATM    3  C   UNL     1      -3.590   2.254 -31.255  1.00  0.00     0.237 A 
HETATM    4  N   UNL     1      -3.372   3.549 -31.505  1.00  0.00    -0.221 NA
HETATM    5  C   UNL     1      -4.306   4.080 -32.322  1.00  0.00     0.186 A 
HETATM    6  C   UNL     1      -5.388   3.390 -32.847  1.00  0.00     0.077 A 
HETATM    7  N   UNL     1      -4.396   5.384 -32.802  1.00  0.00    -0.041 N 
HETATM    8  N   UNL     1      -5.500   5.542 -33.611  1.00  0.00    -0.162 NA
HETATM    9  C   UNL     1      -6.068   4.337 -33.631  1.00  0.00     0.159 A 
ENDROOT
BRANCH   1  10
HETATM   10  N   UNL     1      -6.588   1.270 -32.997  1.00  0.00    -0.367 N 
HETATM   11  H   UNL     1      -7.056   0.703 -32.302  1.00  0.00     0.161 HD
BRANCH  10  12
HETATM   12  C   UNL     1      -6.426   0.606 -34.288  1.00  0.00     0.199 C 
BRANCH  12  13
HETATM   13  C   UNL     1      -5.894  -0.789 -34.230  1.00  0.00     0.123 A 
HETATM   14  N   UNL     1      -4.769  -1.093 -33.504  1.00  0.00    -0.341 N 
HETATM   15  C   UNL     1      -4.529  -2.436 -33.618  1.00  0.00     0.063 A 
HETATM   16  H   UNL     1      -4.223  -0.410 -32.995  1.00  0.00     0.167 HD
HETATM   17  C   UNL     1      -5.546  -2.898 -34.447  1.00  0.00     0.091 A 
HETATM   18  C   UNL     1      -3.534  -3.257 -33.087  1.00  0.00     0.032 A 
HETATM   19  C   UNL     1      -5.599  -4.263 -34.794  1.00  0.00    -0.031 A 
HETATM   20  N   UNL     1      -6.385  -1.867 -34.810  1.00  0.00    -0.231 NA
HETATM   21  C   UNL     1      -6.654  -4.839 -35.692  1.00  0.00     0.050 C 
HETATM   22  C   UNL     1      -4.600  -5.104 -34.263  1.00  0.00     0.009 A 
HETATM   23  C   UNL     1      -3.594  -4.610 -33.428  1.00  0.00     0.003 A 
ENDBRANCH  12  13
ENDBRANCH  10  12
ENDBRANCH   1  10
BRANCH   7  24
HETATM   24  C   UNL     1      -3.503   6.481 -32.538  1.00  0.00     0.750 A 
HETATM   25  N   UNL     1      -2.370   6.593 -33.266  1.00  0.00    -0.073 NA
HETATM   26  C   UNL     1      -1.564   7.635 -32.988  1.00  0.00     0.138 A 
HETATM   27  C   UNL     1      -1.837   8.568 -32.017  1.00  0.00     0.040 A 
HETATM   28  C   UNL     1      -3.007   8.378 -31.327  1.00  0.00     0.138 A 
HETATM   29  N   UNL     1      -3.849   7.356 -31.563  1.00  0.00    -0.073 NA
ENDBRANCH   7  24
TORSDOF 4
ENDMDL
MODEL 7
REMARK VINA RESULT:      -8.8      1.595      8.919
REMARK  4 active torsions:
REMARK  status: ('A' for Active; 'I' for Inactive)
REMARK    1  A    between atoms: C_7  and  C_8 
REMARK    2  A    between atoms: C_8  and  N_9 
REMARK    3  A    between atoms: N_9  and  C_10 
REMARK    4  A    between atoms: N_16  and  C_17 
ROOT
HETATM    1  C   UNL     1      -4.471   1.887 -31.955  1.00  0.00     0.141 A 
HETATM    2  N   UNL     1      -3.570   1.338 -31.102  1.00  0.00    -0.224 NA
HETATM    3  C   UNL     1      -3.324   0.014 -31.181  1.00  0.00     0.237 A 
HETATM    4  N   UNL     1      -3.882  -0.877 -32.006  1.00  0.00    -0.221 NA
HETATM    5  C   UNL     1      -4.794  -0.318 -32.828  1.00  0.00     0.186 A 
HETATM    6  C   UNL     1      -5.126   1.028 -32.850  1.00  0.00     0.077 A 
HETATM    7  N   UNL     1      -5.574  -0.935 -33.803  1.00  0.00    -0.041 N 
HETATM    8  N   UNL     1      -6.386  -0.023 -34.441  1.00  0.00    -0.162 NA
HETATM    9  C   UNL     1      -6.108   1.137 -33.848  1.00  0.00     0.159 A 
ENDROOT
BRANCH   1  10
HETATM   10  N   UNL     1      -4.746   3.246 -31.905  1.00  0.00    -0.367 N 
HETATM   11  H   UNL     1      -5.729   3.482 -31.940  1.00  0.00     0.161 HD
BRANCH  10  12
HETATM   12  C   UNL     1      -3.893   4.157 -32.665  1.00  0.00     0.199 C 
BRANCH  12  13
HETATM   13  C   UNL     1      -2.867   4.892 -31.865  1.00  0.00     0.123 A 
HETATM   14  N   UNL     1      -3.178   6.051 -31.199  1.00  0.00    -0.341 N 
HETATM   15  C   UNL     1      -2.059   6.490 -30.544  1.00  0.00     0.063 A 
HETATM   16  H   UNL     1      -4.089   6.491 -31.224  1.00  0.00     0.167 HD
HETATM   17  C   UNL     1      -1.083   5.551 -30.864  1.00  0.00     0.091 A 
HETATM   18  C   UNL     1      -1.825   7.597 -29.729  1.00  0.00     0.032 A 
HETATM   19  C   UNL     1       0.224   5.702 -30.360  1.00  0.00    -0.031 A 
HETATM   20  N   UNL     1      -1.603   4.567 -31.676  1.00  0.00    -0.231 NA
HETATM   21  C   UNL     1       1.336   4.743 -30.668  1.00  0.00     0.050 C 
HETATM   22  C   UNL     1       0.473   6.817 -29.533  1.00  0.00     0.009 A 
HETATM   23  C   UNL     1      -0.530   7.740 -29.225  1.00  0.00     0.003 A 
ENDBRANCH  12  13
ENDBRANCH  10  12
ENDBRANCH   1  10
BRANCH   7  24
HETATM   24  C   UNL     1      -5.593  -2.328 -34.163  1.00  0.00     0.750 A 
HETATM   25  N   UNL     1      -4.445  -3.037 -34.094  1.00  0.00    -0.073 NA
HETATM   26  C   UNL     1      -4.507  -4.338 -34.438  1.00  0.00     0.138 A 
HETATM   27  C   UNL     1      -5.662  -4.961 -34.845  1.00  0.00     0.040 A 
HETATM   28  C   UNL     1      -6.779  -4.166 -34.885  1.00  0.00     0.138 A 
HETATM   29  N   UNL     1      -6.775  -2.862 -34.554  1.00  0.00    -0.073 NA
ENDBRANCH   7  24
TORSDOF 4
ENDMDL
MODEL 8
REMARK VINA RESULT:      -8.8      3.144      6.489
REMARK  4 active torsions:
REMARK  status: ('A' for Active; 'I' for Inactive)
REMARK    1  A    between atoms: C_7  and  C_8 
REMARK    2  A    between atoms: C_8  and  N_9 
REMARK    3  A    between atoms: N_9  and  C_10 
REMARK    4  A    between atoms: N_16  and  C_17 
ROOT
HETATM    1  C   UNL     1      -5.740   2.382 -31.663  1.00  0.00     0.141 A 
HETATM    2  N   UNL     1      -6.103   2.745 -30.407  1.00  0.00    -0.224 NA
HETATM    3  C   UNL     1      -7.416   2.835 -30.111  1.00  0.00     0.237 A 
HETATM    4  N   UNL     1      -8.458   2.626 -30.923  1.00  0.00    -0.221 NA
HETATM    5  C   UNL     1      -8.077   2.292 -32.173  1.00  0.00     0.186 A 
HETATM    6  C   UNL     1      -6.764   2.158 -32.596  1.00  0.00     0.077 A 
HETATM    7  N   UNL     1      -8.879   2.015 -33.277  1.00  0.00    -0.041 N 
HETATM    8  N   UNL     1      -8.116   1.707 -34.383  1.00  0.00    -0.162 NA
HETATM    9  C   UNL     1      -6.859   1.810 -33.954  1.00  0.00     0.159 A 
ENDROOT
BRANCH   1  10
HETATM   10  N   UNL     1      -4.399   2.275 -32.001  1.00  0.00    -0.367 N 
HETATM   11  H   UNL     1      -4.200   2.380 -32.987  1.00  0.00     0.161 HD
BRANCH  10  12
HETATM   12  C   UNL     1      -3.595   1.246 -31.344  1.00  0.00     0.199 C 
BRANCH  12  13
HETATM   13  C   UNL     1      -3.703  -0.124 -31.932  1.00  0.00     0.123 A 
HETATM   14  N   UNL     1      -3.006  -1.182 -31.404  1.00  0.00    -0.341 N 
HETATM   15  C   UNL     1      -3.308  -2.305 -32.127  1.00  0.00     0.063 A 
HETATM   16  H   UNL     1      -2.370  -1.106 -30.620  1.00  0.00     0.167 HD
HETATM   17  C   UNL     1      -4.195  -1.857 -33.102  1.00  0.00     0.091 A 
HETATM   18  C   UNL     1      -2.889  -3.630 -32.016  1.00  0.00     0.032 A 
HETATM   19  C   UNL     1      -4.709  -2.765 -34.048  1.00  0.00    -0.031 A 
HETATM   20  N   UNL     1      -4.432  -0.507 -32.961  1.00  0.00    -0.231 NA
HETATM   21  C   UNL     1      -5.657  -2.362 -35.139  1.00  0.00     0.050 C 
HETATM   22  C   UNL     1      -4.294  -4.109 -33.946  1.00  0.00     0.009 A 
HETATM   23  C   UNL     1      -3.406  -4.529 -32.952  1.00  0.00     0.003 A 
ENDBRANCH  12  13
ENDBRANCH  10  12
ENDBRANCH   1  10
BRANCH   7  24
HETATM   24  C   UNL     1     -10.317   2.023 -33.344  1.00  0.00     0.750 A 
HETATM   25  N   UNL     1     -10.972   3.196 -33.204  1.00  0.00    -0.073 NA
HETATM   26  C   UNL     1     -12.317   3.159 -33.275  1.00  0.00     0.138 A 
HETATM   27  C   UNL     1     -13.034   2.005 -33.478  1.00  0.00     0.040 A 
HETATM   28  C   UNL     1     -12.289   0.861 -33.608  1.00  0.00     0.138 A 
HETATM   29  N   UNL     1     -10.945   0.840 -33.546  1.00  0.00    -0.073 NA
ENDBRANCH   7  24
TORSDOF 4
ENDMDL
MODEL 9
REMARK VINA RESULT:      -8.8      2.197      8.183
REMARK  4 active torsions:
REMARK  status: ('A' for Active; 'I' for Inactive)
REMARK    1  A    between atoms: C_7  and  C_8 
REMARK    2  A    between atoms: C_8  and  N_9 
REMARK    3  A    between atoms: N_9  and  C_10 
REMARK    4  A    between atoms: N_16  and  C_17 
ROOT
HETATM    1  C   UNL     1      -7.471   2.677 -33.279  1.00  0.00     0.141 A 
HETATM    2  N   UNL     1      -8.642   2.463 -33.929  1.00  0.00    -0.224 NA
HETATM    3  C   UNL     1      -8.880   1.243 -34.454  1.00  0.00     0.237 A 
HETATM    4  N   UNL     1      -8.079   0.173 -34.442  1.00  0.00    -0.221 NA
HETATM    5  C   UNL     1      -6.908   0.413 -33.815  1.00  0.00     0.186 A 
HETATM    6  C   UNL     1      -6.553   1.618 -33.228  1.00  0.00     0.077 A 
HETATM    7  N   UNL     1      -5.837  -0.455 -33.620  1.00  0.00    -0.041 N 
HETATM    8  N   UNL     1      -4.818   0.160 -32.926  1.00  0.00    -0.162 NA
HETATM    9  C   UNL     1      -5.264   1.397 -32.714  1.00  0.00     0.159 A 
ENDROOT
BRANCH   1  10
HETATM   10  N   UNL     1      -7.195   3.918 -32.723  1.00  0.00    -0.367 N 
HETATM   11  H   UNL     1      -7.794   4.180 -31.952  1.00  0.00     0.161 HD
BRANCH  10  12
HETATM   12  C   UNL     1      -6.866   5.025 -33.618  1.00  0.00     0.199 C 
BRANCH  12  13
HETATM   13  C   UNL     1      -5.417   5.382 -33.690  1.00  0.00     0.123 A 
HETATM   14  N   UNL     1      -4.559   4.715 -34.528  1.00  0.00    -0.341 N 
HETATM   15  C   UNL     1      -3.311   5.262 -34.397  1.00  0.00     0.063 A 
HETATM   16  H   UNL     1      -4.834   3.941 -35.119  1.00  0.00     0.167 HD
HETATM   17  C   UNL     1      -3.472   6.262 -33.443  1.00  0.00     0.091 A 
HETATM   18  C   UNL     1      -2.092   4.971 -35.011  1.00  0.00     0.032 A 
HETATM   19  C   UNL     1      -2.363   7.035 -33.046  1.00  0.00    -0.031 A 
HETATM   20  N   UNL     1      -4.782   6.326 -33.022  1.00  0.00    -0.231 NA
HETATM   21  C   UNL     1      -2.448   8.121 -32.015  1.00  0.00     0.050 C 
HETATM   22  C   UNL     1      -1.125   6.751 -33.660  1.00  0.00     0.009 A 
HETATM   23  C   UNL     1      -0.996   5.744 -34.620  1.00  0.00     0.003 A 
ENDBRANCH  12  13
ENDBRANCH  10  12
ENDBRANCH   1  10
BRANCH   7  24
HETATM   24  C   UNL     1      -5.726  -1.825 -34.048  1.00  0.00     0.750 A 
HETATM   25  N   UNL     1      -4.506  -2.404 -34.077  1.00  0.00    -0.073 NA
HETATM   26  C   UNL     1      -4.447  -3.687 -34.482  1.00  0.00     0.138 A 
HETATM   27  C   UNL     1      -5.550  -4.416 -34.859  1.00  0.00     0.040 A 
HETATM   28  C   UNL     1      -6.747  -3.748 -34.799  1.00  0.00     0.138 A 
HETATM   29  N   UNL     1      -6.864  -2.469 -34.402  1.00  0.00    -0.073 NA
ENDBRANCH   7  24
TORSDOF 4
ENDMDL
MODEL 10
REMARK VINA RESULT:      -8.7      1.880      8.333
REMARK  4 active torsions:
REMARK  status: ('A' for Active; 'I' for Inactive)
REMARK    1  A    between atoms: C_7  and  C_8 
REMARK    2  A    between atoms: C_8  and  N_9 
REMARK    3  A    between atoms: N_9  and  C_10 
REMARK    4  A    between atoms: N_16  and  C_17 
ROOT
HETATM    1  C   UNL     1      -6.275   2.183 -31.481  1.00  0.00     0.141 A 
HETATM    2  N   UNL     1      -6.025   1.590 -30.287  1.00  0.00    -0.224 NA
HETATM    3  C   UNL     1      -5.768   0.266 -30.262  1.00  0.00     0.237 A 
HETATM    4  N   UNL     1      -5.745  -0.587 -31.291  1.00  0.00    -0.221 NA
HETATM    5  C   UNL     1      -6.023   0.015 -32.465  1.00  0.00     0.186 A 
HETATM    6  C   UNL     1      -6.291   1.367 -32.622  1.00  0.00     0.077 A 
HETATM    7  N   UNL     1      -6.097  -0.554 -33.734  1.00  0.00    -0.041 N 
HETATM    8  N   UNL     1      -6.401   0.394 -34.688  1.00  0.00    -0.162 NA
HETATM    9  C   UNL     1      -6.523   1.527 -33.999  1.00  0.00     0.159 A 
ENDROOT
BRANCH   1  10
HETATM   10  N   UNL     1      -6.539   3.544 -31.546  1.00  0.00    -0.367 N 
HETATM   11  H   UNL     1      -6.636   3.913 -32.483  1.00  0.00     0.161 HD
BRANCH  10  12
HETATM   12  C   UNL     1      -5.828   4.435 -30.632  1.00  0.00     0.199 C 
BRANCH  12  13
HETATM   13  C   UNL     1      -4.538   4.985 -31.147  1.00  0.00     0.123 A 
HETATM   14  N   UNL     1      -3.695   5.703 -30.336  1.00  0.00    -0.341 N 
HETATM   15  C   UNL     1      -2.593   6.063 -31.065  1.00  0.00     0.063 A 
HETATM   16  H   UNL     1      -3.894   5.926 -29.369  1.00  0.00     0.167 HD
HETATM   17  C   UNL     1      -2.833   5.541 -32.332  1.00  0.00     0.091 A 
HETATM   18  C   UNL     1      -1.446   6.785 -30.733  1.00  0.00     0.032 A 
HETATM   19  C   UNL     1      -1.890   5.739 -33.360  1.00  0.00    -0.031 A 
HETATM   20  N   UNL     1      -4.037   4.872 -32.362  1.00  0.00    -0.231 NA
HETATM   21  C   UNL     1      -2.079   5.221 -34.755  1.00  0.00     0.050 C 
HETATM   22  C   UNL     1      -0.726   6.466 -33.037  1.00  0.00     0.009 A 
HETATM   23  C   UNL     1      -0.511   6.974 -31.753  1.00  0.00     0.003 A 
ENDBRANCH  12  13
ENDBRANCH  10  12
ENDBRANCH   1  10
BRANCH   7  24
HETATM   24  C   UNL     1      -5.896  -1.933 -34.092  1.00  0.00     0.750 A 
HETATM   25  N   UNL     1      -4.656  -2.461 -33.993  1.00  0.00    -0.073 NA
HETATM   26  C   UNL     1      -4.513  -3.755 -34.336  1.00  0.00     0.138 A 
HETATM   27  C   UNL     1      -5.550  -4.544 -34.773  1.00  0.00     0.040 A 
HETATM   28  C   UNL     1      -6.772  -3.927 -34.843  1.00  0.00     0.138 A 
HETATM   29  N   UNL     1      -6.973  -2.638 -34.514  1.00  0.00    -0.073 NA
ENDBRANCH   7  24
TORSDOF 4
ENDMDL
