MODEL 1
REMARK VINA RESULT:      -8.9      0.000      0.000
REMARK  8 active torsions:
REMARK  status: ('A' for Active; 'I' for Inactive)
REMARK    1  A    between atoms: C_2  and  C_3 
REMARK    2  A    between atoms: C_3  and  C_4 
REMARK    3  A    between atoms: C_7  and  N_8 
REMARK       I    between atoms: N_8  and  C_9 
REMARK    4  A    between atoms: C_9  and  C_10 
REMARK    5  A    between atoms: C_13  and  N_14 
REMARK       I    between atoms: N_14  and  C_15 
REMARK    6  A    between atoms: C_15  and  C_16 
REMARK    7  A    between atoms: C_16  and  C_17 
REMARK    8  A    between atoms: C_19  and  N_20 
ROOT
HETATM    1  C   UNL     1      -5.903   2.787 -30.621  1.00  0.00     0.032 A 
HETATM    2  C   UNL     1      -6.920   3.411 -29.889  1.00  0.00     0.019 A 
HETATM    3  C   UNL     1      -6.818   4.766 -29.545  1.00  0.00     0.030 A 
HETATM    4  C   UNL     1      -5.688   5.508 -29.896  1.00  0.00     0.034 A 
HETATM    5  C   UNL     1      -4.653   4.874 -30.590  1.00  0.00     0.030 A 
HETATM    6  C   UNL     1      -4.764   3.528 -30.961  1.00  0.00     0.019 A 
ENDROOT
BRANCH   4   7
HETATM    7  N   UNL     1      -5.505   6.863 -29.544  1.00  0.00    -0.327 N 
HETATM    8  C   UNL     1      -4.974   7.333 -28.359  1.00  0.00     0.223 C 
HETATM    9  O   UNL     1      -4.664   6.626 -27.399  1.00  0.00    -0.273 OA
HETATM   10  H   UNL     1      -5.909   7.520 -30.198  1.00  0.00     0.169 HD
BRANCH   8  11
HETATM   11  C   UNL     1      -4.678   8.827 -28.289  1.00  0.00     0.128 C 
BRANCH  11  12
HETATM   12  C   UNL     1      -3.405   9.380 -28.911  1.00  0.00     0.158 A 
HETATM   13  S   UNL     1      -3.253   9.232 -30.706  1.00  0.00    -0.077 SA
HETATM   14  C   UNL     1      -1.795   8.271 -30.535  1.00  0.00     0.168 A 
HETATM   15  N   UNL     1      -1.418   8.054 -29.317  1.00  0.00    -0.189 NA
HETATM   16  C   UNL     1      -2.178   8.687 -28.366  1.00  0.00     0.260 A 
HETATM   17  O   UNL     1      -1.927   8.642 -27.168  1.00  0.00    -0.270 OA
BRANCH  14  18
HETATM   18  N   UNL     1      -1.162   7.752 -31.645  1.00  0.00    -0.360 N 
HETATM   19  C   UNL     1      -0.121   6.718 -31.582  1.00  0.00     0.125 C 
HETATM   20  C   UNL     1      -0.775   5.339 -31.684  1.00  0.00     0.020 C 
HETATM   21  C   UNL     1      -1.622   5.222 -32.954  1.00  0.00     0.003 C 
HETATM   22  C   UNL     1      -2.602   6.391 -33.084  1.00  0.00     0.020 C 
HETATM   23  C   UNL     1      -1.879   7.731 -32.931  1.00  0.00     0.125 C 
ENDBRANCH  14  18
ENDBRANCH  11  12
ENDBRANCH   8  11
ENDBRANCH   4   7
BRANCH   1  24
HETATM   24  C   UNL     1      -5.959   1.343 -31.018  1.00  0.00     0.256 C 
HETATM   25  N   UNL     1      -5.590   1.063 -32.322  1.00  0.00    -0.323 N 
HETATM   26  H   UNL     1      -5.226   1.824 -32.876  1.00  0.00     0.169 HD
HETATM   27  O   UNL     1      -6.304   0.526 -30.170  1.00  0.00    -0.267 OA
BRANCH  25  28
HETATM   28  C   UNL     1      -5.635  -0.184 -32.982  1.00  0.00     0.035 A 
HETATM   29  C   UNL     1      -6.801  -0.783 -33.453  1.00  0.00     0.030 A 
HETATM   30  C   UNL     1      -6.750  -2.018 -34.113  1.00  0.00     0.010 A 
HETATM   31  C   UNL     1      -5.531  -2.672 -34.329  1.00  0.00    -0.054 A 
HETATM   32  C   UNL     1      -4.362  -2.069 -33.850  1.00  0.00     0.010 A 
HETATM   33  C   UNL     1      -4.414  -0.842 -33.180  1.00  0.00     0.030 A 
BRANCH  31  34
HETATM   34  C   UNL     1      -5.451  -4.007 -35.052  1.00  0.00     0.014 C 
HETATM   35  C   UNL     1      -6.832  -4.440 -35.565  1.00  0.00     0.015 C 
BRANCH  34  36
HETATM   36  C   UNL     1      -4.831  -5.118 -34.182  1.00  0.00     0.004 C 
HETATM   37  C   UNL     1      -3.343  -4.913 -33.923  1.00  0.00     0.006 C 
ENDBRANCH  34  36
ENDBRANCH  31  34
ENDBRANCH  25  28
ENDBRANCH   1  24
TORSDOF 8
ENDMDL
MODEL 2
REMARK VINA RESULT:      -8.8      2.253      2.969
REMARK  8 active torsions:
REMARK  status: ('A' for Active; 'I' for Inactive)
REMARK    1  A    between atoms: C_2  and  C_3 
REMARK    2  A    between atoms: C_3  and  C_4 
REMARK    3  A    between atoms: C_7  and  N_8 
REMARK       I    between atoms: N_8  and  C_9 
REMARK    4  A    between atoms: C_9  and  C_10 
REMARK    5  A    between atoms: C_13  and  N_14 
REMARK       I    between atoms: N_14  and  C_15 
REMARK    6  A    between atoms: C_15  and  C_16 
REMARK    7  A    between atoms: C_16  and  C_17 
REMARK    8  A    between atoms: C_19  and  N_20 
ROOT
HETATM    1  C   UNL     1      -6.460   3.562 -31.999  1.00  0.00     0.032 A 
HETATM    2  C   UNL     1      -7.566   3.752 -31.162  1.00  0.00     0.019 A 
HETATM    3  C   UNL     1      -7.624   4.857 -30.302  1.00  0.00     0.030 A 
HETATM    4  C   UNL     1      -6.569   5.768 -30.239  1.00  0.00     0.034 A 
HETATM    5  C   UNL     1      -5.445   5.556 -31.044  1.00  0.00     0.030 A 
HETATM    6  C   UNL     1      -5.396   4.469 -31.926  1.00  0.00     0.019 A 
ENDROOT
BRANCH   4   7
HETATM    7  N   UNL     1      -6.546   6.876 -29.364  1.00  0.00    -0.327 N 
HETATM    8  C   UNL     1      -6.159   6.861 -28.039  1.00  0.00     0.223 C 
HETATM    9  O   UNL     1      -5.859   5.849 -27.406  1.00  0.00    -0.273 OA
HETATM   10  H   UNL     1      -6.959   7.715 -29.748  1.00  0.00     0.169 HD
BRANCH   8  11
HETATM   11  C   UNL     1      -6.016   8.217 -27.355  1.00  0.00     0.128 C 
BRANCH  11  12
HETATM   12  C   UNL     1      -4.636   8.747 -26.999  1.00  0.00     0.158 A 
HETATM   13  S   UNL     1      -3.302   8.371 -28.160  1.00  0.00    -0.077 SA
HETATM   14  C   UNL     1      -2.413   7.517 -26.912  1.00  0.00     0.168 A 
HETATM   15  N   UNL     1      -2.987   7.483 -25.752  1.00  0.00    -0.189 NA
HETATM   16  C   UNL     1      -4.157   8.196 -25.676  1.00  0.00     0.260 A 
HETATM   17  O   UNL     1      -4.799   8.323 -24.641  1.00  0.00    -0.270 OA
BRANCH  14  18
HETATM   18  N   UNL     1      -1.220   6.889 -27.203  1.00  0.00    -0.360 N 
HETATM   19  C   UNL     1      -0.705   6.707 -28.566  1.00  0.00     0.125 C 
HETATM   20  C   UNL     1       0.180   7.899 -28.932  1.00  0.00     0.020 C 
HETATM   21  C   UNL     1       1.309   8.082 -27.912  1.00  0.00     0.003 C 
HETATM   22  C   UNL     1       0.770   8.119 -26.481  1.00  0.00     0.020 C 
HETATM   23  C   UNL     1      -0.137   6.918 -26.206  1.00  0.00     0.125 C 
ENDBRANCH  14  18
ENDBRANCH  11  12
ENDBRANCH   8  11
ENDBRANCH   4   7
BRANCH   1  24
HETATM   24  C   UNL     1      -6.344   2.401 -32.939  1.00  0.00     0.256 C 
HETATM   25  N   UNL     1      -6.418   1.147 -32.357  1.00  0.00    -0.323 N 
HETATM   26  H   UNL     1      -6.636   1.103 -31.373  1.00  0.00     0.169 HD
HETATM   27  O   UNL     1      -6.211   2.639 -34.135  1.00  0.00    -0.267 OA
BRANCH  25  28
HETATM   28  C   UNL     1      -6.251  -0.106 -32.985  1.00  0.00     0.035 A 
HETATM   29  C   UNL     1      -7.274  -0.815 -33.611  1.00  0.00     0.030 A 
HETATM   30  C   UNL     1      -7.014  -2.047 -34.226  1.00  0.00     0.010 A 
HETATM   31  C   UNL     1      -5.722  -2.588 -34.240  1.00  0.00    -0.054 A 
HETATM   32  C   UNL     1      -4.698  -1.875 -33.607  1.00  0.00     0.010 A 
HETATM   33  C   UNL     1      -4.961  -0.651 -32.982  1.00  0.00     0.030 A 
BRANCH  31  34
HETATM   34  C   UNL     1      -5.416  -3.918 -34.911  1.00  0.00     0.014 C 
HETATM   35  C   UNL     1      -6.673  -4.511 -35.562  1.00  0.00     0.015 C 
BRANCH  34  36
HETATM   36  C   UNL     1      -4.781  -4.937 -33.945  1.00  0.00     0.004 C 
HETATM   37  C   UNL     1      -3.260  -4.864 -33.914  1.00  0.00     0.006 C 
ENDBRANCH  34  36
ENDBRANCH  31  34
ENDBRANCH  25  28
ENDBRANCH   1  24
TORSDOF 8
ENDMDL
MODEL 3
REMARK VINA RESULT:      -8.6      7.693     11.057
REMARK  8 active torsions:
REMARK  status: ('A' for Active; 'I' for Inactive)
REMARK    1  A    between atoms: C_2  and  C_3 
REMARK    2  A    between atoms: C_3  and  C_4 
REMARK    3  A    between atoms: C_7  and  N_8 
REMARK       I    between atoms: N_8  and  C_9 
REMARK    4  A    between atoms: C_9  and  C_10 
REMARK    5  A    between atoms: C_13  and  N_14 
REMARK       I    between atoms: N_14  and  C_15 
REMARK    6  A    between atoms: C_15  and  C_16 
REMARK    7  A    between atoms: C_16  and  C_17 
REMARK    8  A    between atoms: C_19  and  N_20 
ROOT
HETATM    1  C   UNL     1       0.622   8.703 -27.024  1.00  0.00     0.032 A 
HETATM    2  C   UNL     1       0.232   9.985 -26.619  1.00  0.00     0.019 A 
HETATM    3  C   UNL     1       1.041  10.732 -25.752  1.00  0.00     0.030 A 
HETATM    4  C   UNL     1       2.231  10.201 -25.251  1.00  0.00     0.034 A 
HETATM    5  C   UNL     1       2.600   8.904 -25.621  1.00  0.00     0.030 A 
HETATM    6  C   UNL     1       1.808   8.165 -26.510  1.00  0.00     0.019 A 
ENDROOT
BRANCH   4   7
HETATM    7  N   UNL     1       3.068  10.884 -24.342  1.00  0.00    -0.327 N 
HETATM    8  C   UNL     1       3.214  10.602 -22.999  1.00  0.00     0.223 C 
HETATM    9  O   UNL     1       2.560   9.761 -22.382  1.00  0.00    -0.273 OA
HETATM   10  H   UNL     1       3.502  11.714 -24.722  1.00  0.00     0.169 HD
BRANCH   8  11
HETATM   11  C   UNL     1       4.332  11.336 -22.265  1.00  0.00     0.128 C 
BRANCH  11  12
HETATM   12  C   UNL     1       5.637  10.620 -21.955  1.00  0.00     0.158 A 
HETATM   13  S   UNL     1       5.897   9.026 -22.769  1.00  0.00    -0.077 SA
HETATM   14  C   UNL     1       6.017   8.218 -21.216  1.00  0.00     0.168 A 
HETATM   15  N   UNL     1       5.890   8.987 -20.183  1.00  0.00    -0.189 NA
HETATM   16  C   UNL     1       5.766  10.320 -20.480  1.00  0.00     0.260 A 
HETATM   17  O   UNL     1       5.697  11.194 -19.625  1.00  0.00    -0.270 OA
BRANCH  14  18
HETATM   18  N   UNL     1       6.177   6.850 -21.147  1.00  0.00    -0.360 N 
HETATM   19  C   UNL     1       6.474   6.002 -22.309  1.00  0.00     0.125 C 
HETATM   20  C   UNL     1       7.990   5.869 -22.458  1.00  0.00     0.020 C 
HETATM   21  C   UNL     1       8.626   5.325 -21.175  1.00  0.00     0.003 C 
HETATM   22  C   UNL     1       8.186   6.128 -19.948  1.00  0.00     0.020 C 
HETATM   23  C   UNL     1       6.663   6.251 -19.892  1.00  0.00     0.125 C 
ENDBRANCH  14  18
ENDBRANCH  11  12
ENDBRANCH   8  11
ENDBRANCH   4   7
BRANCH   1  24
HETATM   24  C   UNL     1      -0.202   7.859 -27.950  1.00  0.00     0.256 C 
HETATM   25  N   UNL     1       0.439   7.425 -29.097  1.00  0.00    -0.323 N 
HETATM   26  H   UNL     1       1.425   7.623 -29.183  1.00  0.00     0.169 HD
HETATM   27  O   UNL     1      -1.356   7.606 -27.623  1.00  0.00    -0.267 OA
BRANCH  25  28
HETATM   28  C   UNL     1      -0.117   6.700 -30.173  1.00  0.00     0.035 A 
HETATM   29  C   UNL     1      -0.461   5.351 -30.117  1.00  0.00     0.030 A 
HETATM   30  C   UNL     1      -1.026   4.714 -31.231  1.00  0.00     0.010 A 
HETATM   31  C   UNL     1      -1.271   5.417 -32.417  1.00  0.00    -0.054 A 
HETATM   32  C   UNL     1      -0.919   6.771 -32.470  1.00  0.00     0.010 A 
HETATM   33  C   UNL     1      -0.345   7.403 -31.362  1.00  0.00     0.030 A 
BRANCH  31  34
HETATM   34  C   UNL     1      -1.892   4.749 -33.633  1.00  0.00     0.014 C 
HETATM   35  C   UNL     1      -1.318   5.326 -34.934  1.00  0.00     0.015 C 
BRANCH  34  36
HETATM   36  C   UNL     1      -3.431   4.842 -33.640  1.00  0.00     0.004 C 
HETATM   37  C   UNL     1      -4.001   5.206 -35.006  1.00  0.00     0.006 C 
ENDBRANCH  34  36
ENDBRANCH  31  34
ENDBRANCH  25  28
ENDBRANCH   1  24
TORSDOF 8
ENDMDL
MODEL 4
REMARK VINA RESULT:      -8.6      2.354      3.372
REMARK  8 active torsions:
REMARK  status: ('A' for Active; 'I' for Inactive)
REMARK    1  A    between atoms: C_2  and  C_3 
REMARK    2  A    between atoms: C_3  and  C_4 
REMARK    3  A    between atoms: C_7  and  N_8 
REMARK       I    between atoms: N_8  and  C_9 
REMARK    4  A    between atoms: C_9  and  C_10 
REMARK    5  A    between atoms: C_13  and  N_14 
REMARK       I    between atoms: N_14  and  C_15 
REMARK    6  A    between atoms: C_15  and  C_16 
REMARK    7  A    between atoms: C_16  and  C_17 
REMARK    8  A    between atoms: C_19  and  N_20 
ROOT
HETATM    1  C   UNL     1      -4.954   4.382 -31.495  1.00  0.00     0.032 A 
HETATM    2  C   UNL     1      -6.239   4.698 -31.039  1.00  0.00     0.019 A 
HETATM    3  C   UNL     1      -6.450   5.827 -30.235  1.00  0.00     0.030 A 
HETATM    4  C   UNL     1      -5.380   6.636 -29.847  1.00  0.00     0.034 A 
HETATM    5  C   UNL     1      -4.090   6.298 -30.268  1.00  0.00     0.030 A 
HETATM    6  C   UNL     1      -3.879   5.187 -31.095  1.00  0.00     0.019 A 
ENDROOT
BRANCH   4   7
HETATM    7  N   UNL     1      -5.519   7.761 -29.005  1.00  0.00    -0.327 N 
HETATM    8  C   UNL     1      -5.613   7.741 -27.628  1.00  0.00     0.223 C 
HETATM    9  O   UNL     1      -5.677   6.720 -26.942  1.00  0.00    -0.273 OA
HETATM   10  H   UNL     1      -5.667   8.631 -29.497  1.00  0.00     0.169 HD
BRANCH   8  11
HETATM   11  C   UNL     1      -5.543   9.090 -26.920  1.00  0.00     0.128 C 
BRANCH  11  12
HETATM   12  C   UNL     1      -4.245   9.541 -26.268  1.00  0.00     0.158 A 
HETATM   13  S   UNL     1      -2.736   9.325 -27.240  1.00  0.00    -0.077 SA
HETATM   14  C   UNL     1      -2.054   8.279 -26.006  1.00  0.00     0.168 A 
HETATM   15  N   UNL     1      -2.809   8.079 -24.974  1.00  0.00    -0.189 NA
HETATM   16  C   UNL     1      -3.983   8.790 -24.983  1.00  0.00     0.260 A 
HETATM   17  O   UNL     1      -4.786   8.769 -24.060  1.00  0.00    -0.270 OA
BRANCH  14  18
HETATM   18  N   UNL     1      -0.823   7.685 -26.191  1.00  0.00    -0.360 N 
HETATM   19  C   UNL     1      -0.551   6.675 -27.222  1.00  0.00     0.125 C 
HETATM   20  C   UNL     1      -0.067   7.374 -28.494  1.00  0.00     0.020 C 
HETATM   21  C   UNL     1       1.157   8.249 -28.211  1.00  0.00     0.003 C 
HETATM   22  C   UNL     1       0.910   9.195 -27.034  1.00  0.00     0.020 C 
HETATM   23  C   UNL     1       0.391   8.428 -25.815  1.00  0.00     0.125 C 
ENDBRANCH  14  18
ENDBRANCH  11  12
ENDBRANCH   8  11
ENDBRANCH   4   7
BRANCH   1  24
HETATM   24  C   UNL     1      -4.669   3.190 -32.357  1.00  0.00     0.256 C 
HETATM   25  N   UNL     1      -5.579   2.151 -32.264  1.00  0.00    -0.323 N 
HETATM   26  H   UNL     1      -6.405   2.304 -31.705  1.00  0.00     0.169 HD
HETATM   27  O   UNL     1      -3.679   3.226 -33.081  1.00  0.00    -0.267 OA
BRANCH  25  28
HETATM   28  C   UNL     1      -5.509   0.886 -32.888  1.00  0.00     0.035 A 
HETATM   29  C   UNL     1      -4.680  -0.152 -32.468  1.00  0.00     0.030 A 
HETATM   30  C   UNL     1      -4.688  -1.383 -33.138  1.00  0.00     0.010 A 
HETATM   31  C   UNL     1      -5.534  -1.606 -34.231  1.00  0.00    -0.054 A 
HETATM   32  C   UNL     1      -6.362  -0.558 -34.652  1.00  0.00     0.010 A 
HETATM   33  C   UNL     1      -6.345   0.675 -33.991  1.00  0.00     0.030 A 
BRANCH  31  34
HETATM   34  C   UNL     1      -5.567  -2.937 -34.965  1.00  0.00     0.014 C 
HETATM   35  C   UNL     1      -6.880  -3.684 -34.696  1.00  0.00     0.015 C 
BRANCH  34  36
HETATM   36  C   UNL     1      -4.361  -3.834 -34.622  1.00  0.00     0.004 C 
HETATM   37  C   UNL     1      -4.763  -5.250 -34.227  1.00  0.00     0.006 C 
ENDBRANCH  34  36
ENDBRANCH  31  34
ENDBRANCH  25  28
ENDBRANCH   1  24
TORSDOF 8
ENDMDL
MODEL 5
REMARK VINA RESULT:      -8.4      4.807     11.437
REMARK  8 active torsions:
REMARK  status: ('A' for Active; 'I' for Inactive)
REMARK    1  A    between atoms: C_2  and  C_3 
REMARK    2  A    between atoms: C_3  and  C_4 
REMARK    3  A    between atoms: C_7  and  N_8 
REMARK       I    between atoms: N_8  and  C_9 
REMARK    4  A    between atoms: C_9  and  C_10 
REMARK    5  A    between atoms: C_13  and  N_14 
REMARK       I    between atoms: N_14  and  C_15 
REMARK    6  A    between atoms: C_15  and  C_16 
REMARK    7  A    between atoms: C_16  and  C_17 
REMARK    8  A    between atoms: C_19  and  N_20 
ROOT
HETATM    1  C   UNL     1      -1.989   5.655 -31.233  1.00  0.00     0.032 A 
HETATM    2  C   UNL     1      -1.756   4.751 -32.276  1.00  0.00     0.019 A 
HETATM    3  C   UNL     1      -2.828   4.180 -32.975  1.00  0.00     0.030 A 
HETATM    4  C   UNL     1      -4.146   4.476 -32.623  1.00  0.00     0.034 A 
HETATM    5  C   UNL     1      -4.381   5.346 -31.554  1.00  0.00     0.030 A 
HETATM    6  C   UNL     1      -3.312   5.941 -30.872  1.00  0.00     0.019 A 
ENDROOT
BRANCH   4   7
HETATM    7  N   UNL     1      -5.270   3.903 -33.258  1.00  0.00    -0.327 N 
HETATM    8  C   UNL     1      -5.753   2.625 -33.062  1.00  0.00     0.223 C 
HETATM    9  O   UNL     1      -5.212   1.768 -32.362  1.00  0.00    -0.273 OA
HETATM   10  H   UNL     1      -5.665   4.472 -33.994  1.00  0.00     0.169 HD
BRANCH   8  11
HETATM   11  C   UNL     1      -7.101   2.300 -33.698  1.00  0.00     0.128 C 
BRANCH  11  12
HETATM   12  C   UNL     1      -8.366   2.968 -33.182  1.00  0.00     0.158 A 
HETATM   13  S   UNL     1      -9.854   1.943 -33.123  1.00  0.00    -0.077 SA
HETATM   14  C   UNL     1     -10.687   3.033 -34.217  1.00  0.00     0.168 A 
HETATM   15  N   UNL     1      -9.994   4.053 -34.611  1.00  0.00    -0.189 NA
HETATM   16  C   UNL     1      -8.752   4.152 -34.037  1.00  0.00     0.260 A 
HETATM   17  O   UNL     1      -7.989   5.086 -34.248  1.00  0.00    -0.270 OA
BRANCH  14  18
HETATM   18  N   UNL     1     -11.966   2.754 -34.649  1.00  0.00    -0.360 N 
HETATM   19  C   UNL     1     -12.394   1.436 -35.136  1.00  0.00     0.125 C 
HETATM   20  C   UNL     1     -12.935   0.617 -33.963  1.00  0.00     0.020 C 
HETATM   21  C   UNL     1     -14.068   1.360 -33.248  1.00  0.00     0.003 C 
HETATM   22  C   UNL     1     -13.658   2.787 -32.879  1.00  0.00     0.020 C 
HETATM   23  C   UNL     1     -13.091   3.525 -34.093  1.00  0.00     0.125 C 
ENDBRANCH  14  18
ENDBRANCH  11  12
ENDBRANCH   8  11
ENDBRANCH   4   7
BRANCH   1  24
HETATM   24  C   UNL     1      -0.882   6.297 -30.453  1.00  0.00     0.256 C 
HETATM   25  N   UNL     1      -1.176   6.602 -29.135  1.00  0.00    -0.323 N 
HETATM   26  H   UNL     1      -2.064   6.291 -28.772  1.00  0.00     0.169 HD
HETATM   27  O   UNL     1       0.188   6.487 -31.021  1.00  0.00    -0.267 OA
BRANCH  25  28
HETATM   28  C   UNL     1      -0.360   7.284 -28.206  1.00  0.00     0.035 A 
HETATM   29  C   UNL     1       0.691   6.697 -27.503  1.00  0.00     0.030 A 
HETATM   30  C   UNL     1       1.461   7.455 -26.611  1.00  0.00     0.010 A 
HETATM   31  C   UNL     1       1.206   8.818 -26.415  1.00  0.00    -0.054 A 
HETATM   32  C   UNL     1       0.147   9.402 -27.120  1.00  0.00     0.010 A 
HETATM   33  C   UNL     1      -0.630   8.642 -28.001  1.00  0.00     0.030 A 
BRANCH  31  34
HETATM   34  C   UNL     1       2.036   9.662 -25.461  1.00  0.00     0.014 C 
HETATM   35  C   UNL     1       2.948   8.781 -24.595  1.00  0.00     0.015 C 
BRANCH  34  36
HETATM   36  C   UNL     1       1.171  10.575 -24.570  1.00  0.00     0.004 C 
HETATM   37  C   UNL     1       1.219  10.190 -23.096  1.00  0.00     0.006 C 
ENDBRANCH  34  36
ENDBRANCH  31  34
ENDBRANCH  25  28
ENDBRANCH   1  24
TORSDOF 8
ENDMDL
MODEL 6
REMARK VINA RESULT:      -8.4      3.405     11.087
REMARK  8 active torsions:
REMARK  status: ('A' for Active; 'I' for Inactive)
REMARK    1  A    between atoms: C_2  and  C_3 
REMARK    2  A    between atoms: C_3  and  C_4 
REMARK    3  A    between atoms: C_7  and  N_8 
REMARK       I    between atoms: N_8  and  C_9 
REMARK    4  A    between atoms: C_9  and  C_10 
REMARK    5  A    between atoms: C_13  and  N_14 
REMARK       I    between atoms: N_14  and  C_15 
REMARK    6  A    between atoms: C_15  and  C_16 
REMARK    7  A    between atoms: C_16  and  C_17 
REMARK    8  A    between atoms: C_19  and  N_20 
ROOT
HETATM    1  C   UNL     1      -2.727   5.780 -30.863  1.00  0.00     0.032 A 
HETATM    2  C   UNL     1      -2.292   4.601 -31.480  1.00  0.00     0.019 A 
HETATM    3  C   UNL     1      -3.219   3.688 -32.001  1.00  0.00     0.030 A 
HETATM    4  C   UNL     1      -4.591   3.920 -31.886  1.00  0.00     0.034 A 
HETATM    5  C   UNL     1      -5.027   5.077 -31.232  1.00  0.00     0.030 A 
HETATM    6  C   UNL     1      -4.103   6.006 -30.735  1.00  0.00     0.019 A 
ENDROOT
BRANCH   4   7
HETATM    7  N   UNL     1      -5.576   3.022 -32.351  1.00  0.00    -0.327 N 
HETATM    8  C   UNL     1      -6.526   2.384 -31.579  1.00  0.00     0.223 C 
HETATM    9  O   UNL     1      -6.591   2.444 -30.351  1.00  0.00    -0.273 OA
HETATM   10  H   UNL     1      -5.477   2.766 -33.323  1.00  0.00     0.169 HD
BRANCH   8  11
HETATM   11  C   UNL     1      -7.617   1.626 -32.329  1.00  0.00     0.128 C 
BRANCH  11  12
HETATM   12  C   UNL     1      -7.457   0.138 -32.605  1.00  0.00     0.158 A 
HETATM   13  S   UNL     1      -5.940  -0.637 -32.000  1.00  0.00    -0.077 SA
HETATM   14  C   UNL     1      -5.492  -1.105 -33.631  1.00  0.00     0.168 A 
HETATM   15  N   UNL     1      -6.329  -0.756 -34.554  1.00  0.00    -0.189 NA
HETATM   16  C   UNL     1      -7.469  -0.152 -34.088  1.00  0.00     0.260 A 
HETATM   17  O   UNL     1      -8.394   0.187 -34.815  1.00  0.00    -0.270 OA
BRANCH  14  18
HETATM   18  N   UNL     1      -4.294  -1.744 -33.875  1.00  0.00    -0.360 N 
HETATM   19  C   UNL     1      -3.215  -1.860 -32.886  1.00  0.00     0.125 C 
HETATM   20  C   UNL     1      -3.398  -3.153 -32.091  1.00  0.00     0.020 C 
HETATM   21  C   UNL     1      -3.456  -4.369 -33.020  1.00  0.00     0.003 C 
HETATM   22  C   UNL     1      -4.482  -4.171 -34.138  1.00  0.00     0.020 C 
HETATM   23  C   UNL     1      -4.258  -2.840 -34.858  1.00  0.00     0.125 C 
ENDBRANCH  14  18
ENDBRANCH  11  12
ENDBRANCH   8  11
ENDBRANCH   4   7
BRANCH   1  24
HETATM   24  C   UNL     1      -1.782   6.791 -30.289  1.00  0.00     0.256 C 
HETATM   25  N   UNL     1      -1.277   6.497 -29.034  1.00  0.00    -0.323 N 
HETATM   26  H   UNL     1      -1.501   5.595 -28.642  1.00  0.00     0.169 HD
HETATM   27  O   UNL     1      -1.517   7.780 -30.965  1.00  0.00    -0.267 OA
BRANCH  25  28
HETATM   28  C   UNL     1      -0.447   7.307 -28.228  1.00  0.00     0.035 A 
HETATM   29  C   UNL     1       0.823   7.743 -28.598  1.00  0.00     0.030 A 
HETATM   30  C   UNL     1       1.572   8.560 -27.740  1.00  0.00     0.010 A 
HETATM   31  C   UNL     1       1.061   8.969 -26.502  1.00  0.00    -0.054 A 
HETATM   32  C   UNL     1      -0.214   8.524 -26.133  1.00  0.00     0.010 A 
HETATM   33  C   UNL     1      -0.957   7.698 -26.984  1.00  0.00     0.030 A 
BRANCH  31  34
HETATM   34  C   UNL     1       1.851   9.863 -25.561  1.00  0.00     0.014 C 
HETATM   35  C   UNL     1       2.912   9.060 -24.796  1.00  0.00     0.015 C 
BRANCH  34  36
HETATM   36  C   UNL     1       0.949  10.633 -24.576  1.00  0.00     0.004 C 
HETATM   37  C   UNL     1       1.077  10.139 -23.140  1.00  0.00     0.006 C 
ENDBRANCH  34  36
ENDBRANCH  31  34
ENDBRANCH  25  28
ENDBRANCH   1  24
TORSDOF 8
ENDMDL
MODEL 7
REMARK VINA RESULT:      -8.3      6.136     12.766
REMARK  8 active torsions:
REMARK  status: ('A' for Active; 'I' for Inactive)
REMARK    1  A    between atoms: C_2  and  C_3 
REMARK    2  A    between atoms: C_3  and  C_4 
REMARK    3  A    between atoms: C_7  and  N_8 
REMARK       I    between atoms: N_8  and  C_9 
REMARK    4  A    between atoms: C_9  and  C_10 
REMARK    5  A    between atoms: C_13  and  N_14 
REMARK       I    between atoms: N_14  and  C_15 
REMARK    6  A    between atoms: C_15  and  C_16 
REMARK    7  A    between atoms: C_16  and  C_17 
REMARK    8  A    between atoms: C_19  and  N_20 
ROOT
HETATM    1  C   UNL     1       0.851   8.199 -26.561  1.00  0.00     0.032 A 
HETATM    2  C   UNL     1      -0.256   7.360 -26.389  1.00  0.00     0.019 A 
HETATM    3  C   UNL     1      -0.850   6.733 -27.492  1.00  0.00     0.030 A 
HETATM    4  C   UNL     1      -0.372   6.958 -28.784  1.00  0.00     0.034 A 
HETATM    5  C   UNL     1       0.707   7.830 -28.962  1.00  0.00     0.030 A 
HETATM    6  C   UNL     1       1.322   8.437 -27.859  1.00  0.00     0.019 A 
ENDROOT
BRANCH   4   7
HETATM    7  N   UNL     1      -0.951   6.391 -29.940  1.00  0.00    -0.327 N 
HETATM    8  C   UNL     1      -0.550   5.228 -30.566  1.00  0.00     0.223 C 
HETATM    9  O   UNL     1       0.436   4.563 -30.248  1.00  0.00    -0.273 OA
HETATM   10  H   UNL     1      -1.650   6.973 -30.381  1.00  0.00     0.169 HD
BRANCH   8  11
HETATM   11  C   UNL     1      -1.458   4.701 -31.672  1.00  0.00     0.128 C 
BRANCH  11  12
HETATM   12  C   UNL     1      -2.922   4.410 -31.381  1.00  0.00     0.158 A 
HETATM   13  S   UNL     1      -3.401   2.669 -31.309  1.00  0.00    -0.077 SA
HETATM   14  C   UNL     1      -4.539   2.895 -32.626  1.00  0.00     0.168 A 
HETATM   15  N   UNL     1      -4.600   4.097 -33.101  1.00  0.00    -0.189 NA
HETATM   16  C   UNL     1      -3.824   5.011 -32.435  1.00  0.00     0.260 A 
HETATM   17  O   UNL     1      -3.807   6.204 -32.710  1.00  0.00    -0.270 OA
BRANCH  14  18
HETATM   18  N   UNL     1      -5.253   1.827 -33.128  1.00  0.00    -0.360 N 
HETATM   19  C   UNL     1      -5.020   0.432 -32.736  1.00  0.00     0.125 C 
HETATM   20  C   UNL     1      -5.919   0.086 -31.548  1.00  0.00     0.020 C 
HETATM   21  C   UNL     1      -7.392   0.350 -31.876  1.00  0.00     0.003 C 
HETATM   22  C   UNL     1      -7.598   1.763 -32.427  1.00  0.00     0.020 C 
HETATM   23  C   UNL     1      -6.637   2.046 -33.583  1.00  0.00     0.125 C 
ENDBRANCH  14  18
ENDBRANCH  11  12
ENDBRANCH   8  11
ENDBRANCH   4   7
BRANCH   1  24
HETATM   24  C   UNL     1       1.527   8.896 -25.419  1.00  0.00     0.256 C 
HETATM   25  N   UNL     1       2.635   8.252 -24.895  1.00  0.00    -0.323 N 
HETATM   26  H   UNL     1       2.960   7.423 -25.369  1.00  0.00     0.169 HD
HETATM   27  O   UNL     1       1.070   9.972 -25.049  1.00  0.00    -0.267 OA
BRANCH  25  28
HETATM   28  C   UNL     1       3.400   8.633 -23.771  1.00  0.00     0.035 A 
HETATM   29  C   UNL     1       3.127   8.237 -22.463  1.00  0.00     0.030 A 
HETATM   30  C   UNL     1       3.951   8.649 -21.408  1.00  0.00     0.010 A 
HETATM   31  C   UNL     1       5.075   9.452 -21.640  1.00  0.00    -0.054 A 
HETATM   32  C   UNL     1       5.343   9.850 -22.955  1.00  0.00     0.010 A 
HETATM   33  C   UNL     1       4.513   9.450 -24.007  1.00  0.00     0.030 A 
BRANCH  31  34
HETATM   34  C   UNL     1       5.990   9.901 -20.512  1.00  0.00     0.014 C 
HETATM   35  C   UNL     1       6.291  11.403 -20.610  1.00  0.00     0.015 C 
BRANCH  34  36
HETATM   36  C   UNL     1       7.302   9.094 -20.455  1.00  0.00     0.004 C 
HETATM   37  C   UNL     1       7.178   7.810 -19.644  1.00  0.00     0.006 C 
ENDBRANCH  34  36
ENDBRANCH  31  34
ENDBRANCH  25  28
ENDBRANCH   1  24
TORSDOF 8
ENDMDL
MODEL 8
REMARK VINA RESULT:      -8.2      4.265     11.496
REMARK  8 active torsions:
REMARK  status: ('A' for Active; 'I' for Inactive)
REMARK    1  A    between atoms: C_2  and  C_3 
REMARK    2  A    between atoms: C_3  and  C_4 
REMARK    3  A    between atoms: C_7  and  N_8 
REMARK       I    between atoms: N_8  and  C_9 
REMARK    4  A    between atoms: C_9  and  C_10 
REMARK    5  A    between atoms: C_13  and  N_14 
REMARK       I    between atoms: N_14  and  C_15 
REMARK    6  A    between atoms: C_15  and  C_16 
REMARK    7  A    between atoms: C_16  and  C_17 
REMARK    8  A    between atoms: C_19  and  N_20 
ROOT
HETATM    1  C   UNL     1      -2.364   5.900 -30.780  1.00  0.00     0.032 A 
HETATM    2  C   UNL     1      -3.755   5.907 -30.619  1.00  0.00     0.019 A 
HETATM    3  C   UNL     1      -4.548   4.939 -31.250  1.00  0.00     0.030 A 
HETATM    4  C   UNL     1      -3.972   3.972 -32.075  1.00  0.00     0.034 A 
HETATM    5  C   UNL     1      -2.587   3.990 -32.271  1.00  0.00     0.030 A 
HETATM    6  C   UNL     1      -1.788   4.939 -31.620  1.00  0.00     0.019 A 
ENDROOT
BRANCH   4   7
HETATM    7  N   UNL     1      -4.718   2.997 -32.772  1.00  0.00    -0.327 N 
HETATM    8  C   UNL     1      -4.927   1.692 -32.373  1.00  0.00     0.223 C 
HETATM    9  O   UNL     1      -4.413   1.168 -31.384  1.00  0.00    -0.273 OA
HETATM   10  H   UNL     1      -5.020   3.286 -33.693  1.00  0.00     0.169 HD
BRANCH   8  11
HETATM   11  C   UNL     1      -5.940   0.886 -33.180  1.00  0.00     0.128 C 
BRANCH  11  12
HETATM   12  C   UNL     1      -6.981   1.602 -34.026  1.00  0.00     0.158 A 
HETATM   13  S   UNL     1      -8.189   2.611 -33.137  1.00  0.00    -0.077 SA
HETATM   14  C   UNL     1      -9.509   1.643 -33.769  1.00  0.00     0.168 A 
HETATM   15  N   UNL     1      -9.157   0.675 -34.552  1.00  0.00    -0.189 NA
HETATM   16  C   UNL     1      -7.813   0.622 -34.821  1.00  0.00     0.260 A 
HETATM   17  O   UNL     1      -7.314  -0.190 -35.590  1.00  0.00    -0.270 OA
BRANCH  14  18
HETATM   18  N   UNL     1     -10.810   1.894 -33.386  1.00  0.00    -0.360 N 
HETATM   19  C   UNL     1     -11.330   3.235 -33.089  1.00  0.00     0.125 C 
HETATM   20  C   UNL     1     -11.908   3.844 -34.367  1.00  0.00     0.020 C 
HETATM   21  C   UNL     1     -12.981   2.935 -34.976  1.00  0.00     0.003 C 
HETATM   22  C   UNL     1     -12.473   1.501 -35.140  1.00  0.00     0.020 C 
HETATM   23  C   UNL     1     -11.874   0.979 -33.833  1.00  0.00     0.125 C 
ENDBRANCH  14  18
ENDBRANCH  11  12
ENDBRANCH   8  11
ENDBRANCH   4   7
BRANCH   1  24
HETATM   24  C   UNL     1      -1.467   6.909 -30.130  1.00  0.00     0.256 C 
HETATM   25  N   UNL     1      -1.034   6.593 -28.854  1.00  0.00    -0.323 N 
HETATM   26  H   UNL     1      -1.270   5.681 -28.495  1.00  0.00     0.169 HD
HETATM   27  O   UNL     1      -1.174   7.914 -30.769  1.00  0.00    -0.267 OA
BRANCH  25  28
HETATM   28  C   UNL     1      -0.263   7.394 -27.983  1.00  0.00     0.035 A 
HETATM   29  C   UNL     1       1.015   7.868 -28.276  1.00  0.00     0.030 A 
HETATM   30  C   UNL     1       1.702   8.672 -27.357  1.00  0.00     0.010 A 
HETATM   31  C   UNL     1       1.121   9.031 -26.135  1.00  0.00    -0.054 A 
HETATM   32  C   UNL     1      -0.160   8.549 -25.844  1.00  0.00     0.010 A 
HETATM   33  C   UNL     1      -0.842   7.736 -26.755  1.00  0.00     0.030 A 
BRANCH  31  34
HETATM   34  C   UNL     1       1.845   9.912 -25.129  1.00  0.00     0.014 C 
HETATM   35  C   UNL     1       3.120   9.230 -24.614  1.00  0.00     0.015 C 
BRANCH  34  36
HETATM   36  C   UNL     1       0.945  10.327 -23.947  1.00  0.00     0.004 C 
HETATM   37  C   UNL     1       1.630  10.176 -22.595  1.00  0.00     0.006 C 
ENDBRANCH  34  36
ENDBRANCH  31  34
ENDBRANCH  25  28
ENDBRANCH   1  24
TORSDOF 8
ENDMDL
MODEL 9
REMARK VINA RESULT:      -8.1      2.096      2.668
REMARK  8 active torsions:
REMARK  status: ('A' for Active; 'I' for Inactive)
REMARK    1  A    between atoms: C_2  and  C_3 
REMARK    2  A    between atoms: C_3  and  C_4 
REMARK    3  A    between atoms: C_7  and  N_8 
REMARK       I    between atoms: N_8  and  C_9 
REMARK    4  A    between atoms: C_9  and  C_10 
REMARK    5  A    between atoms: C_13  and  N_14 
REMARK       I    between atoms: N_14  and  C_15 
REMARK    6  A    between atoms: C_15  and  C_16 
REMARK    7  A    between atoms: C_16  and  C_17 
REMARK    8  A    between atoms: C_19  and  N_20 
ROOT
HETATM    1  C   UNL     1      -5.765   4.630 -31.915  1.00  0.00     0.032 A 
HETATM    2  C   UNL     1      -4.765   5.030 -31.020  1.00  0.00     0.019 A 
HETATM    3  C   UNL     1      -4.978   6.112 -30.155  1.00  0.00     0.030 A 
HETATM    4  C   UNL     1      -6.174   6.831 -30.193  1.00  0.00     0.034 A 
HETATM    5  C   UNL     1      -7.156   6.460 -31.116  1.00  0.00     0.030 A 
HETATM    6  C   UNL     1      -6.959   5.361 -31.963  1.00  0.00     0.019 A 
ENDROOT
BRANCH   4   7
HETATM    7  N   UNL     1      -6.433   7.956 -29.380  1.00  0.00    -0.327 N 
HETATM    8  C   UNL     1      -7.044   7.943 -28.142  1.00  0.00     0.223 C 
HETATM    9  O   UNL     1      -7.531   6.945 -27.609  1.00  0.00    -0.273 OA
HETATM   10  H   UNL     1      -6.237   8.843 -29.824  1.00  0.00     0.169 HD
BRANCH   8  11
HETATM   11  C   UNL     1      -7.026   9.251 -27.358  1.00  0.00     0.128 C 
BRANCH  11  12
HETATM   12  C   UNL     1      -5.700   9.895 -26.983  1.00  0.00     0.158 A 
HETATM   13  S   UNL     1      -4.770  10.670 -28.326  1.00  0.00    -0.077 SA
HETATM   14  C   UNL     1      -3.410   9.597 -28.046  1.00  0.00     0.168 A 
HETATM   15  N   UNL     1      -3.569   8.746 -27.084  1.00  0.00    -0.189 NA
HETATM   16  C   UNL     1      -4.745   8.885 -26.391  1.00  0.00     0.260 A 
HETATM   17  O   UNL     1      -5.031   8.205 -25.413  1.00  0.00    -0.270 OA
BRANCH  14  18
HETATM   18  N   UNL     1      -2.295   9.650 -28.855  1.00  0.00    -0.360 N 
HETATM   19  C   UNL     1      -1.119   8.788 -28.682  1.00  0.00     0.125 C 
HETATM   20  C   UNL     1      -1.296   7.522 -29.522  1.00  0.00     0.020 C 
HETATM   21  C   UNL     1      -1.543   7.866 -30.994  1.00  0.00     0.003 C 
HETATM   22  C   UNL     1      -2.676   8.883 -31.149  1.00  0.00     0.020 C 
HETATM   23  C   UNL     1      -2.447  10.099 -30.250  1.00  0.00     0.125 C 
ENDBRANCH  14  18
ENDBRANCH  11  12
ENDBRANCH   8  11
ENDBRANCH   4   7
BRANCH   1  24
HETATM   24  C   UNL     1      -5.594   3.481 -32.862  1.00  0.00     0.256 C 
HETATM   25  N   UNL     1      -6.186   2.291 -32.475  1.00  0.00    -0.323 N 
HETATM   26  H   UNL     1      -6.760   2.305 -31.645  1.00  0.00     0.169 HD
HETATM   27  O   UNL     1      -4.968   3.677 -33.898  1.00  0.00    -0.267 OA
BRANCH  25  28
HETATM   28  C   UNL     1      -6.109   1.040 -33.123  1.00  0.00     0.035 A 
HETATM   29  C   UNL     1      -6.846   0.693 -34.254  1.00  0.00     0.030 A 
HETATM   30  C   UNL     1      -6.693  -0.569 -34.844  1.00  0.00     0.010 A 
HETATM   31  C   UNL     1      -5.790  -1.505 -34.324  1.00  0.00    -0.054 A 
HETATM   32  C   UNL     1      -5.055  -1.154 -33.185  1.00  0.00     0.010 A 
HETATM   33  C   UNL     1      -5.217   0.102 -32.589  1.00  0.00     0.030 A 
BRANCH  31  34
HETATM   34  C   UNL     1      -5.600  -2.875 -34.954  1.00  0.00     0.014 C 
HETATM   35  C   UNL     1      -6.855  -3.742 -34.780  1.00  0.00     0.015 C 
BRANCH  34  36
HETATM   36  C   UNL     1      -4.361  -3.612 -34.410  1.00  0.00     0.004 C 
HETATM   37  C   UNL     1      -4.600  -5.101 -34.193  1.00  0.00     0.006 C 
ENDBRANCH  34  36
ENDBRANCH  31  34
ENDBRANCH  25  28
ENDBRANCH   1  24
TORSDOF 8
ENDMDL
MODEL 10
REMARK VINA RESULT:      -8.1      4.147      6.174
REMARK  8 active torsions:
REMARK  status: ('A' for Active; 'I' for Inactive)
REMARK    1  A    between atoms: C_2  and  C_3 
REMARK    2  A    between atoms: C_3  and  C_4 
REMARK    3  A    between atoms: C_7  and  N_8 
REMARK       I    between atoms: N_8  and  C_9 
REMARK    4  A    between atoms: C_9  and  C_10 
REMARK    5  A    between atoms: C_13  and  N_14 
REMARK       I    between atoms: N_14  and  C_15 
REMARK    6  A    between atoms: C_15  and  C_16 
REMARK    7  A    between atoms: C_16  and  C_17 
REMARK    8  A    between atoms: C_19  and  N_20 
ROOT
HETATM    1  C   UNL     1      -6.149   2.518 -31.854  1.00  0.00     0.032 A 
HETATM    2  C   UNL     1      -4.997   1.776 -32.139  1.00  0.00     0.019 A 
HETATM    3  C   UNL     1      -3.727   2.345 -31.974  1.00  0.00     0.030 A 
HETATM    4  C   UNL     1      -3.587   3.669 -31.555  1.00  0.00     0.034 A 
HETATM    5  C   UNL     1      -4.739   4.425 -31.311  1.00  0.00     0.030 A 
HETATM    6  C   UNL     1      -6.009   3.851 -31.447  1.00  0.00     0.019 A 
ENDROOT
BRANCH   4   7
HETATM    7  N   UNL     1      -2.340   4.314 -31.410  1.00  0.00    -0.327 N 
HETATM    8  C   UNL     1      -1.537   4.776 -32.434  1.00  0.00     0.223 C 
HETATM    9  O   UNL     1      -1.761   4.608 -33.633  1.00  0.00    -0.273 OA
HETATM   10  H   UNL     1      -1.986   4.325 -30.463  1.00  0.00     0.169 HD
BRANCH   8  11
HETATM   11  C   UNL     1      -0.338   5.627 -32.030  1.00  0.00     0.128 C 
BRANCH  11  12
HETATM   12  C   UNL     1      -0.533   7.088 -31.657  1.00  0.00     0.158 A 
HETATM   13  S   UNL     1      -1.204   7.419 -30.012  1.00  0.00    -0.077 SA
HETATM   14  C   UNL     1      -2.587   8.245 -30.708  1.00  0.00     0.168 A 
HETATM   15  N   UNL     1      -2.602   8.301 -32.001  1.00  0.00    -0.189 NA
HETATM   16  C   UNL     1      -1.488   7.777 -32.605  1.00  0.00     0.260 A 
HETATM   17  O   UNL     1      -1.307   7.801 -33.816  1.00  0.00    -0.270 OA
BRANCH  14  18
HETATM   18  N   UNL     1      -3.594   8.732 -29.901  1.00  0.00    -0.360 N 
HETATM   19  C   UNL     1      -4.893   9.195 -30.406  1.00  0.00     0.125 C 
HETATM   20  C   UNL     1      -5.876   8.023 -30.411  1.00  0.00     0.020 C 
HETATM   21  C   UNL     1      -5.993   7.394 -29.020  1.00  0.00     0.003 C 
HETATM   22  C   UNL     1      -4.618   7.054 -28.441  1.00  0.00     0.020 C 
HETATM   23  C   UNL     1      -3.682   8.262 -28.508  1.00  0.00     0.125 C 
ENDBRANCH  14  18
ENDBRANCH  11  12
ENDBRANCH   8  11
ENDBRANCH   4   7
BRANCH   1  24
HETATM   24  C   UNL     1      -7.532   1.961 -32.011  1.00  0.00     0.256 C 
HETATM   25  N   UNL     1      -8.438   2.780 -32.662  1.00  0.00    -0.323 N 
HETATM   26  H   UNL     1      -8.087   3.638 -33.061  1.00  0.00     0.169 HD
HETATM   27  O   UNL     1      -7.753   0.837 -31.575  1.00  0.00    -0.267 OA
BRANCH  25  28
HETATM   28  C   UNL     1      -9.816   2.550 -32.866  1.00  0.00     0.035 A 
HETATM   29  C   UNL     1     -10.335   1.469 -33.574  1.00  0.00     0.030 A 
HETATM   30  C   UNL     1     -11.720   1.308 -33.713  1.00  0.00     0.010 A 
HETATM   31  C   UNL     1     -12.615   2.217 -33.134  1.00  0.00    -0.054 A 
HETATM   32  C   UNL     1     -12.088   3.304 -32.427  1.00  0.00     0.010 A 
HETATM   33  C   UNL     1     -10.705   3.471 -32.299  1.00  0.00     0.030 A 
BRANCH  31  34
HETATM   34  C   UNL     1     -14.121   2.056 -33.263  1.00  0.00     0.014 C 
HETATM   35  C   UNL     1     -14.842   2.585 -32.015  1.00  0.00     0.015 C 
BRANCH  34  36
HETATM   36  C   UNL     1     -14.540   0.601 -33.547  1.00  0.00     0.004 C 
HETATM   37  C   UNL     1     -15.578   0.484 -34.657  1.00  0.00     0.006 C 
ENDBRANCH  34  36
ENDBRANCH  31  34
ENDBRANCH  25  28
ENDBRANCH   1  24
TORSDOF 8
ENDMDL
