MODEL 1
REMARK VINA RESULT:      -9.3      0.000      0.000
REMARK  5 active torsions:
REMARK  status: ('A' for Active; 'I' for Inactive)
REMARK    1  A    between atoms: C_8  and  C_9 
REMARK    2  A    between atoms: C_9  and  C_10 
REMARK       I    between atoms: C_10  and  N_11 
REMARK    3  A    between atoms: N_11  and  N_12 
REMARK       I    between atoms: N_12  and  C_13 
REMARK    4  A    between atoms: C_13  and  C_14 
REMARK    5  A    between atoms: C_16  and  C_17 
ROOT
HETATM    1  C   UNL     1      -2.185   5.279 -34.101  1.00  0.00     0.240 C 
HETATM    2  N   UNL     1      -2.478   4.506 -32.990  1.00  0.00    -0.267 N 
HETATM    3  O   UNL     1      -2.812   5.196 -35.157  1.00  0.00    -0.272 OA
HETATM    4  H   UNL     1      -1.784   4.351 -32.260  1.00  0.00     0.190 HD
ENDROOT
BRANCH   2   5
HETATM    5  N   UNL     1      -3.498   3.560 -33.081  1.00  0.00    -0.263 N 
HETATM    6  C   UNL     1      -3.570   2.572 -32.122  1.00  0.00     0.270 C 
HETATM    7  O   UNL     1      -2.735   2.417 -31.237  1.00  0.00    -0.266 OA
HETATM    8  H   UNL     1      -4.023   3.526 -33.953  1.00  0.00     0.190 HD
BRANCH   6   9
HETATM    9  C   UNL     1      -4.765   1.701 -32.206  1.00  0.00     0.034 A 
HETATM   10  C   UNL     1      -4.683   0.470 -32.871  1.00  0.00     0.029 A 
HETATM   11  C   UNL     1      -5.823  -0.326 -33.034  1.00  0.00    -0.023 A 
HETATM   12  C   UNL     1      -7.039   0.120 -32.492  1.00  0.00     0.012 A 
HETATM   13  C   UNL     1      -7.118   1.352 -31.831  1.00  0.00     0.002 A 
HETATM   14  C   UNL     1      -5.985   2.152 -31.700  1.00  0.00     0.017 A 
BRANCH  11  15
HETATM   15  C   UNL     1      -5.733  -1.573 -33.777  1.00  0.00    -0.002 A 
HETATM   16  C   UNL     1      -4.566  -2.286 -33.974  1.00  0.00     0.153 A 
HETATM   17  O   UNL     1      -4.806  -3.430 -34.666  1.00  0.00    -0.334 OA
HETATM   18  C   UNL     1      -6.139  -3.465 -34.916  1.00  0.00     0.142 A 
HETATM   19  C   UNL     1      -6.755  -2.354 -34.390  1.00  0.00     0.038 A 
ENDBRANCH  11  15
ENDBRANCH   6   9
ENDBRANCH   2   5
BRANCH   1  20
HETATM   20  C   UNL     1      -1.117   6.318 -33.837  1.00  0.00     0.145 C 
BRANCH  20  21
HETATM   21  C   UNL     1      -1.063   6.896 -32.459  1.00  0.00    -0.021 A 
HETATM   22  C   UNL     1      -0.421   6.405 -31.269  1.00  0.00    -0.001 A 
HETATM   23  C   UNL     1       0.418   5.313 -30.960  1.00  0.00     0.014 A 
HETATM   24  C   UNL     1      -0.790   7.253 -30.219  1.00  0.00     0.042 A 
HETATM   25  C   UNL     1       0.839   5.103 -29.639  1.00  0.00     0.001 A 
HETATM   26  C   UNL     1       0.438   5.961 -28.620  1.00  0.00     0.002 A 
HETATM   27  C   UNL     1      -0.383   7.056 -28.894  1.00  0.00     0.030 A 
HETATM   28  N   UNL     1      -1.584   8.240 -30.748  1.00  0.00    -0.365 N 
HETATM   29  H   UNL     1      -1.994   8.992 -30.213  1.00  0.00     0.165 HD
HETATM   30  C   UNL     1      -1.760   8.034 -32.087  1.00  0.00     0.097 A 
ENDBRANCH  20  21
ENDBRANCH   1  20
TORSDOF 5
ENDMDL
MODEL 2
REMARK VINA RESULT:      -9.2      2.190      9.320
REMARK  5 active torsions:
REMARK  status: ('A' for Active; 'I' for Inactive)
REMARK    1  A    between atoms: C_8  and  C_9 
REMARK    2  A    between atoms: C_9  and  C_10 
REMARK       I    between atoms: C_10  and  N_11 
REMARK    3  A    between atoms: N_11  and  N_12 
REMARK       I    between atoms: N_12  and  C_13 
REMARK    4  A    between atoms: C_13  and  C_14 
REMARK    5  A    between atoms: C_16  and  C_17 
ROOT
HETATM    1  C   UNL     1      -3.916   0.873 -30.945  1.00  0.00     0.240 C 
HETATM    2  N   UNL     1      -4.216   2.224 -30.889  1.00  0.00    -0.267 N 
HETATM    3  O   UNL     1      -2.767   0.448 -31.062  1.00  0.00    -0.272 OA
HETATM    4  H   UNL     1      -5.151   2.564 -31.110  1.00  0.00     0.190 HD
ENDROOT
BRANCH   2   5
HETATM    5  N   UNL     1      -3.179   3.147 -31.016  1.00  0.00    -0.263 N 
HETATM    6  C   UNL     1      -3.116   3.918 -32.157  1.00  0.00     0.270 C 
HETATM    7  O   UNL     1      -3.868   3.781 -33.116  1.00  0.00    -0.266 OA
HETATM    8  H   UNL     1      -2.409   3.074 -30.353  1.00  0.00     0.190 HD
BRANCH   6   9
HETATM    9  C   UNL     1      -2.078   4.973 -32.146  1.00  0.00     0.034 A 
HETATM   10  C   UNL     1      -1.429   5.298 -30.946  1.00  0.00     0.029 A 
HETATM   11  C   UNL     1      -0.507   6.350 -30.900  1.00  0.00    -0.023 A 
HETATM   12  C   UNL     1      -0.226   7.051 -32.082  1.00  0.00     0.012 A 
HETATM   13  C   UNL     1      -0.877   6.727 -33.279  1.00  0.00     0.002 A 
HETATM   14  C   UNL     1      -1.816   5.698 -33.309  1.00  0.00     0.017 A 
BRANCH  11  15
HETATM   15  C   UNL     1       0.113   6.711 -29.634  1.00  0.00    -0.002 A 
HETATM   16  C   UNL     1       0.503   5.807 -28.666  1.00  0.00     0.153 A 
HETATM   17  O   UNL     1       1.092   6.440 -27.619  1.00  0.00    -0.334 OA
HETATM   18  C   UNL     1       1.093   7.765 -27.910  1.00  0.00     0.142 A 
HETATM   19  C   UNL     1       0.508   7.986 -29.135  1.00  0.00     0.038 A 
ENDBRANCH  11  15
ENDBRANCH   6   9
ENDBRANCH   2   5
BRANCH   1  20
HETATM   20  C   UNL     1      -5.121  -0.012 -30.711  1.00  0.00     0.145 C 
BRANCH  20  21
HETATM   21  C   UNL     1      -5.867  -0.473 -31.921  1.00  0.00    -0.021 A 
HETATM   22  C   UNL     1      -5.488  -1.407 -32.948  1.00  0.00    -0.001 A 
HETATM   23  C   UNL     1      -4.386  -2.260 -33.171  1.00  0.00     0.014 A 
HETATM   24  C   UNL     1      -6.489  -1.378 -33.924  1.00  0.00     0.042 A 
HETATM   25  C   UNL     1      -4.318  -3.028 -34.342  1.00  0.00     0.001 A 
HETATM   26  C   UNL     1      -5.328  -2.961 -35.296  1.00  0.00     0.002 A 
HETATM   27  C   UNL     1      -6.436  -2.135 -35.102  1.00  0.00     0.030 A 
HETATM   28  N   UNL     1      -7.456  -0.502 -33.496  1.00  0.00    -0.365 N 
HETATM   29  H   UNL     1      -8.300  -0.286 -34.008  1.00  0.00     0.165 HD
HETATM   30  C   UNL     1      -7.092   0.051 -32.302  1.00  0.00     0.097 A 
ENDBRANCH  20  21
ENDBRANCH   1  20
TORSDOF 5
ENDMDL
MODEL 3
REMARK VINA RESULT:      -9.0      2.323      9.085
REMARK  5 active torsions:
REMARK  status: ('A' for Active; 'I' for Inactive)
REMARK    1  A    between atoms: C_8  and  C_9 
REMARK    2  A    between atoms: C_9  and  C_10 
REMARK       I    between atoms: C_10  and  N_11 
REMARK    3  A    between atoms: N_11  and  N_12 
REMARK       I    between atoms: N_12  and  C_13 
REMARK    4  A    between atoms: C_13  and  C_14 
REMARK    5  A    between atoms: C_16  and  C_17 
ROOT
HETATM    1  C   UNL     1      -3.440   0.350 -31.102  1.00  0.00     0.240 C 
HETATM    2  N   UNL     1      -3.869   1.667 -31.108  1.00  0.00    -0.267 N 
HETATM    3  O   UNL     1      -2.253   0.034 -31.170  1.00  0.00    -0.272 OA
HETATM    4  H   UNL     1      -4.825   1.907 -31.368  1.00  0.00     0.190 HD
ENDROOT
BRANCH   2   5
HETATM    5  N   UNL     1      -2.921   2.681 -31.240  1.00  0.00    -0.263 N 
HETATM    6  C   UNL     1      -3.086   3.612 -32.244  1.00  0.00     0.270 C 
HETATM    7  O   UNL     1      -3.972   3.555 -33.090  1.00  0.00    -0.266 OA
HETATM    8  H   UNL     1      -2.053   2.575 -30.718  1.00  0.00     0.190 HD
BRANCH   6   9
HETATM    9  C   UNL     1      -2.123   4.736 -32.221  1.00  0.00     0.034 A 
HETATM   10  C   UNL     1      -1.491   5.087 -31.020  1.00  0.00     0.029 A 
HETATM   11  C   UNL     1      -0.643   6.199 -30.962  1.00  0.00    -0.023 A 
HETATM   12  C   UNL     1      -0.417   6.935 -32.136  1.00  0.00     0.012 A 
HETATM   13  C   UNL     1      -1.052   6.585 -33.334  1.00  0.00     0.002 A 
HETATM   14  C   UNL     1      -1.918   5.494 -33.375  1.00  0.00     0.017 A 
BRANCH  11  15
HETATM   15  C   UNL     1      -0.041   6.584 -29.695  1.00  0.00    -0.002 A 
HETATM   16  C   UNL     1       0.550   5.704 -28.809  1.00  0.00     0.153 A 
HETATM   17  O   UNL     1       1.062   6.364 -27.738  1.00  0.00    -0.334 OA
HETATM   18  C   UNL     1       0.808   7.682 -27.930  1.00  0.00     0.142 A 
HETATM   19  C   UNL     1       0.138   7.873 -29.116  1.00  0.00     0.038 A 
ENDBRANCH  11  15
ENDBRANCH   6   9
ENDBRANCH   2   5
BRANCH   1  20
HETATM   20  C   UNL     1      -4.562  -0.638 -30.868  1.00  0.00     0.145 C 
BRANCH  20  21
HETATM   21  C   UNL     1      -5.917  -0.255 -31.371  1.00  0.00    -0.021 A 
HETATM   22  C   UNL     1      -6.445  -0.252 -32.709  1.00  0.00    -0.001 A 
HETATM   23  C   UNL     1      -5.969  -0.654 -33.976  1.00  0.00     0.014 A 
HETATM   24  C   UNL     1      -7.719   0.322 -32.651  1.00  0.00     0.042 A 
HETATM   25  C   UNL     1      -6.761  -0.459 -35.117  1.00  0.00     0.001 A 
HETATM   26  C   UNL     1      -8.017   0.130 -35.019  1.00  0.00     0.002 A 
HETATM   27  C   UNL     1      -8.521   0.528 -33.780  1.00  0.00     0.030 A 
HETATM   28  N   UNL     1      -7.976   0.618 -31.335  1.00  0.00    -0.365 N 
HETATM   29  H   UNL     1      -8.829   1.043 -31.000  1.00  0.00     0.165 HD
HETATM   30  C   UNL     1      -6.903   0.283 -30.560  1.00  0.00     0.097 A 
ENDBRANCH  20  21
ENDBRANCH   1  20
TORSDOF 5
ENDMDL
MODEL 4
REMARK VINA RESULT:      -9.0      6.485     10.331
REMARK  5 active torsions:
REMARK  status: ('A' for Active; 'I' for Inactive)
REMARK    1  A    between atoms: C_8  and  C_9 
REMARK    2  A    between atoms: C_9  and  C_10 
REMARK       I    between atoms: C_10  and  N_11 
REMARK    3  A    between atoms: N_11  and  N_12 
REMARK       I    between atoms: N_12  and  C_13 
REMARK    4  A    between atoms: C_13  and  C_14 
REMARK    5  A    between atoms: C_16  and  C_17 
ROOT
HETATM    1  C   UNL     1      -8.590   0.566 -34.045  1.00  0.00     0.240 C 
HETATM    2  N   UNL     1      -9.296   1.625 -34.591  1.00  0.00    -0.267 N 
HETATM    3  O   UNL     1      -8.690   0.234 -32.865  1.00  0.00    -0.272 OA
HETATM    4  H   UNL     1      -8.982   2.081 -35.446  1.00  0.00     0.190 HD
ENDROOT
BRANCH   2   5
HETATM    5  N   UNL     1     -10.124   2.378 -33.760  1.00  0.00    -0.263 N 
HETATM    6  C   UNL     1     -11.488   2.193 -33.842  1.00  0.00     0.270 C 
HETATM    7  O   UNL     1     -12.030   1.466 -34.667  1.00  0.00    -0.266 OA
HETATM    8  H   UNL     1      -9.699   3.166 -33.273  1.00  0.00     0.190 HD
BRANCH   6   9
HETATM    9  C   UNL     1     -12.282   2.920 -32.826  1.00  0.00     0.034 A 
HETATM   10  C   UNL     1     -13.680   2.810 -32.827  1.00  0.00     0.029 A 
HETATM   11  C   UNL     1     -14.452   3.556 -31.929  1.00  0.00    -0.023 A 
HETATM   12  C   UNL     1     -13.797   4.391 -31.010  1.00  0.00     0.012 A 
HETATM   13  C   UNL     1     -12.401   4.500 -31.012  1.00  0.00     0.002 A 
HETATM   14  C   UNL     1     -11.642   3.777 -31.931  1.00  0.00     0.017 A 
BRANCH  11  15
HETATM   15  C   UNL     1     -15.903   3.475 -31.983  1.00  0.00    -0.002 A 
HETATM   16  C   UNL     1     -16.618   2.302 -32.128  1.00  0.00     0.153 A 
HETATM   17  O   UNL     1     -17.955   2.540 -32.098  1.00  0.00    -0.334 OA
HETATM   18  C   UNL     1     -18.112   3.876 -31.925  1.00  0.00     0.142 A 
HETATM   19  C   UNL     1     -16.887   4.496 -31.844  1.00  0.00     0.038 A 
ENDBRANCH  11  15
ENDBRANCH   6   9
ENDBRANCH   2   5
BRANCH   1  20
HETATM   20  C   UNL     1      -7.799  -0.213 -35.074  1.00  0.00     0.145 C 
BRANCH  20  21
HETATM   21  C   UNL     1      -6.509  -0.817 -34.620  1.00  0.00    -0.021 A 
HETATM   22  C   UNL     1      -6.064  -2.185 -34.644  1.00  0.00    -0.001 A 
HETATM   23  C   UNL     1      -6.583  -3.400 -35.140  1.00  0.00     0.014 A 
HETATM   24  C   UNL     1      -4.835  -2.233 -33.977  1.00  0.00     0.042 A 
HETATM   25  C   UNL     1      -5.878  -4.596 -34.945  1.00  0.00     0.001 A 
HETATM   26  C   UNL     1      -4.666  -4.604 -34.263  1.00  0.00     0.002 A 
HETATM   27  C   UNL     1      -4.120  -3.419 -33.769  1.00  0.00     0.030 A 
HETATM   28  N   UNL     1      -4.522  -0.950 -33.600  1.00  0.00    -0.365 N 
HETATM   29  H   UNL     1      -3.685  -0.690 -33.099  1.00  0.00     0.165 HD
HETATM   30  C   UNL     1      -5.519  -0.095 -33.973  1.00  0.00     0.097 A 
ENDBRANCH  20  21
ENDBRANCH   1  20
TORSDOF 5
ENDMDL
MODEL 5
REMARK VINA RESULT:      -9.0      2.296      9.514
REMARK  5 active torsions:
REMARK  status: ('A' for Active; 'I' for Inactive)
REMARK    1  A    between atoms: C_8  and  C_9 
REMARK    2  A    between atoms: C_9  and  C_10 
REMARK       I    between atoms: C_10  and  N_11 
REMARK    3  A    between atoms: N_11  and  N_12 
REMARK       I    between atoms: N_12  and  C_13 
REMARK    4  A    between atoms: C_13  and  C_14 
REMARK    5  A    between atoms: C_16  and  C_17 
ROOT
HETATM    1  C   UNL     1      -6.025   1.788 -33.385  1.00  0.00     0.240 C 
HETATM    2  N   UNL     1      -5.301   2.206 -32.281  1.00  0.00    -0.267 N 
HETATM    3  O   UNL     1      -6.111   2.452 -34.418  1.00  0.00    -0.272 OA
HETATM    4  H   UNL     1      -5.490   1.826 -31.354  1.00  0.00     0.190 HD
ENDROOT
BRANCH   2   5
HETATM    5  N   UNL     1      -4.677   3.452 -32.320  1.00  0.00    -0.263 N 
HETATM    6  C   UNL     1      -3.355   3.541 -31.942  1.00  0.00     0.270 C 
HETATM    7  O   UNL     1      -2.710   2.603 -31.486  1.00  0.00    -0.266 OA
HETATM    8  H   UNL     1      -5.277   4.267 -32.438  1.00  0.00     0.190 HD
BRANCH   6   9
HETATM    9  C   UNL     1      -2.728   4.866 -32.155  1.00  0.00     0.034 A 
HETATM   10  C   UNL     1      -2.000   5.465 -31.118  1.00  0.00     0.029 A 
HETATM   11  C   UNL     1      -1.474   6.753 -31.272  1.00  0.00    -0.023 A 
HETATM   12  C   UNL     1      -1.666   7.417 -32.493  1.00  0.00     0.012 A 
HETATM   13  C   UNL     1      -2.397   6.818 -33.527  1.00  0.00     0.002 A 
HETATM   14  C   UNL     1      -2.943   5.548 -33.353  1.00  0.00     0.017 A 
BRANCH  11  15
HETATM   15  C   UNL     1      -0.771   7.383 -30.165  1.00  0.00    -0.002 A 
HETATM   16  C   UNL     1      -1.297   8.381 -29.368  1.00  0.00     0.153 A 
HETATM   17  O   UNL     1      -0.421   8.735 -28.391  1.00  0.00    -0.334 OA
HETATM   18  C   UNL     1       0.678   7.957 -28.549  1.00  0.00     0.142 A 
HETATM   19  C   UNL     1       0.516   7.108 -29.618  1.00  0.00     0.038 A 
ENDBRANCH  11  15
ENDBRANCH   6   9
ENDBRANCH   2   5
BRANCH   1  20
HETATM   20  C   UNL     1      -6.576   0.386 -33.237  1.00  0.00     0.145 C 
BRANCH  20  21
HETATM   21  C   UNL     1      -5.624  -0.743 -33.470  1.00  0.00    -0.021 A 
HETATM   22  C   UNL     1      -5.854  -2.057 -34.009  1.00  0.00    -0.001 A 
HETATM   23  C   UNL     1      -6.960  -2.732 -34.569  1.00  0.00     0.014 A 
HETATM   24  C   UNL     1      -4.658  -2.770 -33.887  1.00  0.00     0.042 A 
HETATM   25  C   UNL     1      -6.838  -4.071 -34.966  1.00  0.00     0.001 A 
HETATM   26  C   UNL     1      -5.634  -4.751 -34.814  1.00  0.00     0.002 A 
HETATM   27  C   UNL     1      -4.519  -4.110 -34.273  1.00  0.00     0.030 A 
HETATM   28  N   UNL     1      -3.728  -1.922 -33.338  1.00  0.00    -0.365 N 
HETATM   29  H   UNL     1      -2.771  -2.175 -33.137  1.00  0.00     0.165 HD
HETATM   30  C   UNL     1      -4.296  -0.708 -33.078  1.00  0.00     0.097 A 
ENDBRANCH  20  21
ENDBRANCH   1  20
TORSDOF 5
ENDMDL
MODEL 6
REMARK VINA RESULT:      -8.8      2.371      9.649
REMARK  5 active torsions:
REMARK  status: ('A' for Active; 'I' for Inactive)
REMARK    1  A    between atoms: C_8  and  C_9 
REMARK    2  A    between atoms: C_9  and  C_10 
REMARK       I    between atoms: C_10  and  N_11 
REMARK    3  A    between atoms: N_11  and  N_12 
REMARK       I    between atoms: N_12  and  C_13 
REMARK    4  A    between atoms: C_13  and  C_14 
REMARK    5  A    between atoms: C_16  and  C_17 
ROOT
HETATM    1  C   UNL     1      -3.406   0.814 -31.127  1.00  0.00     0.240 C 
HETATM    2  N   UNL     1      -3.864   2.112 -31.275  1.00  0.00    -0.267 N 
HETATM    3  O   UNL     1      -2.233   0.545 -30.869  1.00  0.00    -0.272 OA
HETATM    4  H   UNL     1      -4.724   2.311 -31.786  1.00  0.00     0.190 HD
ENDROOT
BRANCH   2   5
HETATM    5  N   UNL     1      -2.952   3.161 -31.173  1.00  0.00    -0.263 N 
HETATM    6  C   UNL     1      -2.710   3.937 -32.287  1.00  0.00     0.270 C 
HETATM    7  O   UNL     1      -3.182   3.707 -33.395  1.00  0.00    -0.266 OA
HETATM    8  H   UNL     1      -2.365   3.186 -30.341  1.00  0.00     0.190 HD
BRANCH   6   9
HETATM    9  C   UNL     1      -1.847   5.117 -32.054  1.00  0.00     0.034 A 
HETATM   10  C   UNL     1      -1.498   5.477 -30.744  1.00  0.00     0.029 A 
HETATM   11  C   UNL     1      -0.755   6.638 -30.501  1.00  0.00    -0.023 A 
HETATM   12  C   UNL     1      -0.342   7.414 -31.595  1.00  0.00     0.012 A 
HETATM   13  C   UNL     1      -0.693   7.055 -32.901  1.00  0.00     0.002 A 
HETATM   14  C   UNL     1      -1.460   5.914 -33.132  1.00  0.00     0.017 A 
BRANCH  11  15
HETATM   15  C   UNL     1      -0.452   7.027 -29.133  1.00  0.00    -0.002 A 
HETATM   16  C   UNL     1      -1.377   7.073 -28.108  1.00  0.00     0.153 A 
HETATM   17  O   UNL     1      -0.786   7.428 -26.937  1.00  0.00    -0.334 OA
HETATM   18  C   UNL     1       0.532   7.606 -27.199  1.00  0.00     0.142 A 
HETATM   19  C   UNL     1       0.792   7.370 -28.529  1.00  0.00     0.038 A 
ENDBRANCH  11  15
ENDBRANCH   6   9
ENDBRANCH   2   5
BRANCH   1  20
HETATM   20  C   UNL     1      -4.513  -0.216 -31.178  1.00  0.00     0.145 C 
BRANCH  20  21
HETATM   21  C   UNL     1      -4.323  -1.369 -32.112  1.00  0.00    -0.021 A 
HETATM   22  C   UNL     1      -5.161  -1.852 -33.177  1.00  0.00    -0.001 A 
HETATM   23  C   UNL     1      -6.363  -1.423 -33.780  1.00  0.00     0.014 A 
HETATM   24  C   UNL     1      -4.590  -3.038 -33.648  1.00  0.00     0.042 A 
HETATM   25  C   UNL     1      -6.946  -2.185 -34.802  1.00  0.00     0.001 A 
HETATM   26  C   UNL     1      -6.355  -3.368 -35.233  1.00  0.00     0.002 A 
HETATM   27  C   UNL     1      -5.161  -3.815 -34.664  1.00  0.00     0.030 A 
HETATM   28  N   UNL     1      -3.435  -3.250 -32.936  1.00  0.00    -0.365 N 
HETATM   29  H   UNL     1      -2.817  -4.038 -33.069  1.00  0.00     0.165 HD
HETATM   30  C   UNL     1      -3.268  -2.261 -32.009  1.00  0.00     0.097 A 
ENDBRANCH  20  21
ENDBRANCH   1  20
TORSDOF 5
ENDMDL
MODEL 7
REMARK VINA RESULT:      -8.7      6.338     10.143
REMARK  5 active torsions:
REMARK  status: ('A' for Active; 'I' for Inactive)
REMARK    1  A    between atoms: C_8  and  C_9 
REMARK    2  A    between atoms: C_9  and  C_10 
REMARK       I    between atoms: C_10  and  N_11 
REMARK    3  A    between atoms: N_11  and  N_12 
REMARK       I    between atoms: N_12  and  C_13 
REMARK    4  A    between atoms: C_13  and  C_14 
REMARK    5  A    between atoms: C_16  and  C_17 
ROOT
HETATM    1  C   UNL     1      -7.919   0.297 -34.046  1.00  0.00     0.240 C 
HETATM    2  N   UNL     1      -8.982   0.750 -34.809  1.00  0.00    -0.267 N 
HETATM    3  O   UNL     1      -8.043  -0.063 -32.876  1.00  0.00    -0.272 OA
HETATM    4  H   UNL     1      -8.828   1.327 -35.635  1.00  0.00     0.190 HD
ENDROOT
BRANCH   2   5
HETATM    5  N   UNL     1     -10.241   0.847 -34.217  1.00  0.00    -0.263 N 
HETATM    6  C   UNL     1     -10.833   2.088 -34.122  1.00  0.00     0.270 C 
HETATM    7  O   UNL     1     -10.282   3.135 -34.448  1.00  0.00    -0.266 OA
HETATM    8  H   UNL     1     -10.578   0.031 -33.708  1.00  0.00     0.190 HD
BRANCH   6   9
HETATM    9  C   UNL     1     -12.226   2.083 -33.619  1.00  0.00     0.034 A 
HETATM   10  C   UNL     1     -12.692   3.160 -32.852  1.00  0.00     0.029 A 
HETATM   11  C   UNL     1     -13.977   3.132 -32.296  1.00  0.00    -0.023 A 
HETATM   12  C   UNL     1     -14.795   2.020 -32.549  1.00  0.00     0.012 A 
HETATM   13  C   UNL     1     -14.326   0.945 -33.313  1.00  0.00     0.002 A 
HETATM   14  C   UNL     1     -13.035   0.967 -33.836  1.00  0.00     0.017 A 
BRANCH  11  15
HETATM   15  C   UNL     1     -14.423   4.231 -31.455  1.00  0.00    -0.002 A 
HETATM   16  C   UNL     1     -13.681   4.786 -30.430  1.00  0.00     0.153 A 
HETATM   17  O   UNL     1     -14.344   5.824 -29.857  1.00  0.00    -0.334 OA
HETATM   18  C   UNL     1     -15.521   5.952 -30.518  1.00  0.00     0.142 A 
HETATM   19  C   UNL     1     -15.619   5.004 -31.510  1.00  0.00     0.038 A 
ENDBRANCH  11  15
ENDBRANCH   6   9
ENDBRANCH   2   5
BRANCH   1  20
HETATM   20  C   UNL     1      -6.636   0.163 -34.836  1.00  0.00     0.145 C 
BRANCH  20  21
HETATM   21  C   UNL     1      -5.645  -0.846 -34.351  1.00  0.00    -0.021 A 
HETATM   22  C   UNL     1      -5.611  -2.274 -34.525  1.00  0.00    -0.001 A 
HETATM   23  C   UNL     1      -6.387  -3.217 -35.233  1.00  0.00     0.014 A 
HETATM   24  C   UNL     1      -4.547  -2.760 -33.758  1.00  0.00     0.042 A 
HETATM   25  C   UNL     1      -6.087  -4.583 -35.142  1.00  0.00     0.001 A 
HETATM   26  C   UNL     1      -5.028  -5.028 -34.356  1.00  0.00     0.002 A 
HETATM   27  C   UNL     1      -4.235  -4.121 -33.652  1.00  0.00     0.030 A 
HETATM   28  N   UNL     1      -3.932  -1.678 -33.177  1.00  0.00    -0.365 N 
HETATM   29  H   UNL     1      -3.129  -1.736 -32.567  1.00  0.00     0.165 HD
HETATM   30  C   UNL     1      -4.584  -0.528 -33.519  1.00  0.00     0.097 A 
ENDBRANCH  20  21
ENDBRANCH   1  20
TORSDOF 5
ENDMDL
MODEL 8
REMARK VINA RESULT:      -8.6      1.627      2.554
REMARK  5 active torsions:
REMARK  status: ('A' for Active; 'I' for Inactive)
REMARK    1  A    between atoms: C_8  and  C_9 
REMARK    2  A    between atoms: C_9  and  C_10 
REMARK       I    between atoms: C_10  and  N_11 
REMARK    3  A    between atoms: N_11  and  N_12 
REMARK       I    between atoms: N_12  and  C_13 
REMARK    4  A    between atoms: C_13  and  C_14 
REMARK    5  A    between atoms: C_16  and  C_17 
ROOT
HETATM    1  C   UNL     1      -1.032   5.111 -31.851  1.00  0.00     0.240 C 
HETATM    2  N   UNL     1      -2.063   4.461 -31.196  1.00  0.00    -0.267 N 
HETATM    3  O   UNL     1      -1.002   5.254 -33.073  1.00  0.00    -0.272 OA
HETATM    4  H   UNL     1      -1.932   4.075 -30.261  1.00  0.00     0.190 HD
ENDROOT
BRANCH   2   5
HETATM    5  N   UNL     1      -3.093   3.903 -31.952  1.00  0.00    -0.263 N 
HETATM    6  C   UNL     1      -3.387   2.566 -31.785  1.00  0.00     0.270 C 
HETATM    7  O   UNL     1      -2.738   1.808 -31.072  1.00  0.00    -0.266 OA
HETATM    8  H   UNL     1      -3.449   4.456 -32.730  1.00  0.00     0.190 HD
BRANCH   6   9
HETATM    9  C   UNL     1      -4.586   2.091 -32.512  1.00  0.00     0.034 A 
HETATM   10  C   UNL     1      -4.695   0.739 -32.866  1.00  0.00     0.029 A 
HETATM   11  C   UNL     1      -5.780   0.289 -33.628  1.00  0.00    -0.023 A 
HETATM   12  C   UNL     1      -6.768   1.213 -34.003  1.00  0.00     0.012 A 
HETATM   13  C   UNL     1      -6.656   2.563 -33.650  1.00  0.00     0.002 A 
HETATM   14  C   UNL     1      -5.557   3.008 -32.918  1.00  0.00     0.017 A 
BRANCH  11  15
HETATM   15  C   UNL     1      -5.847  -1.105 -34.035  1.00  0.00    -0.002 A 
HETATM   16  C   UNL     1      -4.805  -2.006 -33.924  1.00  0.00     0.153 A 
HETATM   17  O   UNL     1      -5.184  -3.241 -34.344  1.00  0.00    -0.334 OA
HETATM   18  C   UNL     1      -6.483  -3.146 -34.723  1.00  0.00     0.142 A 
HETATM   19  C   UNL     1      -6.940  -1.861 -34.551  1.00  0.00     0.038 A 
ENDBRANCH  11  15
ENDBRANCH   6   9
ENDBRANCH   2   5
BRANCH   1  20
HETATM   20  C   UNL     1      -0.030   5.738 -30.905  1.00  0.00     0.145 C 
BRANCH  20  21
HETATM   21  C   UNL     1      -0.570   6.672 -29.870  1.00  0.00    -0.021 A 
HETATM   22  C   UNL     1      -1.348   7.873 -30.016  1.00  0.00    -0.001 A 
HETATM   23  C   UNL     1      -1.940   8.559 -31.098  1.00  0.00     0.014 A 
HETATM   24  C   UNL     1      -1.476   8.441 -28.745  1.00  0.00     0.042 A 
HETATM   25  C   UNL     1      -2.614   9.769 -30.878  1.00  0.00     0.001 A 
HETATM   26  C   UNL     1      -2.706  10.309 -29.600  1.00  0.00     0.002 A 
HETATM   27  C   UNL     1      -2.141   9.651 -28.507  1.00  0.00     0.030 A 
HETATM   28  N   UNL     1      -0.843   7.607 -27.856  1.00  0.00    -0.365 N 
HETATM   29  H   UNL     1      -0.780   7.773 -26.861  1.00  0.00     0.165 HD
HETATM   30  C   UNL     1      -0.292   6.548 -28.518  1.00  0.00     0.097 A 
ENDBRANCH  20  21
ENDBRANCH   1  20
TORSDOF 5
ENDMDL
MODEL 9
REMARK VINA RESULT:      -8.6      1.835      2.539
REMARK  5 active torsions:
REMARK  status: ('A' for Active; 'I' for Inactive)
REMARK    1  A    between atoms: C_8  and  C_9 
REMARK    2  A    between atoms: C_9  and  C_10 
REMARK       I    between atoms: C_10  and  N_11 
REMARK    3  A    between atoms: N_11  and  N_12 
REMARK       I    between atoms: N_12  and  C_13 
REMARK    4  A    between atoms: C_13  and  C_14 
REMARK    5  A    between atoms: C_16  and  C_17 
ROOT
HETATM    1  C   UNL     1      -2.111   4.697 -31.738  1.00  0.00     0.240 C 
HETATM    2  N   UNL     1      -3.121   4.425 -30.832  1.00  0.00    -0.267 N 
HETATM    3  O   UNL     1      -1.942   4.041 -32.766  1.00  0.00    -0.272 OA
HETATM    4  H   UNL     1      -3.063   4.748 -29.866  1.00  0.00     0.190 HD
ENDROOT
BRANCH   2   5
HETATM    5  N   UNL     1      -3.959   3.336 -31.066  1.00  0.00    -0.263 N 
HETATM    6  C   UNL     1      -5.310   3.477 -30.827  1.00  0.00     0.270 C 
HETATM    7  O   UNL     1      -5.815   4.479 -30.334  1.00  0.00    -0.266 OA
HETATM    8  H   UNL     1      -3.513   2.432 -31.215  1.00  0.00     0.190 HD
BRANCH   6   9
HETATM    9  C   UNL     1      -6.144   2.326 -31.242  1.00  0.00     0.034 A 
HETATM   10  C   UNL     1      -5.558   1.254 -31.929  1.00  0.00     0.029 A 
HETATM   11  C   UNL     1      -6.346   0.199 -32.404  1.00  0.00    -0.023 A 
HETATM   12  C   UNL     1      -7.727   0.224 -32.152  1.00  0.00     0.012 A 
HETATM   13  C   UNL     1      -8.310   1.297 -31.468  1.00  0.00     0.002 A 
HETATM   14  C   UNL     1      -7.522   2.358 -31.026  1.00  0.00     0.017 A 
BRANCH  11  15
HETATM   15  C   UNL     1      -5.730  -0.877 -33.165  1.00  0.00    -0.002 A 
HETATM   16  C   UNL     1      -4.464  -1.378 -32.931  1.00  0.00     0.153 A 
HETATM   17  O   UNL     1      -4.186  -2.407 -33.773  1.00  0.00    -0.334 OA
HETATM   18  C   UNL     1      -5.280  -2.582 -34.555  1.00  0.00     0.142 A 
HETATM   19  C   UNL     1      -6.258  -1.674 -34.222  1.00  0.00     0.038 A 
ENDBRANCH  11  15
ENDBRANCH   6   9
ENDBRANCH   2   5
BRANCH   1  20
HETATM   20  C   UNL     1      -1.335   5.952 -31.404  1.00  0.00     0.145 C 
BRANCH  20  21
HETATM   21  C   UNL     1      -0.510   5.926 -30.157  1.00  0.00    -0.021 A 
HETATM   22  C   UNL     1      -0.297   6.943 -29.162  1.00  0.00    -0.001 A 
HETATM   23  C   UNL     1      -0.802   8.240 -28.929  1.00  0.00     0.014 A 
HETATM   24  C   UNL     1       0.667   6.457 -28.273  1.00  0.00     0.042 A 
HETATM   25  C   UNL     1      -0.326   8.995 -27.848  1.00  0.00     0.001 A 
HETATM   26  C   UNL     1       0.646   8.481 -26.995  1.00  0.00     0.002 A 
HETATM   27  C   UNL     1       1.158   7.198 -27.191  1.00  0.00     0.030 A 
HETATM   28  N   UNL     1       0.998   5.187 -28.680  1.00  0.00    -0.365 N 
HETATM   29  H   UNL     1       1.675   4.597 -28.217  1.00  0.00     0.165 HD
HETATM   30  C   UNL     1       0.305   4.861 -29.810  1.00  0.00     0.097 A 
ENDBRANCH  20  21
ENDBRANCH   1  20
TORSDOF 5
ENDMDL
MODEL 10
REMARK VINA RESULT:      -8.4      1.874      2.309
REMARK  5 active torsions:
REMARK  status: ('A' for Active; 'I' for Inactive)
REMARK    1  A    between atoms: C_8  and  C_9 
REMARK    2  A    between atoms: C_9  and  C_10 
REMARK       I    between atoms: C_10  and  N_11 
REMARK    3  A    between atoms: N_11  and  N_12 
REMARK       I    between atoms: N_12  and  C_13 
REMARK    4  A    between atoms: C_13  and  C_14 
REMARK    5  A    between atoms: C_16  and  C_17 
ROOT
HETATM    1  C   UNL     1      -2.935   6.205 -31.308  1.00  0.00     0.240 C 
HETATM    2  N   UNL     1      -2.585   4.962 -30.808  1.00  0.00    -0.267 N 
HETATM    3  O   UNL     1      -4.067   6.467 -31.713  1.00  0.00    -0.272 OA
HETATM    4  H   UNL     1      -1.611   4.663 -30.777  1.00  0.00     0.190 HD
ENDROOT
BRANCH   2   5
HETATM    5  N   UNL     1      -3.540   3.947 -30.802  1.00  0.00    -0.263 N 
HETATM    6  C   UNL     1      -3.453   2.951 -31.751  1.00  0.00     0.270 C 
HETATM    7  O   UNL     1      -2.633   2.948 -32.664  1.00  0.00    -0.266 OA
HETATM    8  H   UNL     1      -4.367   4.092 -30.224  1.00  0.00     0.190 HD
BRANCH   6   9
HETATM    9  C   UNL     1      -4.413   1.837 -31.582  1.00  0.00     0.034 A 
HETATM   10  C   UNL     1      -4.391   0.759 -32.479  1.00  0.00     0.029 A 
HETATM   11  C   UNL     1      -5.346  -0.261 -32.386  1.00  0.00    -0.023 A 
HETATM   12  C   UNL     1      -6.303  -0.195 -31.362  1.00  0.00     0.012 A 
HETATM   13  C   UNL     1      -6.325   0.884 -30.470  1.00  0.00     0.002 A 
HETATM   14  C   UNL     1      -5.389   1.910 -30.588  1.00  0.00     0.017 A 
BRANCH  11  15
HETATM   15  C   UNL     1      -5.345  -1.342 -33.359  1.00  0.00    -0.002 A 
HETATM   16  C   UNL     1      -4.252  -2.136 -33.647  1.00  0.00     0.153 A 
HETATM   17  O   UNL     1      -4.571  -3.087 -34.564  1.00  0.00    -0.334 OA
HETATM   18  C   UNL     1      -5.881  -2.915 -34.868  1.00  0.00     0.142 A 
HETATM   19  C   UNL     1      -6.405  -1.862 -34.156  1.00  0.00     0.038 A 
ENDBRANCH  11  15
ENDBRANCH   6   9
ENDBRANCH   2   5
BRANCH   1  20
HETATM   20  C   UNL     1      -1.830   7.231 -31.176  1.00  0.00     0.145 C 
BRANCH  20  21
HETATM   21  C   UNL     1      -1.784   8.016 -29.904  1.00  0.00    -0.021 A 
HETATM   22  C   UNL     1      -0.700   8.228 -28.982  1.00  0.00    -0.001 A 
HETATM   23  C   UNL     1       0.668   7.882 -28.945  1.00  0.00     0.014 A 
HETATM   24  C   UNL     1      -1.219   8.924 -27.886  1.00  0.00     0.042 A 
HETATM   25  C   UNL     1       1.449   8.225 -27.832  1.00  0.00     0.001 A 
HETATM   26  C   UNL     1       0.891   8.905 -26.754  1.00  0.00     0.002 A 
HETATM   27  C   UNL     1      -0.456   9.271 -26.764  1.00  0.00     0.030 A 
HETATM   28  N   UNL     1      -2.547   9.164 -28.143  1.00  0.00    -0.365 N 
HETATM   29  H   UNL     1      -3.171   9.653 -27.517  1.00  0.00     0.165 HD
HETATM   30  C   UNL     1      -2.898   8.620 -29.345  1.00  0.00     0.097 A 
ENDBRANCH  20  21
ENDBRANCH   1  20
TORSDOF 5
ENDMDL
