MODEL 1
REMARK VINA RESULT:      -8.6      0.000      0.000
REMARK  6 active torsions:
REMARK  status: ('A' for Active; 'I' for Inactive)
REMARK    1  A    between atoms: C_4  and  C_5 
REMARK    2  A    between atoms: C_9  and  N_10 
REMARK       I    between atoms: N_10  and  C_11 
REMARK    3  A    between atoms: C_11  and  C_12 
REMARK    4  A    between atoms: C_12  and  C_13 
REMARK    5  A    between atoms: C_13  and  C_14 
REMARK    6  A    between atoms: C_13  and  C_20 
ROOT
HETATM    1  N   UNL     1      -4.878   1.519 -32.953  1.00  0.00    -0.312 N 
HETATM    2  C   UNL     1      -5.567   0.713 -32.072  1.00  0.00     0.224 C 
HETATM    3  O   UNL     1      -5.529   0.868 -30.847  1.00  0.00    -0.273 OA
HETATM    4  H   UNL     1      -4.881   1.332 -33.945  1.00  0.00     0.170 HD
ENDROOT
BRANCH   1   5
HETATM    5  C   UNL     1      -4.065   2.554 -32.527  1.00  0.00     0.132 A 
HETATM    6  N   UNL     1      -3.119   2.432 -31.544  1.00  0.00    -0.261 N 
HETATM    7  N   UNL     1      -2.445   3.566 -31.295  1.00  0.00    -0.170 NA
HETATM    8  H   UNL     1      -2.898   1.587 -31.022  1.00  0.00     0.191 HD
HETATM    9  C   UNL     1      -2.978   4.447 -32.154  1.00  0.00     0.120 A 
HETATM   10  C   UNL     1      -4.003   3.864 -32.958  1.00  0.00     0.017 A 
HETATM   11  C   UNL     1      -4.804   4.529 -34.015  1.00  0.00     0.055 C 
BRANCH   9  12
HETATM   12  C   UNL     1      -2.513   5.868 -32.221  1.00  0.00     0.106 A 
HETATM   13  O   UNL     1      -2.912   6.863 -31.370  1.00  0.00    -0.313 OA
HETATM   14  C   UNL     1      -2.277   8.007 -31.749  1.00  0.00     0.050 A 
HETATM   15  C   UNL     1      -2.561   9.214 -30.950  1.00  0.00     0.076 C 
HETATM   16  C   UNL     1      -1.469   7.762 -32.838  1.00  0.00     0.035 A 
HETATM   17  C   UNL     1      -1.622   6.388 -33.141  1.00  0.00     0.042 A 
ENDBRANCH   9  12
ENDBRANCH   1   5
BRANCH   2  18
HETATM   18  C   UNL     1      -6.435  -0.399 -32.653  1.00  0.00     0.116 C 
BRANCH  18  19
HETATM   19  C   UNL     1      -6.221  -0.834 -34.117  1.00  0.00     0.049 C 
BRANCH  19  20
HETATM   20  C   UNL     1      -5.831  -2.298 -34.300  1.00  0.00    -0.050 A 
HETATM   21  C   UNL     1      -6.730  -3.267 -34.772  1.00  0.00     0.008 A 
HETATM   22  C   UNL     1      -6.338  -4.603 -34.892  1.00  0.00     0.001 A 
HETATM   23  C   UNL     1      -5.043  -4.987 -34.553  1.00  0.00     0.000 A 
HETATM   24  C   UNL     1      -4.133  -4.035 -34.104  1.00  0.00     0.001 A 
HETATM   25  C   UNL     1      -4.520  -2.700 -33.983  1.00  0.00     0.008 A 
ENDBRANCH  19  20
BRANCH  19  26
HETATM   26  C   UNL     1      -7.423  -0.409 -34.949  1.00  0.00    -0.027 C 
HETATM   27  C   UNL     1      -8.133   0.723 -34.859  1.00  0.00     0.007 C 
ENDBRANCH  19  26
ENDBRANCH  18  19
ENDBRANCH   2  18
TORSDOF 6
ENDMDL
MODEL 2
REMARK VINA RESULT:      -8.5      4.882      7.849
REMARK  6 active torsions:
REMARK  status: ('A' for Active; 'I' for Inactive)
REMARK    1  A    between atoms: C_4  and  C_5 
REMARK    2  A    between atoms: C_9  and  N_10 
REMARK       I    between atoms: N_10  and  C_11 
REMARK    3  A    between atoms: C_11  and  C_12 
REMARK    4  A    between atoms: C_12  and  C_13 
REMARK    5  A    between atoms: C_13  and  C_14 
REMARK    6  A    between atoms: C_13  and  C_20 
ROOT
HETATM    1  N   UNL     1      -7.733   1.152 -33.539  1.00  0.00    -0.312 N 
HETATM    2  C   UNL     1      -6.892   0.746 -34.552  1.00  0.00     0.224 C 
HETATM    3  O   UNL     1      -7.237   0.705 -35.738  1.00  0.00    -0.273 OA
HETATM    4  H   UNL     1      -7.441   1.118 -32.572  1.00  0.00     0.170 HD
ENDROOT
BRANCH   1   5
HETATM    5  C   UNL     1      -9.045   1.523 -33.770  1.00  0.00     0.132 A 
HETATM    6  N   UNL     1      -9.414   2.668 -34.426  1.00  0.00    -0.261 N 
HETATM    7  N   UNL     1     -10.743   2.824 -34.538  1.00  0.00    -0.170 NA
HETATM    8  H   UNL     1      -8.786   3.366 -34.818  1.00  0.00     0.191 HD
HETATM    9  C   UNL     1     -11.243   1.737 -33.935  1.00  0.00     0.120 A 
HETATM   10  C   UNL     1     -10.218   0.879 -33.433  1.00  0.00     0.017 A 
HETATM   11  C   UNL     1     -10.394  -0.409 -32.719  1.00  0.00     0.055 C 
BRANCH   9  12
HETATM   12  C   UNL     1     -12.716   1.498 -33.827  1.00  0.00     0.106 A 
HETATM   13  O   UNL     1     -13.549   2.127 -32.942  1.00  0.00    -0.313 OA
HETATM   14  C   UNL     1     -14.806   1.647 -33.148  1.00  0.00     0.050 A 
HETATM   15  C   UNL     1     -15.873   2.205 -32.295  1.00  0.00     0.076 C 
HETATM   16  C   UNL     1     -14.797   0.712 -34.159  1.00  0.00     0.035 A 
HETATM   17  C   UNL     1     -13.454   0.616 -34.595  1.00  0.00     0.042 A 
ENDBRANCH   9  12
ENDBRANCH   1   5
BRANCH   2  18
HETATM   18  C   UNL     1      -5.464   0.358 -34.181  1.00  0.00     0.116 C 
BRANCH  18  19
HETATM   19  C   UNL     1      -5.230  -0.825 -33.221  1.00  0.00     0.049 C 
BRANCH  19  20
HETATM   20  C   UNL     1      -5.410  -2.205 -33.849  1.00  0.00    -0.050 A 
HETATM   21  C   UNL     1      -6.614  -2.616 -34.441  1.00  0.00     0.008 A 
HETATM   22  C   UNL     1      -6.743  -3.900 -34.975  1.00  0.00     0.001 A 
HETATM   23  C   UNL     1      -5.670  -4.787 -34.935  1.00  0.00     0.000 A 
HETATM   24  C   UNL     1      -4.462  -4.388 -34.373  1.00  0.00     0.001 A 
HETATM   25  C   UNL     1      -4.329  -3.106 -33.838  1.00  0.00     0.008 A 
ENDBRANCH  19  20
BRANCH  19  26
HETATM   26  C   UNL     1      -3.895  -0.642 -32.512  1.00  0.00    -0.027 C 
HETATM   27  C   UNL     1      -3.670  -0.473 -31.202  1.00  0.00     0.007 C 
ENDBRANCH  19  26
ENDBRANCH  18  19
ENDBRANCH   2  18
TORSDOF 6
ENDMDL
MODEL 3
REMARK VINA RESULT:      -8.3      1.520      1.986
REMARK  6 active torsions:
REMARK  status: ('A' for Active; 'I' for Inactive)
REMARK    1  A    between atoms: C_4  and  C_5 
REMARK    2  A    between atoms: C_9  and  N_10 
REMARK       I    between atoms: N_10  and  C_11 
REMARK    3  A    between atoms: C_11  and  C_12 
REMARK    4  A    between atoms: C_12  and  C_13 
REMARK    5  A    between atoms: C_13  and  C_14 
REMARK    6  A    between atoms: C_13  and  C_20 
ROOT
HETATM    1  N   UNL     1      -4.900   2.164 -32.550  1.00  0.00    -0.312 N 
HETATM    2  C   UNL     1      -4.622   0.815 -32.502  1.00  0.00     0.224 C 
HETATM    3  O   UNL     1      -3.501   0.366 -32.242  1.00  0.00    -0.273 OA
HETATM    4  H   UNL     1      -5.812   2.501 -32.823  1.00  0.00     0.170 HD
ENDROOT
BRANCH   1   5
HETATM    5  C   UNL     1      -3.930   3.126 -32.335  1.00  0.00     0.132 A 
HETATM    6  N   UNL     1      -2.769   3.220 -33.057  1.00  0.00    -0.261 N 
HETATM    7  N   UNL     1      -1.974   4.233 -32.676  1.00  0.00    -0.170 NA
HETATM    8  H   UNL     1      -2.486   2.615 -33.824  1.00  0.00     0.191 HD
HETATM    9  C   UNL     1      -2.653   4.811 -31.675  1.00  0.00     0.120 A 
HETATM   10  C   UNL     1      -3.895   4.157 -31.417  1.00  0.00     0.017 A 
HETATM   11  C   UNL     1      -4.907   4.520 -30.396  1.00  0.00     0.055 C 
BRANCH   9  12
HETATM   12  C   UNL     1      -2.124   6.005 -30.945  1.00  0.00     0.106 A 
HETATM   13  O   UNL     1      -1.030   5.998 -30.121  1.00  0.00    -0.313 OA
HETATM   14  C   UNL     1      -0.866   7.263 -29.646  1.00  0.00     0.050 A 
HETATM   15  C   UNL     1       0.274   7.482 -28.735  1.00  0.00     0.076 C 
HETATM   16  C   UNL     1      -1.842   8.092 -30.154  1.00  0.00     0.035 A 
HETATM   17  C   UNL     1      -2.650   7.283 -30.989  1.00  0.00     0.042 A 
ENDBRANCH   9  12
ENDBRANCH   1   5
BRANCH   2  18
HETATM   18  C   UNL     1      -5.770  -0.158 -32.755  1.00  0.00     0.116 C 
BRANCH  18  19
HETATM   19  C   UNL     1      -5.950  -0.761 -34.163  1.00  0.00     0.049 C 
BRANCH  19  20
HETATM   20  C   UNL     1      -5.610  -2.245 -34.272  1.00  0.00    -0.050 A 
HETATM   21  C   UNL     1      -4.349  -2.759 -33.931  1.00  0.00     0.008 A 
HETATM   22  C   UNL     1      -4.072  -4.121 -34.078  1.00  0.00     0.001 A 
HETATM   23  C   UNL     1      -5.052  -4.988 -34.556  1.00  0.00     0.000 A 
HETATM   24  C   UNL     1      -6.314  -4.499 -34.878  1.00  0.00     0.001 A 
HETATM   25  C   UNL     1      -6.594  -3.139 -34.732  1.00  0.00     0.008 A 
ENDBRANCH  19  20
BRANCH  19  26
HETATM   26  C   UNL     1      -7.334  -0.407 -34.688  1.00  0.00    -0.027 C 
HETATM   27  C   UNL     1      -7.827   0.806 -34.970  1.00  0.00     0.007 C 
ENDBRANCH  19  26
ENDBRANCH  18  19
ENDBRANCH   2  18
TORSDOF 6
ENDMDL
MODEL 4
REMARK VINA RESULT:      -7.9      5.792      8.745
REMARK  6 active torsions:
REMARK  status: ('A' for Active; 'I' for Inactive)
REMARK    1  A    between atoms: C_4  and  C_5 
REMARK    2  A    between atoms: C_9  and  N_10 
REMARK       I    between atoms: N_10  and  C_11 
REMARK    3  A    between atoms: C_11  and  C_12 
REMARK    4  A    between atoms: C_12  and  C_13 
REMARK    5  A    between atoms: C_13  and  C_14 
REMARK    6  A    between atoms: C_13  and  C_20 
ROOT
HETATM    1  N   UNL     1     -10.549   1.426 -34.073  1.00  0.00    -0.312 N 
HETATM    2  C   UNL     1      -9.529   0.774 -33.413  1.00  0.00     0.224 C 
HETATM    3  O   UNL     1      -9.470   0.688 -32.182  1.00  0.00    -0.273 OA
HETATM    4  H   UNL     1     -10.539   1.530 -35.078  1.00  0.00     0.170 HD
ENDROOT
BRANCH   1   5
HETATM    5  C   UNL     1     -11.577   2.061 -33.401  1.00  0.00     0.132 A 
HETATM    6  N   UNL     1     -11.390   2.996 -32.418  1.00  0.00    -0.261 N 
HETATM    7  N   UNL     1     -12.532   3.481 -31.905  1.00  0.00    -0.170 NA
HETATM    8  H   UNL     1     -10.495   3.334 -32.072  1.00  0.00     0.191 HD
HETATM    9  C   UNL     1     -13.487   2.835 -32.589  1.00  0.00     0.120 A 
HETATM   10  C   UNL     1     -12.944   1.928 -33.548  1.00  0.00     0.017 A 
HETATM   11  C   UNL     1     -13.693   1.054 -34.484  1.00  0.00     0.055 C 
BRANCH   9  12
HETATM   12  C   UNL     1     -14.942   3.075 -32.337  1.00  0.00     0.106 A 
HETATM   13  O   UNL     1     -15.522   4.310 -32.214  1.00  0.00    -0.313 OA
HETATM   14  C   UNL     1     -16.851   4.118 -31.991  1.00  0.00     0.050 A 
HETATM   15  C   UNL     1     -17.676   5.332 -31.836  1.00  0.00     0.076 C 
HETATM   16  C   UNL     1     -17.140   2.771 -31.969  1.00  0.00     0.035 A 
HETATM   17  C   UNL     1     -15.912   2.102 -32.191  1.00  0.00     0.042 A 
ENDBRANCH   9  12
ENDBRANCH   1   5
BRANCH   2  18
HETATM   18  C   UNL     1      -8.446   0.108 -34.256  1.00  0.00     0.116 C 
BRANCH  18  19
HETATM   19  C   UNL     1      -7.069  -0.179 -33.624  1.00  0.00     0.049 C 
BRANCH  19  20
HETATM   20  C   UNL     1      -6.440  -1.507 -34.036  1.00  0.00    -0.050 A 
HETATM   21  C   UNL     1      -7.199  -2.595 -34.494  1.00  0.00     0.008 A 
HETATM   22  C   UNL     1      -6.582  -3.803 -34.829  1.00  0.00     0.001 A 
HETATM   23  C   UNL     1      -5.200  -3.938 -34.723  1.00  0.00     0.000 A 
HETATM   24  C   UNL     1      -4.430  -2.862 -34.293  1.00  0.00     0.001 A 
HETATM   25  C   UNL     1      -5.042  -1.654 -33.956  1.00  0.00     0.008 A 
ENDBRANCH  19  20
BRANCH  19  26
HETATM   26  C   UNL     1      -6.160   1.023 -33.831  1.00  0.00    -0.027 C 
HETATM   27  C   UNL     1      -5.717   1.894 -32.915  1.00  0.00     0.007 C 
ENDBRANCH  19  26
ENDBRANCH  18  19
ENDBRANCH   2  18
TORSDOF 6
ENDMDL
MODEL 5
REMARK VINA RESULT:      -7.8      3.902      4.394
REMARK  6 active torsions:
REMARK  status: ('A' for Active; 'I' for Inactive)
REMARK    1  A    between atoms: C_4  and  C_5 
REMARK    2  A    between atoms: C_9  and  N_10 
REMARK       I    between atoms: N_10  and  C_11 
REMARK    3  A    between atoms: C_11  and  C_12 
REMARK    4  A    between atoms: C_12  and  C_13 
REMARK    5  A    between atoms: C_13  and  C_14 
REMARK    6  A    between atoms: C_13  and  C_20 
ROOT
HETATM    1  N   UNL     1      -6.344   1.242 -30.656  1.00  0.00    -0.312 N 
HETATM    2  C   UNL     1      -5.675   0.966 -31.829  1.00  0.00     0.224 C 
HETATM    3  O   UNL     1      -5.140   1.838 -32.522  1.00  0.00    -0.273 OA
HETATM    4  H   UNL     1      -6.822   0.515 -30.143  1.00  0.00     0.170 HD
ENDROOT
BRANCH   1   5
HETATM    5  C   UNL     1      -6.491   2.530 -30.175  1.00  0.00     0.132 A 
HETATM    6  N   UNL     1      -5.484   3.250 -29.587  1.00  0.00    -0.261 N 
HETATM    7  N   UNL     1      -5.853   4.480 -29.196  1.00  0.00    -0.170 NA
HETATM    8  H   UNL     1      -4.527   2.937 -29.441  1.00  0.00     0.191 HD
HETATM    9  C   UNL     1      -7.144   4.552 -29.550  1.00  0.00     0.120 A 
HETATM   10  C   UNL     1      -7.600   3.352 -30.174  1.00  0.00     0.017 A 
HETATM   11  C   UNL     1      -8.959   3.073 -30.699  1.00  0.00     0.055 C 
BRANCH   9  12
HETATM   12  C   UNL     1      -7.967   5.776 -29.297  1.00  0.00     0.106 A 
HETATM   13  O   UNL     1      -8.412   6.180 -28.067  1.00  0.00    -0.313 OA
HETATM   14  C   UNL     1      -9.122   7.328 -28.244  1.00  0.00     0.050 A 
HETATM   15  C   UNL     1      -9.691   7.945 -27.030  1.00  0.00     0.076 C 
HETATM   16  C   UNL     1      -9.142   7.673 -29.578  1.00  0.00     0.035 A 
HETATM   17  C   UNL     1      -8.400   6.675 -30.254  1.00  0.00     0.042 A 
ENDBRANCH   9  12
ENDBRANCH   1   5
BRANCH   2  18
HETATM   18  C   UNL     1      -5.574  -0.493 -32.265  1.00  0.00     0.116 C 
BRANCH  18  19
HETATM   19  C   UNL     1      -5.788  -0.852 -33.749  1.00  0.00     0.049 C 
BRANCH  19  20
HETATM   20  C   UNL     1      -5.600  -2.329 -34.084  1.00  0.00    -0.050 A 
HETATM   21  C   UNL     1      -4.397  -3.012 -33.848  1.00  0.00     0.008 A 
HETATM   22  C   UNL     1      -4.260  -4.357 -34.201  1.00  0.00     0.001 A 
HETATM   23  C   UNL     1      -5.324  -5.041 -34.784  1.00  0.00     0.000 A 
HETATM   24  C   UNL     1      -6.532  -4.385 -35.004  1.00  0.00     0.001 A 
HETATM   25  C   UNL     1      -6.672  -3.042 -34.653  1.00  0.00     0.008 A 
ENDBRANCH  19  20
BRANCH  19  26
HETATM   26  C   UNL     1      -7.118  -0.279 -34.218  1.00  0.00    -0.027 C 
HETATM   27  C   UNL     1      -7.347   0.547 -35.247  1.00  0.00     0.007 C 
ENDBRANCH  19  26
ENDBRANCH  18  19
ENDBRANCH   2  18
TORSDOF 6
ENDMDL
MODEL 6
REMARK VINA RESULT:      -7.7      1.898      2.415
REMARK  6 active torsions:
REMARK  status: ('A' for Active; 'I' for Inactive)
REMARK    1  A    between atoms: C_4  and  C_5 
REMARK    2  A    between atoms: C_9  and  N_10 
REMARK       I    between atoms: N_10  and  C_11 
REMARK    3  A    between atoms: C_11  and  C_12 
REMARK    4  A    between atoms: C_12  and  C_13 
REMARK    5  A    between atoms: C_13  and  C_14 
REMARK    6  A    between atoms: C_13  and  C_20 
ROOT
HETATM    1  N   UNL     1      -5.262   2.369 -33.103  1.00  0.00    -0.312 N 
HETATM    2  C   UNL     1      -6.448   2.410 -33.804  1.00  0.00     0.224 C 
HETATM    3  O   UNL     1      -7.210   3.382 -33.783  1.00  0.00    -0.273 OA
HETATM    4  H   UNL     1      -4.688   1.537 -33.092  1.00  0.00     0.170 HD
ENDROOT
BRANCH   1   5
HETATM    5  C   UNL     1      -4.843   3.412 -32.297  1.00  0.00     0.132 A 
HETATM    6  N   UNL     1      -5.539   3.866 -31.207  1.00  0.00    -0.261 N 
HETATM    7  N   UNL     1      -4.944   4.887 -30.571  1.00  0.00    -0.170 NA
HETATM    8  H   UNL     1      -6.423   3.500 -30.862  1.00  0.00     0.191 HD
HETATM    9  C   UNL     1      -3.823   5.093 -31.277  1.00  0.00     0.120 A 
HETATM   10  C   UNL     1      -3.706   4.190 -32.376  1.00  0.00     0.017 A 
HETATM   11  C   UNL     1      -2.602   4.115 -33.364  1.00  0.00     0.055 C 
BRANCH   9  12
HETATM   12  C   UNL     1      -2.840   6.160 -30.911  1.00  0.00     0.106 A 
HETATM   13  O   UNL     1      -1.578   5.932 -30.433  1.00  0.00    -0.313 OA
HETATM   14  C   UNL     1      -0.995   7.143 -30.218  1.00  0.00     0.050 A 
HETATM   15  C   UNL     1       0.389   7.127 -29.705  1.00  0.00     0.076 C 
HETATM   16  C   UNL     1      -1.866   8.156 -30.554  1.00  0.00     0.035 A 
HETATM   17  C   UNL     1      -3.052   7.523 -30.999  1.00  0.00     0.042 A 
ENDBRANCH   9  12
ENDBRANCH   1   5
BRANCH   2  18
HETATM   18  C   UNL     1      -6.809   1.202 -34.663  1.00  0.00     0.116 C 
BRANCH  18  19
HETATM   19  C   UNL     1      -7.319  -0.083 -33.979  1.00  0.00     0.049 C 
BRANCH  19  20
HETATM   20  C   UNL     1      -6.363  -1.270 -34.053  1.00  0.00    -0.050 A 
HETATM   21  C   UNL     1      -5.087  -1.252 -33.468  1.00  0.00     0.008 A 
HETATM   22  C   UNL     1      -4.232  -2.350 -33.589  1.00  0.00     0.001 A 
HETATM   23  C   UNL     1      -4.642  -3.485 -34.284  1.00  0.00     0.000 A 
HETATM   24  C   UNL     1      -5.912  -3.529 -34.851  1.00  0.00     0.001 A 
HETATM   25  C   UNL     1      -6.769  -2.433 -34.733  1.00  0.00     0.008 A 
ENDBRANCH  19  20
BRANCH  19  26
HETATM   26  C   UNL     1      -7.782   0.248 -32.568  1.00  0.00    -0.027 C 
HETATM   27  C   UNL     1      -9.036   0.388 -32.119  1.00  0.00     0.007 C 
ENDBRANCH  19  26
ENDBRANCH  18  19
ENDBRANCH   2  18
TORSDOF 6
ENDMDL
MODEL 7
REMARK VINA RESULT:      -7.7      1.750      2.147
REMARK  6 active torsions:
REMARK  status: ('A' for Active; 'I' for Inactive)
REMARK    1  A    between atoms: C_4  and  C_5 
REMARK    2  A    between atoms: C_9  and  N_10 
REMARK       I    between atoms: N_10  and  C_11 
REMARK    3  A    between atoms: C_11  and  C_12 
REMARK    4  A    between atoms: C_12  and  C_13 
REMARK    5  A    between atoms: C_13  and  C_14 
REMARK    6  A    between atoms: C_13  and  C_20 
ROOT
HETATM    1  N   UNL     1      -5.578   1.456 -31.691  1.00  0.00    -0.312 N 
HETATM    2  C   UNL     1      -6.831   0.935 -31.933  1.00  0.00     0.224 C 
HETATM    3  O   UNL     1      -7.875   1.536 -31.658  1.00  0.00    -0.273 OA
HETATM    4  H   UNL     1      -4.744   0.917 -31.872  1.00  0.00     0.170 HD
ENDROOT
BRANCH   1   5
HETATM    5  C   UNL     1      -5.393   2.689 -31.093  1.00  0.00     0.132 A 
HETATM    6  N   UNL     1      -5.834   3.006 -29.835  1.00  0.00    -0.261 N 
HETATM    7  N   UNL     1      -5.541   4.262 -29.459  1.00  0.00    -0.170 NA
HETATM    8  H   UNL     1      -6.333   2.390 -29.199  1.00  0.00     0.191 HD
HETATM    9  C   UNL     1      -4.886   4.766 -30.514  1.00  0.00     0.120 A 
HETATM   10  C   UNL     1      -4.761   3.818 -31.574  1.00  0.00     0.017 A 
HETATM   11  C   UNL     1      -4.095   4.018 -32.884  1.00  0.00     0.055 C 
BRANCH   9  12
HETATM   12  C   UNL     1      -4.365   6.168 -30.526  1.00  0.00     0.106 A 
HETATM   13  O   UNL     1      -5.120   7.282 -30.783  1.00  0.00    -0.313 OA
HETATM   14  C   UNL     1      -4.296   8.363 -30.704  1.00  0.00     0.050 A 
HETATM   15  C   UNL     1      -4.915   9.682 -30.941  1.00  0.00     0.076 C 
HETATM   16  C   UNL     1      -3.014   7.962 -30.398  1.00  0.00     0.035 A 
HETATM   17  C   UNL     1      -3.059   6.552 -30.284  1.00  0.00     0.042 A 
ENDBRANCH   9  12
ENDBRANCH   1   5
BRANCH   2  18
HETATM   18  C   UNL     1      -6.917  -0.436 -32.598  1.00  0.00     0.116 C 
BRANCH  18  19
HETATM   19  C   UNL     1      -6.116  -0.697 -33.890  1.00  0.00     0.049 C 
BRANCH  19  20
HETATM   20  C   UNL     1      -5.768  -2.162 -34.142  1.00  0.00    -0.050 A 
HETATM   21  C   UNL     1      -4.486  -2.685 -33.911  1.00  0.00     0.008 A 
HETATM   22  C   UNL     1      -4.204  -4.026 -34.188  1.00  0.00     0.001 A 
HETATM   23  C   UNL     1      -5.199  -4.863 -34.686  1.00  0.00     0.000 A 
HETATM   24  C   UNL     1      -6.481  -4.366 -34.899  1.00  0.00     0.001 A 
HETATM   25  C   UNL     1      -6.767  -3.028 -34.624  1.00  0.00     0.008 A 
ENDBRANCH  19  20
BRANCH  19  26
HETATM   26  C   UNL     1      -6.816  -0.022 -35.060  1.00  0.00    -0.027 C 
HETATM   27  C   UNL     1      -8.114   0.288 -35.182  1.00  0.00     0.007 C 
ENDBRANCH  19  26
ENDBRANCH  18  19
ENDBRANCH   2  18
TORSDOF 6
ENDMDL
MODEL 8
REMARK VINA RESULT:      -7.5      2.125      9.577
REMARK  6 active torsions:
REMARK  status: ('A' for Active; 'I' for Inactive)
REMARK    1  A    between atoms: C_4  and  C_5 
REMARK    2  A    between atoms: C_9  and  N_10 
REMARK       I    between atoms: N_10  and  C_11 
REMARK    3  A    between atoms: C_11  and  C_12 
REMARK    4  A    between atoms: C_12  and  C_13 
REMARK    5  A    between atoms: C_13  and  C_14 
REMARK    6  A    between atoms: C_13  and  C_20 
ROOT
HETATM    1  N   UNL     1      -3.127   2.637 -31.617  1.00  0.00    -0.312 N 
HETATM    2  C   UNL     1      -2.756   3.868 -32.113  1.00  0.00     0.224 C 
HETATM    3  O   UNL     1      -3.201   4.331 -33.169  1.00  0.00    -0.273 OA
HETATM    4  H   UNL     1      -2.702   2.259 -30.783  1.00  0.00     0.170 HD
ENDROOT
BRANCH   1   5
HETATM    5  C   UNL     1      -4.013   1.808 -32.282  1.00  0.00     0.132 A 
HETATM    6  N   UNL     1      -5.184   2.236 -32.851  1.00  0.00    -0.261 N 
HETATM    7  N   UNL     1      -5.886   1.258 -33.446  1.00  0.00    -0.170 NA
HETATM    8  H   UNL     1      -5.535   3.190 -32.860  1.00  0.00     0.191 HD
HETATM    9  C   UNL     1      -5.136   0.165 -33.254  1.00  0.00     0.120 A 
HETATM   10  C   UNL     1      -3.941   0.452 -32.527  1.00  0.00     0.017 A 
HETATM   11  C   UNL     1      -2.874  -0.503 -32.139  1.00  0.00     0.055 C 
BRANCH   9  12
HETATM   12  C   UNL     1      -5.549  -1.180 -33.764  1.00  0.00     0.106 A 
HETATM   13  O   UNL     1      -4.740  -2.283 -33.809  1.00  0.00    -0.313 OA
HETATM   14  C   UNL     1      -5.470  -3.306 -34.333  1.00  0.00     0.050 A 
HETATM   15  C   UNL     1      -4.784  -4.606 -34.464  1.00  0.00     0.076 C 
HETATM   16  C   UNL     1      -6.746  -2.878 -34.626  1.00  0.00     0.035 A 
HETATM   17  C   UNL     1      -6.796  -1.511 -34.260  1.00  0.00     0.042 A 
ENDBRANCH   9  12
ENDBRANCH   1   5
BRANCH   2  18
HETATM   18  C   UNL     1      -1.771   4.698 -31.295  1.00  0.00     0.116 C 
BRANCH  18  19
HETATM   19  C   UNL     1      -1.734   6.228 -31.487  1.00  0.00     0.049 C 
BRANCH  19  20
HETATM   20  C   UNL     1      -1.172   7.008 -30.301  1.00  0.00    -0.050 A 
HETATM   21  C   UNL     1      -1.959   7.868 -29.519  1.00  0.00     0.008 A 
HETATM   22  C   UNL     1      -1.393   8.587 -28.464  1.00  0.00     0.001 A 
HETATM   23  C   UNL     1      -0.039   8.450 -28.168  1.00  0.00     0.000 A 
HETATM   24  C   UNL     1       0.750   7.585 -28.918  1.00  0.00     0.001 A 
HETATM   25  C   UNL     1       0.189   6.865 -29.974  1.00  0.00     0.008 A 
ENDBRANCH  19  20
BRANCH  19  26
HETATM   26  C   UNL     1      -1.061   6.552 -32.812  1.00  0.00    -0.027 C 
HETATM   27  C   UNL     1      -1.552   7.258 -33.840  1.00  0.00     0.007 C 
ENDBRANCH  19  26
ENDBRANCH  18  19
ENDBRANCH   2  18
TORSDOF 6
ENDMDL
MODEL 9
REMARK VINA RESULT:      -7.5      4.587      7.130
REMARK  6 active torsions:
REMARK  status: ('A' for Active; 'I' for Inactive)
REMARK    1  A    between atoms: C_4  and  C_5 
REMARK    2  A    between atoms: C_9  and  N_10 
REMARK       I    between atoms: N_10  and  C_11 
REMARK    3  A    between atoms: C_11  and  C_12 
REMARK    4  A    between atoms: C_12  and  C_13 
REMARK    5  A    between atoms: C_13  and  C_14 
REMARK    6  A    between atoms: C_13  and  C_20 
ROOT
HETATM    1  N   UNL     1      -8.754   0.942 -33.497  1.00  0.00    -0.312 N 
HETATM    2  C   UNL     1      -7.553   1.311 -34.063  1.00  0.00     0.224 C 
HETATM    3  O   UNL     1      -7.173   2.485 -34.133  1.00  0.00    -0.273 OA
HETATM    4  H   UNL     1      -9.064  -0.019 -33.508  1.00  0.00     0.170 HD
ENDROOT
BRANCH   1   5
HETATM    5  C   UNL     1      -9.644   1.867 -32.982  1.00  0.00     0.132 A 
HETATM    6  N   UNL     1      -9.358   2.708 -31.939  1.00  0.00    -0.261 N 
HETATM    7  N   UNL     1     -10.371   3.524 -31.607  1.00  0.00    -0.170 NA
HETATM    8  H   UNL     1      -8.478   2.760 -31.431  1.00  0.00     0.191 HD
HETATM    9  C   UNL     1     -11.341   3.195 -32.472  1.00  0.00     0.120 A 
HETATM   10  C   UNL     1     -10.938   2.157 -33.365  1.00  0.00     0.017 A 
HETATM   11  C   UNL     1     -11.739   1.546 -34.453  1.00  0.00     0.055 C 
BRANCH   9  12
HETATM   12  C   UNL     1     -12.675   3.871 -32.461  1.00  0.00     0.106 A 
HETATM   13  O   UNL     1     -12.939   5.094 -33.018  1.00  0.00    -0.313 OA
HETATM   14  C   UNL     1     -14.255   5.368 -32.804  1.00  0.00     0.050 A 
HETATM   15  C   UNL     1     -14.757   6.649 -33.337  1.00  0.00     0.076 C 
HETATM   16  C   UNL     1     -14.849   4.334 -32.114  1.00  0.00     0.035 A 
HETATM   17  C   UNL     1     -13.833   3.373 -31.894  1.00  0.00     0.042 A 
ENDBRANCH   9  12
ENDBRANCH   1   5
BRANCH   2  18
HETATM   18  C   UNL     1      -6.649   0.205 -34.600  1.00  0.00     0.116 C 
BRANCH  18  19
HETATM   19  C   UNL     1      -5.932  -0.731 -33.606  1.00  0.00     0.049 C 
BRANCH  19  20
HETATM   20  C   UNL     1      -5.794  -2.177 -34.074  1.00  0.00    -0.050 A 
HETATM   21  C   UNL     1      -6.866  -2.901 -34.619  1.00  0.00     0.008 A 
HETATM   22  C   UNL     1      -6.702  -4.235 -35.003  1.00  0.00     0.001 A 
HETATM   23  C   UNL     1      -5.465  -4.858 -34.860  1.00  0.00     0.000 A 
HETATM   24  C   UNL     1      -4.386  -4.148 -34.343  1.00  0.00     0.001 A 
HETATM   25  C   UNL     1      -4.546  -2.816 -33.957  1.00  0.00     0.008 A 
ENDBRANCH  19  20
BRANCH  19  26
HETATM   26  C   UNL     1      -4.618  -0.096 -33.176  1.00  0.00    -0.027 C 
HETATM   27  C   UNL     1      -4.303   0.430 -31.984  1.00  0.00     0.007 C 
ENDBRANCH  19  26
ENDBRANCH  18  19
ENDBRANCH   2  18
TORSDOF 6
ENDMDL
MODEL 10
REMARK VINA RESULT:      -7.5      2.806      3.200
REMARK  6 active torsions:
REMARK  status: ('A' for Active; 'I' for Inactive)
REMARK    1  A    between atoms: C_4  and  C_5 
REMARK    2  A    between atoms: C_9  and  N_10 
REMARK       I    between atoms: N_10  and  C_11 
REMARK    3  A    between atoms: C_11  and  C_12 
REMARK    4  A    between atoms: C_12  and  C_13 
REMARK    5  A    between atoms: C_13  and  C_14 
REMARK    6  A    between atoms: C_13  and  C_20 
ROOT
HETATM    1  N   UNL     1      -7.146   1.737 -31.734  1.00  0.00    -0.312 N 
HETATM    2  C   UNL     1      -6.994   0.405 -31.415  1.00  0.00     0.224 C 
HETATM    3  O   UNL     1      -6.720   0.011 -30.276  1.00  0.00    -0.273 OA
HETATM    4  H   UNL     1      -7.311   2.032 -32.685  1.00  0.00     0.170 HD
ENDROOT
BRANCH   1   5
HETATM    5  C   UNL     1      -6.978   2.744 -30.800  1.00  0.00     0.132 A 
HETATM    6  N   UNL     1      -7.947   3.142 -29.918  1.00  0.00    -0.261 N 
HETATM    7  N   UNL     1      -7.562   4.137 -29.102  1.00  0.00    -0.170 NA
HETATM    8  H   UNL     1      -8.884   2.754 -29.837  1.00  0.00     0.191 HD
HETATM    9  C   UNL     1      -6.298   4.382 -29.474  1.00  0.00     0.120 A 
HETATM   10  C   UNL     1      -5.875   3.532 -30.540  1.00  0.00     0.017 A 
HETATM   11  C   UNL     1      -4.547   3.512 -31.200  1.00  0.00     0.055 C 
BRANCH   9  12
HETATM   12  C   UNL     1      -5.469   5.438 -28.813  1.00  0.00     0.106 A 
HETATM   13  O   UNL     1      -4.619   6.290 -29.467  1.00  0.00    -0.313 OA
HETATM   14  C   UNL     1      -4.049   7.098 -28.532  1.00  0.00     0.050 A 
HETATM   15  C   UNL     1      -3.095   8.109 -29.028  1.00  0.00     0.076 C 
HETATM   16  C   UNL     1      -4.520   6.780 -27.277  1.00  0.00     0.035 A 
HETATM   17  C   UNL     1      -5.432   5.713 -27.459  1.00  0.00     0.042 A 
ENDBRANCH   9  12
ENDBRANCH   1   5
BRANCH   2  18
HETATM   18  C   UNL     1      -7.203  -0.621 -32.525  1.00  0.00     0.116 C 
BRANCH  18  19
HETATM   19  C   UNL     1      -6.146  -0.751 -33.640  1.00  0.00     0.049 C 
BRANCH  19  20
HETATM   20  C   UNL     1      -5.833  -2.184 -34.063  1.00  0.00    -0.050 A 
HETATM   21  C   UNL     1      -6.799  -3.037 -34.618  1.00  0.00     0.008 A 
HETATM   22  C   UNL     1      -6.475  -4.353 -34.959  1.00  0.00     0.001 A 
HETATM   23  C   UNL     1      -5.181  -4.830 -34.762  1.00  0.00     0.000 A 
HETATM   24  C   UNL     1      -4.206  -3.990 -34.234  1.00  0.00     0.001 A 
HETATM   25  C   UNL     1      -4.526  -2.676 -33.891  1.00  0.00     0.008 A 
ENDBRANCH  19  20
BRANCH  19  26
HETATM   26  C   UNL     1      -6.522   0.163 -34.798  1.00  0.00    -0.027 C 
HETATM   27  C   UNL     1      -7.728   0.341 -35.355  1.00  0.00     0.007 C 
ENDBRANCH  19  26
ENDBRANCH  18  19
ENDBRANCH   2  18
TORSDOF 6
ENDMDL
