MODEL 1
REMARK VINA RESULT:      -8.9      0.000      0.000
REMARK  8 active torsions:
REMARK  status: ('A' for Active; 'I' for Inactive)
REMARK       I    between atoms: C_2  and  N_3 
REMARK    1  A    between atoms: N_3  and  C_4 
REMARK    2  A    between atoms: C_6  and  N_7 
REMARK       I    between atoms: N_7  and  C_8 
REMARK    3  A    between atoms: C_8  and  C_9 
REMARK       I    between atoms: C_9  and  N_10 
REMARK    4  A    between atoms: N_10  and  C_11 
REMARK    5  A    between atoms: C_11  and  C_12 
REMARK    6  A    between atoms: C_12  and  S_13 
REMARK    7  A    between atoms: S_13  and  C_14 
REMARK    8  A    between atoms: C_16  and  C_17 
ROOT
HETATM    1  C   UNL     1      -5.196   1.215 -31.448  1.00  0.00     0.309 C 
HETATM    2  N   UNL     1      -6.251   2.094 -31.507  1.00  0.00    -0.352 N 
HETATM    3  O   UNL     1      -5.268   0.001 -31.319  1.00  0.00    -0.262 OA
HETATM    4  H   UNL     1      -6.004   3.083 -31.510  1.00  0.00     0.162 HD
ENDROOT
BRANCH   1   5
HETATM    5  C   UNL     1      -3.816   1.900 -31.559  1.00  0.00     0.313 C 
HETATM    6  N   UNL     1      -3.915   3.180 -32.059  1.00  0.00    -0.319 N 
HETATM    7  H   UNL     1      -4.868   3.485 -32.237  1.00  0.00     0.169 HD
HETATM    8  O   UNL     1      -2.829   1.276 -31.197  1.00  0.00    -0.262 OA
BRANCH   6   9
HETATM    9  C   UNL     1      -2.873   4.083 -32.335  1.00  0.00     0.037 A 
HETATM   10  C   UNL     1      -2.084   4.691 -31.348  1.00  0.00     0.059 A 
HETATM   11  C   UNL     1      -1.055   5.574 -31.698  1.00  0.00     0.036 A 
HETATM   12  C   UNL     1      -0.833   5.858 -33.052  1.00  0.00     0.029 A 
HETATM   13  C   UNL     1      -1.610   5.254 -34.040  1.00  0.00     0.004 A 
HETATM   14  C   UNL     1      -2.621   4.366 -33.681  1.00  0.00     0.029 A 
BRANCH  11  15
HETATM   15  N   UNL     1      -0.207   6.216 -30.769  1.00  0.00    -0.327 N 
HETATM   16  C   UNL     1      -0.569   7.073 -29.746  1.00  0.00     0.218 C 
HETATM   17  C   UNL     1       0.614   7.598 -28.970  1.00  0.00     0.117 C 
HETATM   18  O   UNL     1      -1.706   7.403 -29.427  1.00  0.00    -0.274 OA
HETATM   19  H   UNL     1       0.775   5.986 -30.841  1.00  0.00     0.169 HD
ENDBRANCH  11  15
ENDBRANCH   6   9
ENDBRANCH   1   5
BRANCH   2  20
HETATM   20  C   UNL     1      -7.619   1.706 -31.234  1.00  0.00     0.133 C 
BRANCH  20  21
HETATM   21  C   UNL     1      -8.645   2.511 -32.036  1.00  0.00     0.102 C 
BRANCH  21  22
HETATM   22  S   UNL     1      -9.720   1.404 -33.013  1.00  0.00    -0.090 SA
BRANCH  22  23
HETATM   23  C   UNL     1      -8.536   0.465 -33.837  1.00  0.00     0.166 A 
HETATM   24  N   UNL     1      -8.066  -0.710 -33.505  1.00  0.00    -0.223 NA
HETATM   25  C   UNL     1      -7.122  -1.008 -34.469  1.00  0.00     0.085 A 
HETATM   26  C   UNL     1      -7.046   0.016 -35.393  1.00  0.00     0.122 A 
HETATM   27  N   UNL     1      -7.958   0.946 -34.973  1.00  0.00    -0.343 N 
HETATM   28  H   UNL     1      -8.176   1.833 -35.404  1.00  0.00     0.167 HD
BRANCH  25  29
HETATM   29  C   UNL     1      -6.342  -2.239 -34.463  1.00  0.00    -0.006 A 
HETATM   30  C   UNL     1      -4.990  -2.195 -34.096  1.00  0.00     0.014 A 
HETATM   31  C   UNL     1      -4.210  -3.355 -34.085  1.00  0.00     0.001 A 
HETATM   32  C   UNL     1      -4.775  -4.576 -34.443  1.00  0.00     0.000 A 
HETATM   33  C   UNL     1      -6.117  -4.638 -34.812  1.00  0.00     0.001 A 
HETATM   34  C   UNL     1      -6.897  -3.476 -34.821  1.00  0.00     0.014 A 
ENDBRANCH  25  29
ENDBRANCH  22  23
ENDBRANCH  21  22
ENDBRANCH  20  21
ENDBRANCH   2  20
TORSDOF 8
ENDMDL
MODEL 2
REMARK VINA RESULT:      -8.8      2.902      4.042
REMARK  8 active torsions:
REMARK  status: ('A' for Active; 'I' for Inactive)
REMARK       I    between atoms: C_2  and  N_3 
REMARK    1  A    between atoms: N_3  and  C_4 
REMARK    2  A    between atoms: C_6  and  N_7 
REMARK       I    between atoms: N_7  and  C_8 
REMARK    3  A    between atoms: C_8  and  C_9 
REMARK       I    between atoms: C_9  and  N_10 
REMARK    4  A    between atoms: N_10  and  C_11 
REMARK    5  A    between atoms: C_11  and  C_12 
REMARK    6  A    between atoms: C_12  and  S_13 
REMARK    7  A    between atoms: S_13  and  C_14 
REMARK    8  A    between atoms: C_16  and  C_17 
ROOT
HETATM    1  C   UNL     1      -3.762   5.545 -34.306  1.00  0.00     0.309 C 
HETATM    2  N   UNL     1      -4.685   4.980 -33.459  1.00  0.00    -0.352 N 
HETATM    3  O   UNL     1      -3.761   5.481 -35.528  1.00  0.00    -0.262 OA
HETATM    4  H   UNL     1      -4.471   5.044 -32.465  1.00  0.00     0.162 HD
ENDROOT
BRANCH   1   5
HETATM    5  C   UNL     1      -2.643   6.318 -33.572  1.00  0.00     0.313 C 
HETATM    6  N   UNL     1      -2.478   5.878 -32.276  1.00  0.00    -0.319 N 
HETATM    7  H   UNL     1      -3.081   5.099 -32.022  1.00  0.00     0.169 HD
HETATM    8  O   UNL     1      -2.039   7.185 -34.186  1.00  0.00    -0.262 OA
BRANCH   6   9
HETATM    9  C   UNL     1      -1.591   6.370 -31.303  1.00  0.00     0.037 A 
HETATM   10  C   UNL     1      -1.998   6.899 -30.071  1.00  0.00     0.059 A 
HETATM   11  C   UNL     1      -1.055   7.361 -29.144  1.00  0.00     0.036 A 
HETATM   12  C   UNL     1       0.306   7.305 -29.472  1.00  0.00     0.029 A 
HETATM   13  C   UNL     1       0.719   6.776 -30.694  1.00  0.00     0.004 A 
HETATM   14  C   UNL     1      -0.226   6.305 -31.602  1.00  0.00     0.029 A 
BRANCH  11  15
HETATM   15  N   UNL     1      -1.380   7.895 -27.877  1.00  0.00    -0.327 N 
HETATM   16  C   UNL     1      -1.329   7.256 -26.652  1.00  0.00     0.218 C 
HETATM   17  C   UNL     1      -1.783   8.133 -25.510  1.00  0.00     0.117 C 
HETATM   18  O   UNL     1      -0.946   6.113 -26.431  1.00  0.00    -0.274 OA
HETATM   19  H   UNL     1      -1.643   8.872 -27.869  1.00  0.00     0.169 HD
ENDBRANCH  11  15
ENDBRANCH   6   9
ENDBRANCH   1   5
BRANCH   2  20
HETATM   20  C   UNL     1      -5.706   4.056 -33.908  1.00  0.00     0.133 C 
BRANCH  20  21
HETATM   21  C   UNL     1      -5.710   2.739 -33.128  1.00  0.00     0.102 C 
BRANCH  21  22
HETATM   22  S   UNL     1      -4.096   2.457 -32.321  1.00  0.00    -0.090 SA
BRANCH  22  23
HETATM   23  C   UNL     1      -3.953   0.751 -32.495  1.00  0.00     0.166 A 
HETATM   24  N   UNL     1      -4.648  -0.040 -33.272  1.00  0.00    -0.223 NA
HETATM   25  C   UNL     1      -4.170  -1.311 -33.015  1.00  0.00     0.085 A 
HETATM   26  C   UNL     1      -3.164  -1.259 -32.071  1.00  0.00     0.122 A 
HETATM   27  N   UNL     1      -3.040   0.066 -31.752  1.00  0.00    -0.343 N 
HETATM   28  H   UNL     1      -2.400   0.483 -31.091  1.00  0.00     0.167 HD
BRANCH  25  29
HETATM   29  C   UNL     1      -4.690  -2.504 -33.672  1.00  0.00    -0.006 A 
HETATM   30  C   UNL     1      -5.921  -2.440 -34.340  1.00  0.00     0.014 A 
HETATM   31  C   UNL     1      -6.453  -3.565 -34.976  1.00  0.00     0.001 A 
HETATM   32  C   UNL     1      -5.758  -4.771 -34.952  1.00  0.00     0.000 A 
HETATM   33  C   UNL     1      -4.534  -4.853 -34.292  1.00  0.00     0.001 A 
HETATM   34  C   UNL     1      -4.003  -3.725 -33.656  1.00  0.00     0.014 A 
ENDBRANCH  25  29
ENDBRANCH  22  23
ENDBRANCH  21  22
ENDBRANCH  20  21
ENDBRANCH   2  20
TORSDOF 8
ENDMDL
MODEL 3
REMARK VINA RESULT:      -8.6      3.666      8.805
REMARK  8 active torsions:
REMARK  status: ('A' for Active; 'I' for Inactive)
REMARK       I    between atoms: C_2  and  N_3 
REMARK    1  A    between atoms: N_3  and  C_4 
REMARK    2  A    between atoms: C_6  and  N_7 
REMARK       I    between atoms: N_7  and  C_8 
REMARK    3  A    between atoms: C_8  and  C_9 
REMARK       I    between atoms: C_9  and  N_10 
REMARK    4  A    between atoms: N_10  and  C_11 
REMARK    5  A    between atoms: C_11  and  C_12 
REMARK    6  A    between atoms: C_12  and  S_13 
REMARK    7  A    between atoms: S_13  and  C_14 
REMARK    8  A    between atoms: C_16  and  C_17 
ROOT
HETATM    1  C   UNL     1      -4.668   6.704 -27.411  1.00  0.00     0.309 C 
HETATM    2  N   UNL     1      -3.310   6.521 -27.303  1.00  0.00    -0.352 N 
HETATM    3  O   UNL     1      -5.373   7.372 -26.668  1.00  0.00    -0.262 OA
HETATM    4  H   UNL     1      -2.902   5.846 -27.947  1.00  0.00     0.162 HD
ENDROOT
BRANCH   1   5
HETATM    5  C   UNL     1      -5.297   5.959 -28.610  1.00  0.00     0.313 C 
HETATM    6  N   UNL     1      -4.402   5.802 -29.646  1.00  0.00    -0.319 N 
HETATM    7  H   UNL     1      -3.470   6.159 -29.448  1.00  0.00     0.169 HD
HETATM    8  O   UNL     1      -6.459   5.591 -28.518  1.00  0.00    -0.262 OA
BRANCH   6   9
HETATM    9  C   UNL     1      -4.629   5.215 -30.903  1.00  0.00     0.037 A 
HETATM   10  C   UNL     1      -4.458   3.850 -31.170  1.00  0.00     0.059 A 
HETATM   11  C   UNL     1      -4.714   3.332 -32.446  1.00  0.00     0.036 A 
HETATM   12  C   UNL     1      -5.129   4.203 -33.463  1.00  0.00     0.029 A 
HETATM   13  C   UNL     1      -5.306   5.562 -33.204  1.00  0.00     0.004 A 
HETATM   14  C   UNL     1      -5.063   6.063 -31.927  1.00  0.00     0.029 A 
BRANCH  11  15
HETATM   15  N   UNL     1      -4.580   1.970 -32.794  1.00  0.00    -0.327 N 
HETATM   16  C   UNL     1      -5.567   1.002 -32.816  1.00  0.00     0.218 C 
HETATM   17  C   UNL     1      -5.048  -0.360 -33.209  1.00  0.00     0.117 C 
HETATM   18  O   UNL     1      -6.759   1.158 -32.578  1.00  0.00    -0.274 OA
HETATM   19  H   UNL     1      -3.659   1.686 -33.100  1.00  0.00     0.169 HD
ENDBRANCH  11  15
ENDBRANCH   6   9
ENDBRANCH   1   5
BRANCH   2  20
HETATM   20  C   UNL     1      -2.543   6.962 -26.157  1.00  0.00     0.133 C 
BRANCH  20  21
HETATM   21  C   UNL     1      -1.373   7.875 -26.531  1.00  0.00     0.102 C 
BRANCH  21  22
HETATM   22  S   UNL     1       0.190   6.933 -26.605  1.00  0.00    -0.090 SA
BRANCH  22  23
HETATM   23  C   UNL     1       0.110   6.321 -28.212  1.00  0.00     0.166 A 
HETATM   24  N   UNL     1      -0.552   6.812 -29.228  1.00  0.00    -0.223 NA
HETATM   25  C   UNL     1      -0.314   5.937 -30.271  1.00  0.00     0.085 A 
HETATM   26  C   UNL     1       0.516   4.916 -29.855  1.00  0.00     0.122 A 
HETATM   27  N   UNL     1       0.777   5.179 -28.538  1.00  0.00    -0.343 N 
HETATM   28  H   UNL     1       1.351   4.641 -27.904  1.00  0.00     0.167 HD
BRANCH  25  29
HETATM   29  C   UNL     1      -0.885   6.112 -31.601  1.00  0.00    -0.006 A 
HETATM   30  C   UNL     1      -1.259   7.395 -32.026  1.00  0.00     0.014 A 
HETATM   31  C   UNL     1      -1.815   7.600 -33.292  1.00  0.00     0.001 A 
HETATM   32  C   UNL     1      -2.003   6.520 -34.151  1.00  0.00     0.000 A 
HETATM   33  C   UNL     1      -1.638   5.238 -33.744  1.00  0.00     0.001 A 
HETATM   34  C   UNL     1      -1.081   5.036 -32.477  1.00  0.00     0.014 A 
ENDBRANCH  25  29
ENDBRANCH  22  23
ENDBRANCH  21  22
ENDBRANCH  20  21
ENDBRANCH   2  20
TORSDOF 8
ENDMDL
MODEL 4
REMARK VINA RESULT:      -8.6      2.673      4.038
REMARK  8 active torsions:
REMARK  status: ('A' for Active; 'I' for Inactive)
REMARK       I    between atoms: C_2  and  N_3 
REMARK    1  A    between atoms: N_3  and  C_4 
REMARK    2  A    between atoms: C_6  and  N_7 
REMARK       I    between atoms: N_7  and  C_8 
REMARK    3  A    between atoms: C_8  and  C_9 
REMARK       I    between atoms: C_9  and  N_10 
REMARK    4  A    between atoms: N_10  and  C_11 
REMARK    5  A    between atoms: C_11  and  C_12 
REMARK    6  A    between atoms: C_12  and  S_13 
REMARK    7  A    between atoms: S_13  and  C_14 
REMARK    8  A    between atoms: C_16  and  C_17 
ROOT
HETATM    1  C   UNL     1      -2.951   5.984 -34.071  1.00  0.00     0.309 C 
HETATM    2  N   UNL     1      -4.260   5.753 -33.719  1.00  0.00    -0.352 N 
HETATM    3  O   UNL     1      -2.326   5.417 -34.957  1.00  0.00    -0.262 OA
HETATM    4  H   UNL     1      -4.587   6.242 -32.887  1.00  0.00     0.162 HD
ENDROOT
BRANCH   1   5
HETATM    5  C   UNL     1      -2.266   7.076 -33.219  1.00  0.00     0.313 C 
HETATM    6  N   UNL     1      -2.625   6.994 -31.891  1.00  0.00    -0.319 N 
HETATM    7  H   UNL     1      -3.243   6.216 -31.675  1.00  0.00     0.169 HD
HETATM    8  O   UNL     1      -1.505   7.853 -33.777  1.00  0.00    -0.262 OA
BRANCH   6   9
HETATM    9  C   UNL     1      -2.236   7.839 -30.837  1.00  0.00     0.037 A 
HETATM   10  C   UNL     1      -1.446   7.426 -29.756  1.00  0.00     0.059 A 
HETATM   11  C   UNL     1      -1.088   8.328 -28.746  1.00  0.00     0.036 A 
HETATM   12  C   UNL     1      -1.547   9.650 -28.820  1.00  0.00     0.029 A 
HETATM   13  C   UNL     1      -2.330  10.070 -29.895  1.00  0.00     0.004 A 
HETATM   14  C   UNL     1      -2.667   9.168 -30.902  1.00  0.00     0.029 A 
BRANCH  11  15
HETATM   15  N   UNL     1      -0.285   7.998 -27.632  1.00  0.00    -0.327 N 
HETATM   16  C   UNL     1       1.069   8.223 -27.469  1.00  0.00     0.218 C 
HETATM   17  C   UNL     1       1.599   7.703 -26.155  1.00  0.00     0.117 C 
HETATM   18  O   UNL     1       1.821   8.796 -28.249  1.00  0.00    -0.274 OA
HETATM   19  H   UNL     1      -0.774   7.583 -26.849  1.00  0.00     0.169 HD
ENDBRANCH  11  15
ENDBRANCH   6   9
ENDBRANCH   1   5
BRANCH   2  20
HETATM   20  C   UNL     1      -5.037   4.651 -34.246  1.00  0.00     0.133 C 
BRANCH  20  21
HETATM   21  C   UNL     1      -5.793   3.876 -33.164  1.00  0.00     0.102 C 
BRANCH  21  22
HETATM   22  S   UNL     1      -7.019   2.748 -33.910  1.00  0.00    -0.090 SA
BRANCH  22  23
HETATM   23  C   UNL     1      -6.208   1.241 -33.732  1.00  0.00     0.166 A 
HETATM   24  N   UNL     1      -6.518   0.090 -34.272  1.00  0.00    -0.223 NA
HETATM   25  C   UNL     1      -5.580  -0.802 -33.790  1.00  0.00     0.085 A 
HETATM   26  C   UNL     1      -4.693  -0.153 -32.954  1.00  0.00     0.122 A 
HETATM   27  N   UNL     1      -5.110   1.151 -32.930  1.00  0.00    -0.343 N 
HETATM   28  H   UNL     1      -4.700   1.920 -32.420  1.00  0.00     0.167 HD
BRANCH  25  29
HETATM   29  C   UNL     1      -5.573  -2.216 -34.141  1.00  0.00    -0.006 A 
HETATM   30  C   UNL     1      -4.405  -2.968 -33.947  1.00  0.00     0.014 A 
HETATM   31  C   UNL     1      -4.360  -4.325 -34.278  1.00  0.00     0.001 A 
HETATM   32  C   UNL     1      -5.486  -4.948 -34.809  1.00  0.00     0.000 A 
HETATM   33  C   UNL     1      -6.654  -4.217 -35.010  1.00  0.00     0.001 A 
HETATM   34  C   UNL     1      -6.697  -2.858 -34.678  1.00  0.00     0.014 A 
ENDBRANCH  25  29
ENDBRANCH  22  23
ENDBRANCH  21  22
ENDBRANCH  20  21
ENDBRANCH   2  20
TORSDOF 8
ENDMDL
MODEL 5
REMARK VINA RESULT:      -8.5      2.408      2.941
REMARK  8 active torsions:
REMARK  status: ('A' for Active; 'I' for Inactive)
REMARK       I    between atoms: C_2  and  N_3 
REMARK    1  A    between atoms: N_3  and  C_4 
REMARK    2  A    between atoms: C_6  and  N_7 
REMARK       I    between atoms: N_7  and  C_8 
REMARK    3  A    between atoms: C_8  and  C_9 
REMARK       I    between atoms: C_9  and  N_10 
REMARK    4  A    between atoms: N_10  and  C_11 
REMARK    5  A    between atoms: C_11  and  C_12 
REMARK    6  A    between atoms: C_12  and  S_13 
REMARK    7  A    between atoms: S_13  and  C_14 
REMARK    8  A    between atoms: C_16  and  C_17 
ROOT
HETATM    1  C   UNL     1      -7.864   4.887 -33.496  1.00  0.00     0.309 C 
HETATM    2  N   UNL     1      -8.363   4.919 -32.215  1.00  0.00    -0.352 N 
HETATM    3  O   UNL     1      -8.485   5.122 -34.524  1.00  0.00    -0.262 OA
HETATM    4  H   UNL     1      -7.731   4.592 -31.486  1.00  0.00     0.162 HD
ENDROOT
BRANCH   1   5
HETATM    5  C   UNL     1      -6.369   4.506 -33.566  1.00  0.00     0.313 C 
HETATM    6  N   UNL     1      -5.553   5.617 -33.554  1.00  0.00    -0.319 N 
HETATM    7  H   UNL     1      -6.052   6.499 -33.461  1.00  0.00     0.169 HD
HETATM    8  O   UNL     1      -6.074   3.321 -33.608  1.00  0.00    -0.262 OA
BRANCH   6   9
HETATM    9  C   UNL     1      -4.151   5.661 -33.645  1.00  0.00     0.037 A 
HETATM   10  C   UNL     1      -3.314   6.105 -32.612  1.00  0.00     0.059 A 
HETATM   11  C   UNL     1      -1.922   6.110 -32.771  1.00  0.00     0.036 A 
HETATM   12  C   UNL     1      -1.375   5.682 -33.988  1.00  0.00     0.029 A 
HETATM   13  C   UNL     1      -2.201   5.236 -35.019  1.00  0.00     0.004 A 
HETATM   14  C   UNL     1      -3.582   5.220 -34.844  1.00  0.00     0.029 A 
BRANCH  11  15
HETATM   15  N   UNL     1      -1.010   6.527 -31.777  1.00  0.00    -0.327 N 
HETATM   16  C   UNL     1      -0.414   5.753 -30.799  1.00  0.00     0.218 C 
HETATM   17  C   UNL     1       0.486   6.549 -29.884  1.00  0.00     0.117 C 
HETATM   18  O   UNL     1      -0.534   4.544 -30.638  1.00  0.00    -0.274 OA
HETATM   19  H   UNL     1      -0.734   7.500 -31.817  1.00  0.00     0.169 HD
ENDBRANCH  11  15
ENDBRANCH   6   9
ENDBRANCH   1   5
BRANCH   2  20
HETATM   20  C   UNL     1      -9.774   5.063 -31.921  1.00  0.00     0.133 C 
BRANCH  20  21
HETATM   21  C   UNL     1     -10.414   3.773 -31.401  1.00  0.00     0.102 C 
BRANCH  21  22
HETATM   22  S   UNL     1     -10.619   2.560 -32.750  1.00  0.00    -0.090 SA
BRANCH  22  23
HETATM   23  C   UNL     1      -9.242   1.562 -32.487  1.00  0.00     0.166 A 
HETATM   24  N   UNL     1      -8.625   0.798 -33.351  1.00  0.00    -0.223 NA
HETATM   25  C   UNL     1      -7.612   0.188 -32.636  1.00  0.00     0.085 A 
HETATM   26  C   UNL     1      -7.633   0.614 -31.323  1.00  0.00     0.122 A 
HETATM   27  N   UNL     1      -8.681   1.493 -31.248  1.00  0.00    -0.343 N 
HETATM   28  H   UNL     1      -8.999   2.003 -30.437  1.00  0.00     0.167 HD
BRANCH  25  29
HETATM   29  C   UNL     1      -6.683  -0.765 -33.229  1.00  0.00    -0.006 A 
HETATM   30  C   UNL     1      -5.354  -0.801 -32.781  1.00  0.00     0.014 A 
HETATM   31  C   UNL     1      -4.434  -1.698 -33.331  1.00  0.00     0.001 A 
HETATM   32  C   UNL     1      -4.833  -2.572 -34.339  1.00  0.00     0.000 A 
HETATM   33  C   UNL     1      -6.148  -2.549 -34.797  1.00  0.00     0.001 A 
HETATM   34  C   UNL     1      -7.068  -1.651 -34.245  1.00  0.00     0.014 A 
ENDBRANCH  25  29
ENDBRANCH  22  23
ENDBRANCH  21  22
ENDBRANCH  20  21
ENDBRANCH   2  20
TORSDOF 8
ENDMDL
MODEL 6
REMARK VINA RESULT:      -8.3      3.970      9.034
REMARK  8 active torsions:
REMARK  status: ('A' for Active; 'I' for Inactive)
REMARK       I    between atoms: C_2  and  N_3 
REMARK    1  A    between atoms: N_3  and  C_4 
REMARK    2  A    between atoms: C_6  and  N_7 
REMARK       I    between atoms: N_7  and  C_8 
REMARK    3  A    between atoms: C_8  and  C_9 
REMARK       I    between atoms: C_9  and  N_10 
REMARK    4  A    between atoms: N_10  and  C_11 
REMARK    5  A    between atoms: C_11  and  C_12 
REMARK    6  A    between atoms: C_12  and  S_13 
REMARK    7  A    between atoms: S_13  and  C_14 
REMARK    8  A    between atoms: C_16  and  C_17 
ROOT
HETATM    1  C   UNL     1      -5.080   5.925 -27.761  1.00  0.00     0.309 C 
HETATM    2  N   UNL     1      -3.923   6.666 -27.750  1.00  0.00    -0.352 N 
HETATM    3  O   UNL     1      -5.825   5.725 -26.812  1.00  0.00    -0.262 OA
HETATM    4  H   UNL     1      -3.371   6.638 -28.606  1.00  0.00     0.162 HD
ENDROOT
BRANCH   1   5
HETATM    5  C   UNL     1      -5.408   5.313 -29.142  1.00  0.00     0.313 C 
HETATM    6  N   UNL     1      -5.267   3.942 -29.143  1.00  0.00    -0.319 N 
HETATM    7  H   UNL     1      -5.014   3.548 -28.241  1.00  0.00     0.169 HD
HETATM    8  O   UNL     1      -5.753   6.064 -30.041  1.00  0.00    -0.262 OA
BRANCH   6   9
HETATM    9  C   UNL     1      -5.438   3.057 -30.223  1.00  0.00     0.037 A 
HETATM   10  C   UNL     1      -6.599   2.300 -30.436  1.00  0.00     0.059 A 
HETATM   11  C   UNL     1      -6.702   1.446 -31.541  1.00  0.00     0.036 A 
HETATM   12  C   UNL     1      -5.620   1.342 -32.425  1.00  0.00     0.029 A 
HETATM   13  C   UNL     1      -4.464   2.095 -32.222  1.00  0.00     0.004 A 
HETATM   14  C   UNL     1      -4.378   2.953 -31.128  1.00  0.00     0.029 A 
BRANCH  11  15
HETATM   15  N   UNL     1      -7.839   0.661 -31.836  1.00  0.00    -0.327 N 
HETATM   16  C   UNL     1      -8.928   1.009 -32.614  1.00  0.00     0.218 C 
HETATM   17  C   UNL     1      -9.975  -0.077 -32.680  1.00  0.00     0.117 C 
HETATM   18  O   UNL     1      -9.090   2.054 -33.233  1.00  0.00    -0.274 OA
HETATM   19  H   UNL     1      -7.829  -0.279 -31.463  1.00  0.00     0.169 HD
ENDBRANCH  11  15
ENDBRANCH   6   9
ENDBRANCH   1   5
BRANCH   2  20
HETATM   20  C   UNL     1      -3.320   7.171 -26.534  1.00  0.00     0.133 C 
BRANCH  20  21
HETATM   21  C   UNL     1      -2.099   6.364 -26.087  1.00  0.00     0.102 C 
BRANCH  21  22
HETATM   22  S   UNL     1      -0.554   7.156 -26.652  1.00  0.00    -0.090 SA
BRANCH  22  23
HETATM   23  C   UNL     1      -0.406   6.470 -28.223  1.00  0.00     0.166 A 
HETATM   24  N   UNL     1      -1.019   6.831 -29.321  1.00  0.00    -0.223 NA
HETATM   25  C   UNL     1      -0.581   5.947 -30.288  1.00  0.00     0.085 A 
HETATM   26  C   UNL     1       0.318   5.052 -29.742  1.00  0.00     0.122 A 
HETATM   27  N   UNL     1       0.418   5.403 -28.423  1.00  0.00    -0.343 N 
HETATM   28  H   UNL     1       0.986   4.967 -27.711  1.00  0.00     0.167 HD
BRANCH  25  29
HETATM   29  C   UNL     1      -1.037   5.993 -31.671  1.00  0.00    -0.006 A 
HETATM   30  C   UNL     1      -1.081   7.224 -32.341  1.00  0.00     0.014 A 
HETATM   31  C   UNL     1      -1.518   7.307 -33.666  1.00  0.00     0.001 A 
HETATM   32  C   UNL     1      -1.917   6.155 -34.339  1.00  0.00     0.000 A 
HETATM   33  C   UNL     1      -1.881   4.924 -33.689  1.00  0.00     0.001 A 
HETATM   34  C   UNL     1      -1.443   4.843 -32.363  1.00  0.00     0.014 A 
ENDBRANCH  25  29
ENDBRANCH  22  23
ENDBRANCH  21  22
ENDBRANCH  20  21
ENDBRANCH   2  20
TORSDOF 8
ENDMDL
MODEL 7
REMARK VINA RESULT:      -8.3      2.849      3.877
REMARK  8 active torsions:
REMARK  status: ('A' for Active; 'I' for Inactive)
REMARK       I    between atoms: C_2  and  N_3 
REMARK    1  A    between atoms: N_3  and  C_4 
REMARK    2  A    between atoms: C_6  and  N_7 
REMARK       I    between atoms: N_7  and  C_8 
REMARK    3  A    between atoms: C_8  and  C_9 
REMARK       I    between atoms: C_9  and  N_10 
REMARK    4  A    between atoms: N_10  and  C_11 
REMARK    5  A    between atoms: C_11  and  C_12 
REMARK    6  A    between atoms: C_12  and  S_13 
REMARK    7  A    between atoms: S_13  and  C_14 
REMARK    8  A    between atoms: C_16  and  C_17 
ROOT
HETATM    1  C   UNL     1      -7.050   5.467 -33.186  1.00  0.00     0.309 C 
HETATM    2  N   UNL     1      -7.792   5.579 -32.034  1.00  0.00    -0.352 N 
HETATM    3  O   UNL     1      -7.446   5.057 -34.268  1.00  0.00    -0.262 OA
HETATM    4  H   UNL     1      -7.272   5.840 -31.197  1.00  0.00     0.162 HD
ENDROOT
BRANCH   1   5
HETATM    5  C   UNL     1      -5.582   5.919 -33.020  1.00  0.00     0.313 C 
HETATM    6  N   UNL     1      -5.331   6.403 -31.754  1.00  0.00    -0.319 N 
HETATM    7  H   UNL     1      -6.127   6.351 -31.124  1.00  0.00     0.169 HD
HETATM    8  O   UNL     1      -4.826   5.795 -33.973  1.00  0.00    -0.262 OA
BRANCH   6   9
HETATM    9  C   UNL     1      -4.130   6.936 -31.255  1.00  0.00     0.037 A 
HETATM   10  C   UNL     1      -3.107   6.163 -30.690  1.00  0.00     0.059 A 
HETATM   11  C   UNL     1      -1.930   6.763 -30.223  1.00  0.00     0.036 A 
HETATM   12  C   UNL     1      -1.796   8.155 -30.311  1.00  0.00     0.029 A 
HETATM   13  C   UNL     1      -2.808   8.931 -30.876  1.00  0.00     0.004 A 
HETATM   14  C   UNL     1      -3.966   8.322 -31.352  1.00  0.00     0.029 A 
BRANCH  11  15
HETATM   15  N   UNL     1      -0.848   6.057 -29.654  1.00  0.00    -0.327 N 
HETATM   16  C   UNL     1       0.018   5.184 -30.286  1.00  0.00     0.218 C 
HETATM   17  C   UNL     1       1.039   4.585 -29.350  1.00  0.00     0.117 C 
HETATM   18  O   UNL     1       0.034   4.893 -31.477  1.00  0.00    -0.274 OA
HETATM   19  H   UNL     1      -0.667   6.247 -28.677  1.00  0.00     0.169 HD
ENDBRANCH  11  15
ENDBRANCH   6   9
ENDBRANCH   1   5
BRANCH   2  20
HETATM   20  C   UNL     1      -9.129   5.040 -31.900  1.00  0.00     0.133 C 
BRANCH  20  21
HETATM   21  C   UNL     1      -9.190   3.793 -31.014  1.00  0.00     0.102 C 
BRANCH  21  22
HETATM   22  S   UNL     1      -7.772   3.743 -29.864  1.00  0.00    -0.090 SA
BRANCH  22  23
HETATM   23  C   UNL     1      -7.026   2.271 -30.350  1.00  0.00     0.166 A 
HETATM   24  N   UNL     1      -7.044   1.711 -31.532  1.00  0.00    -0.223 NA
HETATM   25  C   UNL     1      -6.330   0.537 -31.388  1.00  0.00     0.085 A 
HETATM   26  C   UNL     1      -5.876   0.413 -30.090  1.00  0.00     0.122 A 
HETATM   27  N   UNL     1      -6.330   1.531 -29.443  1.00  0.00    -0.343 N 
HETATM   28  H   UNL     1      -6.190   1.781 -28.474  1.00  0.00     0.167 HD
BRANCH  25  29
HETATM   29  C   UNL     1      -6.119  -0.404 -32.480  1.00  0.00    -0.006 A 
HETATM   30  C   UNL     1      -7.153  -0.637 -33.398  1.00  0.00     0.014 A 
HETATM   31  C   UNL     1      -6.988  -1.537 -34.455  1.00  0.00     0.001 A 
HETATM   32  C   UNL     1      -5.782  -2.217 -34.606  1.00  0.00     0.000 A 
HETATM   33  C   UNL     1      -4.744  -1.999 -33.703  1.00  0.00     0.001 A 
HETATM   34  C   UNL     1      -4.911  -1.097 -32.646  1.00  0.00     0.014 A 
ENDBRANCH  25  29
ENDBRANCH  22  23
ENDBRANCH  21  22
ENDBRANCH  20  21
ENDBRANCH   2  20
TORSDOF 8
ENDMDL
MODEL 8
REMARK VINA RESULT:      -8.2      3.415      7.408
REMARK  8 active torsions:
REMARK  status: ('A' for Active; 'I' for Inactive)
REMARK       I    between atoms: C_2  and  N_3 
REMARK    1  A    between atoms: N_3  and  C_4 
REMARK    2  A    between atoms: C_6  and  N_7 
REMARK       I    between atoms: N_7  and  C_8 
REMARK    3  A    between atoms: C_8  and  C_9 
REMARK       I    between atoms: C_9  and  N_10 
REMARK    4  A    between atoms: N_10  and  C_11 
REMARK    5  A    between atoms: C_11  and  C_12 
REMARK    6  A    between atoms: C_12  and  S_13 
REMARK    7  A    between atoms: S_13  and  C_14 
REMARK    8  A    between atoms: C_16  and  C_17 
ROOT
HETATM    1  C   UNL     1      -6.790   5.292 -29.447  1.00  0.00     0.309 C 
HETATM    2  N   UNL     1      -6.067   6.031 -30.353  1.00  0.00    -0.352 N 
HETATM    3  O   UNL     1      -6.555   5.173 -28.253  1.00  0.00    -0.262 OA
HETATM    4  H   UNL     1      -6.345   5.931 -31.328  1.00  0.00     0.162 HD
ENDROOT
BRANCH   1   5
HETATM    5  C   UNL     1      -8.003   4.567 -30.072  1.00  0.00     0.313 C 
HETATM    6  N   UNL     1      -7.615   3.552 -30.920  1.00  0.00    -0.319 N 
HETATM    7  H   UNL     1      -6.609   3.414 -30.972  1.00  0.00     0.169 HD
HETATM    8  O   UNL     1      -9.125   4.936 -29.757  1.00  0.00    -0.262 OA
BRANCH   6   9
HETATM    9  C   UNL     1      -8.435   2.710 -31.692  1.00  0.00     0.037 A 
HETATM   10  C   UNL     1      -9.125   3.128 -32.838  1.00  0.00     0.059 A 
HETATM   11  C   UNL     1      -9.917   2.229 -33.564  1.00  0.00     0.036 A 
HETATM   12  C   UNL     1     -10.025   0.905 -33.120  1.00  0.00     0.029 A 
HETATM   13  C   UNL     1      -9.337   0.480 -31.983  1.00  0.00     0.004 A 
HETATM   14  C   UNL     1      -8.541   1.378 -31.277  1.00  0.00     0.029 A 
BRANCH  11  15
HETATM   15  N   UNL     1     -10.632   2.565 -34.735  1.00  0.00    -0.327 N 
HETATM   16  C   UNL     1     -11.911   3.082 -34.824  1.00  0.00     0.218 C 
HETATM   17  C   UNL     1     -12.366   3.287 -36.249  1.00  0.00     0.117 C 
HETATM   18  O   UNL     1     -12.651   3.388 -33.896  1.00  0.00    -0.274 OA
HETATM   19  H   UNL     1     -10.128   2.448 -35.604  1.00  0.00     0.169 HD
ENDBRANCH  11  15
ENDBRANCH   6   9
ENDBRANCH   1   5
BRANCH   2  20
HETATM   20  C   UNL     1      -4.790   6.636 -30.037  1.00  0.00     0.133 C 
BRANCH  20  21
HETATM   21  C   UNL     1      -3.625   6.031 -30.825  1.00  0.00     0.102 C 
BRANCH  21  22
HETATM   22  S   UNL     1      -4.096   5.752 -32.567  1.00  0.00    -0.090 SA
BRANCH  22  23
HETATM   23  C   UNL     1      -4.378   4.054 -32.548  1.00  0.00     0.166 A 
HETATM   24  N   UNL     1      -5.138   3.355 -33.352  1.00  0.00    -0.223 NA
HETATM   25  C   UNL     1      -5.049   2.055 -32.894  1.00  0.00     0.085 A 
HETATM   26  C   UNL     1      -4.207   1.991 -31.802  1.00  0.00     0.122 A 
HETATM   27  N   UNL     1      -3.788   3.278 -31.597  1.00  0.00    -0.343 N 
HETATM   28  H   UNL     1      -3.162   3.615 -30.879  1.00  0.00     0.167 HD
BRANCH  25  29
HETATM   29  C   UNL     1      -5.763   0.944 -33.511  1.00  0.00    -0.006 A 
HETATM   30  C   UNL     1      -5.613  -0.347 -32.986  1.00  0.00     0.014 A 
HETATM   31  C   UNL     1      -6.279  -1.437 -33.556  1.00  0.00     0.001 A 
HETATM   32  C   UNL     1      -7.104  -1.247 -34.660  1.00  0.00     0.000 A 
HETATM   33  C   UNL     1      -7.264   0.029 -35.195  1.00  0.00     0.001 A 
HETATM   34  C   UNL     1      -6.598   1.119 -34.624  1.00  0.00     0.014 A 
ENDBRANCH  25  29
ENDBRANCH  22  23
ENDBRANCH  21  22
ENDBRANCH  20  21
ENDBRANCH   2  20
TORSDOF 8
ENDMDL
MODEL 9
REMARK VINA RESULT:      -7.9      2.701      9.888
REMARK  8 active torsions:
REMARK  status: ('A' for Active; 'I' for Inactive)
REMARK       I    between atoms: C_2  and  N_3 
REMARK    1  A    between atoms: N_3  and  C_4 
REMARK    2  A    between atoms: C_6  and  N_7 
REMARK       I    between atoms: N_7  and  C_8 
REMARK    3  A    between atoms: C_8  and  C_9 
REMARK       I    between atoms: C_9  and  N_10 
REMARK    4  A    between atoms: N_10  and  C_11 
REMARK    5  A    between atoms: C_11  and  C_12 
REMARK    6  A    between atoms: C_12  and  S_13 
REMARK    7  A    between atoms: S_13  and  C_14 
REMARK    8  A    between atoms: C_16  and  C_17 
ROOT
HETATM    1  C   UNL     1      -4.404   3.426 -31.229  1.00  0.00     0.309 C 
HETATM    2  N   UNL     1      -5.076   4.503 -30.701  1.00  0.00    -0.352 N 
HETATM    3  O   UNL     1      -3.192   3.317 -31.355  1.00  0.00    -0.262 OA
HETATM    4  H   UNL     1      -6.092   4.468 -30.770  1.00  0.00     0.162 HD
ENDROOT
BRANCH   1   5
HETATM    5  C   UNL     1      -5.336   2.283 -31.690  1.00  0.00     0.313 C 
HETATM    6  N   UNL     1      -4.818   1.601 -32.770  1.00  0.00    -0.319 N 
HETATM    7  H   UNL     1      -3.901   1.924 -33.066  1.00  0.00     0.169 HD
HETATM    8  O   UNL     1      -6.375   2.099 -31.074  1.00  0.00    -0.262 OA
BRANCH   6   9
HETATM    9  C   UNL     1      -5.401   0.536 -33.479  1.00  0.00     0.037 A 
HETATM   10  C   UNL     1      -4.863  -0.757 -33.529  1.00  0.00     0.059 A 
HETATM   11  C   UNL     1      -5.506  -1.772 -34.249  1.00  0.00     0.036 A 
HETATM   12  C   UNL     1      -6.690  -1.474 -34.936  1.00  0.00     0.029 A 
HETATM   13  C   UNL     1      -7.234  -0.191 -34.888  1.00  0.00     0.004 A 
HETATM   14  C   UNL     1      -6.595   0.807 -34.157  1.00  0.00     0.029 A 
BRANCH  11  15
HETATM   15  N   UNL     1      -5.039  -3.102 -34.338  1.00  0.00    -0.327 N 
HETATM   16  C   UNL     1      -4.042  -3.700 -33.590  1.00  0.00     0.218 C 
HETATM   17  C   UNL     1      -3.787  -5.134 -33.986  1.00  0.00     0.117 C 
HETATM   18  O   UNL     1      -3.403  -3.195 -32.674  1.00  0.00    -0.274 OA
HETATM   19  H   UNL     1      -5.523  -3.691 -35.002  1.00  0.00     0.169 HD
ENDBRANCH  11  15
ENDBRANCH   6   9
ENDBRANCH   1   5
BRANCH   2  20
HETATM   20  C   UNL     1      -4.429   5.758 -30.382  1.00  0.00     0.133 C 
BRANCH  20  21
HETATM   21  C   UNL     1      -4.515   6.784 -31.515  1.00  0.00     0.102 C 
BRANCH  21  22
HETATM   22  S   UNL     1      -2.991   6.768 -32.522  1.00  0.00    -0.090 SA
BRANCH  22  23
HETATM   23  C   UNL     1      -1.813   6.473 -31.303  1.00  0.00     0.166 A 
HETATM   24  N   UNL     1      -1.448   7.266 -30.328  1.00  0.00    -0.223 NA
HETATM   25  C   UNL     1      -0.455   6.580 -29.656  1.00  0.00     0.085 A 
HETATM   26  C   UNL     1      -0.242   5.351 -30.248  1.00  0.00     0.122 A 
HETATM   27  N   UNL     1      -1.119   5.301 -31.298  1.00  0.00    -0.343 N 
HETATM   28  H   UNL     1      -1.246   4.549 -31.960  1.00  0.00     0.167 HD
BRANCH  25  29
HETATM   29  C   UNL     1       0.239   7.121 -28.495  1.00  0.00    -0.006 A 
HETATM   30  C   UNL     1       0.025   6.546 -27.234  1.00  0.00     0.014 A 
HETATM   31  C   UNL     1       0.669   7.042 -26.098  1.00  0.00     0.001 A 
HETATM   32  C   UNL     1       1.538   8.124 -26.209  1.00  0.00     0.000 A 
HETATM   33  C   UNL     1       1.762   8.710 -27.453  1.00  0.00     0.001 A 
HETATM   34  C   UNL     1       1.117   8.210 -28.590  1.00  0.00     0.014 A 
ENDBRANCH  25  29
ENDBRANCH  22  23
ENDBRANCH  21  22
ENDBRANCH  20  21
ENDBRANCH   2  20
TORSDOF 8
ENDMDL
MODEL 10
REMARK VINA RESULT:      -7.8      3.015     10.098
REMARK  8 active torsions:
REMARK  status: ('A' for Active; 'I' for Inactive)
REMARK       I    between atoms: C_2  and  N_3 
REMARK    1  A    between atoms: N_3  and  C_4 
REMARK    2  A    between atoms: C_6  and  N_7 
REMARK       I    between atoms: N_7  and  C_8 
REMARK    3  A    between atoms: C_8  and  C_9 
REMARK       I    between atoms: C_9  and  N_10 
REMARK    4  A    between atoms: N_10  and  C_11 
REMARK    5  A    between atoms: C_11  and  C_12 
REMARK    6  A    between atoms: C_12  and  S_13 
REMARK    7  A    between atoms: S_13  and  C_14 
REMARK    8  A    between atoms: C_16  and  C_17 
ROOT
HETATM    1  C   UNL     1      -4.135   3.390 -32.025  1.00  0.00     0.309 C 
HETATM    2  N   UNL     1      -3.878   3.640 -33.352  1.00  0.00    -0.352 N 
HETATM    3  O   UNL     1      -4.223   4.221 -31.133  1.00  0.00    -0.262 OA
HETATM    4  H   UNL     1      -3.733   2.818 -33.937  1.00  0.00     0.162 HD
ENDROOT
BRANCH   1   5
HETATM    5  C   UNL     1      -4.314   1.889 -31.704  1.00  0.00     0.313 C 
HETATM    6  N   UNL     1      -3.647   1.086 -32.603  1.00  0.00    -0.319 N 
HETATM    7  H   UNL     1      -3.116   1.598 -33.304  1.00  0.00     0.169 HD
HETATM    8  O   UNL     1      -4.982   1.582 -30.727  1.00  0.00    -0.262 OA
BRANCH   6   9
HETATM    9  C   UNL     1      -3.617  -0.319 -32.651  1.00  0.00     0.037 A 
HETATM   10  C   UNL     1      -4.337  -1.084 -33.579  1.00  0.00     0.059 A 
HETATM   11  C   UNL     1      -4.249  -2.482 -33.574  1.00  0.00     0.036 A 
HETATM   12  C   UNL     1      -3.445  -3.110 -32.614  1.00  0.00     0.029 A 
HETATM   13  C   UNL     1      -2.722  -2.355 -31.691  1.00  0.00     0.004 A 
HETATM   14  C   UNL     1      -2.804  -0.965 -31.715  1.00  0.00     0.029 A 
BRANCH  11  15
HETATM   15  N   UNL     1      -4.930  -3.325 -34.481  1.00  0.00    -0.327 N 
HETATM   16  C   UNL     1      -6.293  -3.417 -34.689  1.00  0.00     0.218 C 
HETATM   17  C   UNL     1      -6.663  -4.456 -35.719  1.00  0.00     0.117 C 
HETATM   18  O   UNL     1      -7.169  -2.748 -34.152  1.00  0.00    -0.274 OA
HETATM   19  H   UNL     1      -4.340  -3.896 -35.072  1.00  0.00     0.169 HD
ENDBRANCH  11  15
ENDBRANCH   6   9
ENDBRANCH   1   5
BRANCH   2  20
HETATM   20  C   UNL     1      -3.488   4.943 -33.849  1.00  0.00     0.133 C 
BRANCH  20  21
HETATM   21  C   UNL     1      -1.987   5.213 -33.716  1.00  0.00     0.102 C 
BRANCH  21  22
HETATM   22  S   UNL     1      -1.664   7.000 -33.523  1.00  0.00    -0.090 SA
BRANCH  22  23
HETATM   23  C   UNL     1      -1.716   7.146 -31.810  1.00  0.00     0.166 A 
HETATM   24  N   UNL     1      -0.729   7.416 -30.994  1.00  0.00    -0.223 NA
HETATM   25  C   UNL     1      -1.285   7.384 -29.730  1.00  0.00     0.085 A 
HETATM   26  C   UNL     1      -2.634   7.098 -29.810  1.00  0.00     0.122 A 
HETATM   27  N   UNL     1      -2.890   6.950 -31.147  1.00  0.00    -0.343 N 
HETATM   28  H   UNL     1      -3.774   6.733 -31.584  1.00  0.00     0.167 HD
BRANCH  25  29
HETATM   29  C   UNL     1      -0.515   7.623 -28.516  1.00  0.00    -0.006 A 
HETATM   30  C   UNL     1       0.831   8.007 -28.620  1.00  0.00     0.014 A 
HETATM   31  C   UNL     1       1.602   8.239 -27.477  1.00  0.00     0.001 A 
HETATM   32  C   UNL     1       1.035   8.090 -26.214  1.00  0.00     0.000 A 
HETATM   33  C   UNL     1      -0.299   7.708 -26.093  1.00  0.00     0.001 A 
HETATM   34  C   UNL     1      -1.070   7.477 -27.237  1.00  0.00     0.014 A 
ENDBRANCH  25  29
ENDBRANCH  22  23
ENDBRANCH  21  22
ENDBRANCH  20  21
ENDBRANCH   2  20
TORSDOF 8
ENDMDL
