MODEL 1
REMARK VINA RESULT:      -8.6      0.000      0.000
REMARK  7 active torsions:
REMARK  status: ('A' for Active; 'I' for Inactive)
REMARK    1  A    between atoms: C_6  and  O_7 
REMARK    2  A    between atoms: O_7  and  C_8 
REMARK    3  A    between atoms: C_11  and  C_12 
REMARK       I    between atoms: C_12  and  N_13 
REMARK    4  A    between atoms: N_13  and  C_14 
REMARK    5  A    between atoms: N_22  and  C_23 
REMARK    6  A    between atoms: C_23  and  C_24 
REMARK    7  A    between atoms: C_24  and  O_25 
ROOT
HETATM    1  C           1      -5.180   4.644 -30.268  0.00  0.00     0.113 A 
HETATM    2  C           1      -4.779   5.890 -29.921  0.00  0.00     0.102 A 
HETATM    3  C           1      -6.301   4.122 -29.726  0.00  0.00     0.002 A 
HETATM    4  C           1      -6.770   2.749 -30.137  0.00  0.00     0.138 C 
HETATM    5  C           1      -5.610   1.945 -30.739  0.00  0.00     0.161 C 
HETATM    6  C           1      -5.036   2.859 -31.843  0.00  0.00     0.155 C 
HETATM    7  C           1      -3.891   2.137 -32.572  0.00  0.00     0.072 C 
HETATM    8  N           1      -6.091   3.317 -32.776  0.00  0.00    -0.323 N 
HETATM    9  C           1      -7.439   3.196 -32.470  0.00  0.00     0.172 C 
HETATM   10  S           1      -8.616   3.468 -33.490  0.00  0.00    -0.041 SA
HETATM   11  N           1      -7.786   2.936 -31.167  0.00  0.00    -0.357 N 
HETATM   12  O           1      -4.442   3.965 -31.206  0.00  0.00    -0.316 OA
HETATM   13  C           1      -7.015   4.818 -28.828  0.00  0.00     0.012 A 
HETATM   14  C           1      -6.620   6.044 -28.467  0.00  0.00     0.003 A 
HETATM   15  C           1      -5.515   6.567 -29.016  0.00  0.00     0.040 A 
HETATM   16  H           1      -8.771   2.940 -30.900  0.00  0.00     0.162 HD
ENDROOT
BRANCH   5  17
HETATM   17  C           1      -6.032   0.527 -31.146  0.00  0.00     0.233 C 
HETATM   18  N           1      -5.634   0.166 -32.400  0.00  0.00    -0.326 N 
HETATM   19  H           1      -5.075   0.835 -32.907  0.00  0.00     0.169 HD
HETATM   20  O           1      -6.623  -0.202 -30.390  0.00  0.00    -0.273 OA
BRANCH  18  21
HETATM   21  C           1      -5.810  -0.942 -33.153  0.00  0.00     0.040 A 
HETATM   22  C           1      -4.745  -1.762 -33.285  0.00  0.00    -0.035 A 
HETATM   23  C           1      -3.419  -1.463 -32.613  0.00  0.00     0.050 C 
HETATM   24  C           1      -4.857  -2.880 -34.026  0.00  0.00     0.015 A 
HETATM   25  C           1      -5.996  -3.216 -34.651  0.00  0.00    -0.061 A 
HETATM   26  C           1      -6.079  -4.481 -35.472  0.00  0.00     0.048 C 
HETATM   27  C           1      -7.048  -2.393 -34.515  0.00  0.00     0.009 A 
HETATM   28  C           1      -6.952  -1.276 -33.780  0.00  0.00     0.030 A 
ENDBRANCH  18  21
ENDBRANCH   5  17
BRANCH   8  29
HETATM   29  C           1      -5.632   4.056 -33.960  0.00  0.00     0.154 C 
BRANCH  29  30
HETATM   30  C           1      -5.535   5.567 -33.723  0.00  0.00     0.187 C 
BRANCH  30  31
HETATM   31  O           1      -4.206   5.972 -33.944  0.00  0.00    -0.394 OA
HETATM   32  C           1      -3.611   5.286 -35.026  0.00  0.00     0.201 C 
ENDBRANCH  30  31
ENDBRANCH  29  30
ENDBRANCH   8  29
BRANCH   2  33
HETATM   33  O           1      -3.642   6.383 -30.522  0.00  0.00    -0.349 OA
BRANCH  33  34
HETATM   34  C           1      -3.583   7.738 -30.882  0.00  0.00     0.171 C 
HETATM   35  C           1      -2.297   7.972 -31.672  0.00  0.00     0.034 C 
ENDBRANCH  33  34
ENDBRANCH   2  33
TORSDOF 7
ENDMDL
MODEL 2
REMARK VINA RESULT:      -8.4      2.056      2.999
REMARK  7 active torsions:
REMARK  status: ('A' for Active; 'I' for Inactive)
REMARK    1  A    between atoms: C_6  and  O_7 
REMARK    2  A    between atoms: O_7  and  C_8 
REMARK    3  A    between atoms: C_11  and  C_12 
REMARK       I    between atoms: C_12  and  N_13 
REMARK    4  A    between atoms: N_13  and  C_14 
REMARK    5  A    between atoms: N_22  and  C_23 
REMARK    6  A    between atoms: C_23  and  C_24 
REMARK    7  A    between atoms: C_24  and  O_25 
ROOT
HETATM    1  C           1      -5.763   5.230 -30.712  0.00  0.00     0.113 A 
HETATM    2  C           1      -5.707   6.179 -29.747  0.00  0.00     0.102 A 
HETATM    3  C           1      -6.571   5.403 -31.779  0.00  0.00     0.002 A 
HETATM    4  C           1      -6.608   4.366 -32.874  0.00  0.00     0.138 C 
HETATM    5  C           1      -6.092   3.018 -32.351  0.00  0.00     0.161 C 
HETATM    6  C           1      -4.717   3.344 -31.730  0.00  0.00     0.155 C 
HETATM    7  C           1      -4.060   2.052 -31.216  0.00  0.00     0.072 C 
HETATM    8  N           1      -3.846   4.073 -32.679  0.00  0.00    -0.323 N 
HETATM    9  C           1      -4.353   4.659 -33.832  0.00  0.00     0.172 C 
HETATM   10  S           1      -3.465   5.270 -34.988  0.00  0.00    -0.041 SA
HETATM   11  N           1      -5.712   4.826 -33.929  0.00  0.00    -0.357 N 
HETATM   12  O           1      -4.950   4.131 -30.586  0.00  0.00    -0.316 OA
HETATM   13  C           1      -7.337   6.499 -31.887  0.00  0.00     0.012 A 
HETATM   14  C           1      -7.301   7.435 -30.933  0.00  0.00     0.003 A 
HETATM   15  C           1      -6.489   7.269 -29.879  0.00  0.00     0.040 A 
HETATM   16  H           1      -6.098   5.341 -34.720  0.00  0.00     0.162 HD
ENDROOT
BRANCH   5  17
HETATM   17  C           1      -6.140   1.920 -33.423  0.00  0.00     0.233 C 
HETATM   18  N           1      -6.006   0.655 -32.930  0.00  0.00    -0.326 N 
HETATM   19  H           1      -5.936   0.566 -31.927  0.00  0.00     0.169 HD
HETATM   20  O           1      -6.325   2.175 -34.586  0.00  0.00    -0.273 OA
BRANCH  18  21
HETATM   21  C           1      -5.958  -0.569 -33.498  0.00  0.00     0.040 A 
HETATM   22  C           1      -7.141  -1.150 -33.789  0.00  0.00    -0.035 A 
HETATM   23  C           1      -8.461  -0.462 -33.502  0.00  0.00     0.050 C 
HETATM   24  C           1      -7.159  -2.372 -34.355  0.00  0.00     0.015 A 
HETATM   25  C           1      -6.035  -3.046 -34.641  0.00  0.00    -0.061 A 
HETATM   26  C           1      -6.099  -4.415 -35.277  0.00  0.00     0.048 C 
HETATM   27  C           1      -4.863  -2.461 -34.347  0.00  0.00     0.009 A 
HETATM   28  C           1      -4.830  -1.244 -33.785  0.00  0.00     0.030 A 
ENDBRANCH  18  21
ENDBRANCH   5  17
BRANCH   8  29
HETATM   29  C           1      -2.458   4.288 -32.251  0.00  0.00     0.154 C 
BRANCH  29  30
HETATM   30  C           1      -2.230   5.668 -31.626  0.00  0.00     0.187 C 
BRANCH  30  31
HETATM   31  O           1      -1.188   6.310 -32.320  0.00  0.00    -0.394 OA
HETATM   32  C           1      -1.537   7.620 -32.715  0.00  0.00     0.201 C 
ENDBRANCH  30  31
ENDBRANCH  29  30
ENDBRANCH   8  29
BRANCH   2  33
HETATM   33  O           1      -4.849   5.963 -28.691  0.00  0.00    -0.349 OA
BRANCH  33  34
HETATM   34  C           1      -5.128   6.543 -27.444  0.00  0.00     0.171 C 
HETATM   35  C           1      -3.821   7.064 -26.851  0.00  0.00     0.034 C 
ENDBRANCH  33  34
ENDBRANCH   2  33
TORSDOF 7
ENDMDL
MODEL 3
REMARK VINA RESULT:      -8.1     17.063     19.462
REMARK  7 active torsions:
REMARK  status: ('A' for Active; 'I' for Inactive)
REMARK    1  A    between atoms: C_6  and  O_7 
REMARK    2  A    between atoms: O_7  and  C_8 
REMARK    3  A    between atoms: C_11  and  C_12 
REMARK       I    between atoms: C_12  and  N_13 
REMARK    4  A    between atoms: N_13  and  C_14 
REMARK    5  A    between atoms: N_22  and  C_23 
REMARK    6  A    between atoms: C_23  and  C_24 
REMARK    7  A    between atoms: C_24  and  O_25 
ROOT
HETATM    1  C           1      -8.691 -14.153 -40.072  0.00  0.00     0.113 A 
HETATM    2  C           1      -9.931 -14.515 -40.481  0.00  0.00     0.102 A 
HETATM    3  C           1      -8.446 -12.874 -39.717  0.00  0.00     0.002 A 
HETATM    4  C           1      -7.076 -12.475 -39.227  0.00  0.00     0.138 C 
HETATM    5  C           1      -6.025 -13.492 -39.692  0.00  0.00     0.161 C 
HETATM    6  C           1      -6.575 -14.858 -39.228  0.00  0.00     0.155 C 
HETATM    7  C           1      -5.573 -15.969 -39.585  0.00  0.00     0.072 C 
HETATM    8  N           1      -6.910 -14.852 -37.786  0.00  0.00    -0.323 N 
HETATM    9  C           1      -7.021 -13.669 -37.068  0.00  0.00     0.172 C 
HETATM   10  S           1      -7.170 -13.588 -35.496  0.00  0.00    -0.041 SA
HETATM   11  N           1      -7.124 -12.493 -37.769  0.00  0.00    -0.357 N 
HETATM   12  O           1      -7.727 -15.128 -39.991  0.00  0.00    -0.316 OA
HETATM   13  C           1      -9.414 -11.948 -39.784  0.00  0.00     0.012 A 
HETATM   14  C           1     -10.638 -12.291 -40.201  0.00  0.00     0.003 A 
HETATM   15  C           1     -10.885 -13.564 -40.540  0.00  0.00     0.040 A 
HETATM   16  H           1      -7.303 -11.624 -37.266  0.00  0.00     0.162 HD
ENDROOT
BRANCH   5  17
HETATM   17  C           1      -4.608 -13.113 -39.242  0.00  0.00     0.233 C 
HETATM   18  N           1      -3.671 -14.075 -39.483  0.00  0.00    -0.326 N 
HETATM   19  H           1      -3.988 -14.904 -39.963  0.00  0.00     0.169 HD
HETATM   20  O           1      -4.360 -12.035 -38.762  0.00  0.00    -0.273 OA
BRANCH  18  21
HETATM   21  C           1      -2.348 -14.176 -39.228  0.00  0.00     0.040 A 
HETATM   22  C           1      -1.535 -14.333 -40.295  0.00  0.00    -0.035 A 
HETATM   23  C           1      -2.076 -14.385 -41.711  0.00  0.00     0.050 C 
HETATM   24  C           1      -0.207 -14.442 -40.107  0.00  0.00     0.015 A 
HETATM   25  C           1       0.350 -14.405 -38.886  0.00  0.00    -0.061 A 
HETATM   26  C           1       1.846 -14.530 -38.718  0.00  0.00     0.048 C 
HETATM   27  C           1      -0.467 -14.249 -37.832  0.00  0.00     0.009 A 
HETATM   28  C           1      -1.792 -14.139 -38.004  0.00  0.00     0.030 A 
ENDBRANCH  18  21
ENDBRANCH   5  17
BRANCH   8  29
HETATM   29  C           1      -7.286 -16.146 -37.203  0.00  0.00     0.154 C 
BRANCH  29  30
HETATM   30  C           1      -6.126 -16.837 -36.477  0.00  0.00     0.187 C 
BRANCH  30  31
HETATM   31  O           1      -6.515 -17.094 -35.150  0.00  0.00    -0.394 OA
HETATM   32  C           1      -7.891 -17.391 -35.043  0.00  0.00     0.201 C 
ENDBRANCH  30  31
ENDBRANCH  29  30
ENDBRANCH   8  29
BRANCH   2  33
HETATM   33  O           1     -10.132 -15.838 -40.808  0.00  0.00    -0.349 OA
BRANCH  33  34
HETATM   34  C           1     -10.444 -16.182 -42.131  0.00  0.00     0.171 C 
HETATM   35  C           1      -9.208 -16.809 -42.772  0.00  0.00     0.034 C 
ENDBRANCH  33  34
ENDBRANCH   2  33
TORSDOF 7
ENDMDL
MODEL 4
REMARK VINA RESULT:      -8.1      1.650      1.936
REMARK  7 active torsions:
REMARK  status: ('A' for Active; 'I' for Inactive)
REMARK    1  A    between atoms: C_6  and  O_7 
REMARK    2  A    between atoms: O_7  and  C_8 
REMARK    3  A    between atoms: C_11  and  C_12 
REMARK       I    between atoms: C_12  and  N_13 
REMARK    4  A    between atoms: N_13  and  C_14 
REMARK    5  A    between atoms: N_22  and  C_23 
REMARK    6  A    between atoms: C_23  and  C_24 
REMARK    7  A    between atoms: C_24  and  O_25 
ROOT
HETATM    1  C           1      -6.193   4.990 -30.777  0.00  0.00     0.113 A 
HETATM    2  C           1      -5.974   6.309 -30.565  0.00  0.00     0.102 A 
HETATM    3  C           1      -6.766   4.239 -29.813  0.00  0.00     0.002 A 
HETATM    4  C           1      -7.045   2.777 -30.059  0.00  0.00     0.138 C 
HETATM    5  C           1      -6.161   2.249 -31.197  0.00  0.00     0.161 C 
HETATM    6  C           1      -6.410   3.225 -32.367  0.00  0.00     0.155 C 
HETATM    7  C           1      -5.618   2.767 -33.603  0.00  0.00     0.072 C 
HETATM    8  N           1      -7.854   3.378 -32.655  0.00  0.00    -0.323 N 
HETATM    9  C           1      -8.826   2.952 -31.759  0.00  0.00     0.172 C 
HETATM   10  S           1     -10.372   2.891 -32.080  0.00  0.00    -0.041 SA
HETATM   11  N           1      -8.440   2.673 -30.471  0.00  0.00    -0.357 N 
HETATM   12  O           1      -5.856   4.467 -32.002  0.00  0.00    -0.316 OA
HETATM   13  C           1      -7.106   4.782 -28.634  0.00  0.00     0.012 A 
HETATM   14  C           1      -6.881   6.081 -28.408  0.00  0.00     0.003 A 
HETATM   15  C           1      -6.323   6.829 -29.371  0.00  0.00     0.040 A 
HETATM   16  H           1      -9.150   2.453 -29.773  0.00  0.00     0.162 HD
ENDROOT
BRANCH   5  17
HETATM   17  C           1      -6.387   0.755 -31.466  0.00  0.00     0.233 C 
HETATM   18  N           1      -5.995   0.347 -32.707  0.00  0.00    -0.326 N 
HETATM   19  H           1      -5.564   1.043 -33.296  0.00  0.00     0.169 HD
HETATM   20  O           1      -6.831   0.018 -30.622  0.00  0.00    -0.273 OA
BRANCH  18  21
HETATM   21  C           1      -6.039  -0.836 -33.359  0.00  0.00     0.040 A 
HETATM   22  C           1      -4.862  -1.475 -33.536  0.00  0.00    -0.035 A 
HETATM   23  C           1      -3.557  -0.903 -33.020  0.00  0.00     0.050 C 
HETATM   24  C           1      -4.840  -2.656 -34.180  0.00  0.00     0.015 A 
HETATM   25  C           1      -5.952  -3.231 -34.665  0.00  0.00    -0.061 A 
HETATM   26  C           1      -5.883  -4.558 -35.382  0.00  0.00     0.048 C 
HETATM   27  C           1      -7.116  -2.586 -34.486  0.00  0.00     0.009 A 
HETATM   28  C           1      -7.154  -1.409 -33.845  0.00  0.00     0.030 A 
ENDBRANCH  18  21
ENDBRANCH   5  17
BRANCH   8  29
HETATM   29  C           1      -8.197   4.154 -33.853  0.00  0.00     0.154 C 
BRANCH  29  30
HETATM   30  C           1      -8.618   5.593 -33.536  0.00  0.00     0.187 C 
BRANCH  30  31
HETATM   31  O           1      -9.369   6.090 -34.617  0.00  0.00    -0.394 OA
HETATM   32  C           1     -10.196   5.102 -35.194  0.00  0.00     0.201 C 
ENDBRANCH  30  31
ENDBRANCH  29  30
ENDBRANCH   8  29
BRANCH   2  33
HETATM   33  O           1      -5.407   7.033 -31.591  0.00  0.00    -0.349 OA
BRANCH  33  34
HETATM   34  C           1      -4.088   7.495 -31.464  0.00  0.00     0.171 C 
HETATM   35  C           1      -3.210   6.728 -32.450  0.00  0.00     0.034 C 
ENDBRANCH  33  34
ENDBRANCH   2  33
TORSDOF 7
ENDMDL
MODEL 5
REMARK VINA RESULT:      -7.9      3.093      8.009
REMARK  7 active torsions:
REMARK  status: ('A' for Active; 'I' for Inactive)
REMARK    1  A    between atoms: C_6  and  O_7 
REMARK    2  A    between atoms: O_7  and  C_8 
REMARK    3  A    between atoms: C_11  and  C_12 
REMARK       I    between atoms: C_12  and  N_13 
REMARK    4  A    between atoms: N_13  and  C_14 
REMARK    5  A    between atoms: N_22  and  C_23 
REMARK    6  A    between atoms: C_23  and  C_24 
REMARK    7  A    between atoms: C_24  and  O_25 
ROOT
HETATM    1  C           1      -5.229   2.586 -31.466  0.00  0.00     0.113 A 
HETATM    2  C           1      -6.091   1.544 -31.550  0.00  0.00     0.102 A 
HETATM    3  C           1      -3.925   2.405 -31.760  0.00  0.00     0.002 A 
HETATM    4  C           1      -2.969   3.572 -31.704  0.00  0.00     0.138 C 
HETATM    5  C           1      -3.541   4.689 -30.821  0.00  0.00     0.161 C 
HETATM    6  C           1      -4.950   4.954 -31.395  0.00  0.00     0.155 C 
HETATM    7  C           1      -5.615   6.108 -30.627  0.00  0.00     0.072 C 
HETATM    8  N           1      -4.909   5.205 -32.853  0.00  0.00    -0.323 N 
HETATM    9  C           1      -3.788   4.901 -33.615  0.00  0.00     0.172 C 
HETATM   10  S           1      -3.591   5.325 -35.124  0.00  0.00    -0.041 SA
HETATM   11  N           1      -2.835   4.080 -33.065  0.00  0.00    -0.357 N 
HETATM   12  O           1      -5.734   3.816 -31.123  0.00  0.00    -0.316 OA
HETATM   13  C           1      -3.464   1.197 -32.116  0.00  0.00     0.012 A 
HETATM   14  C           1      -4.303   0.157 -32.187  0.00  0.00     0.003 A 
HETATM   15  C           1      -5.601   0.340 -31.908  0.00  0.00     0.040 A 
HETATM   16  H           1      -2.053   3.764 -33.639  0.00  0.00     0.162 HD
ENDROOT
BRANCH   5  17
HETATM   17  C           1      -2.589   5.888 -30.708  0.00  0.00     0.233 C 
HETATM   18  N           1      -2.044   6.051 -29.468  0.00  0.00    -0.326 N 
HETATM   19  H           1      -2.280   5.355 -28.776  0.00  0.00     0.169 HD
HETATM   20  O           1      -2.328   6.584 -31.657  0.00  0.00    -0.273 OA
BRANCH  18  21
HETATM   21  C           1      -1.208   6.963 -28.927  0.00  0.00     0.040 A 
HETATM   22  C           1       0.089   6.603 -28.809  0.00  0.00    -0.035 A 
HETATM   23  C           1       0.586   5.247 -29.269  0.00  0.00     0.050 C 
HETATM   24  C           1       0.971   7.469 -28.276  0.00  0.00     0.015 A 
HETATM   25  C           1       0.611   8.688 -27.847  0.00  0.00    -0.061 A 
HETATM   26  C           1       1.633   9.630 -27.255  0.00  0.00     0.048 C 
HETATM   27  C           1      -0.680   9.036 -27.967  0.00  0.00     0.009 A 
HETATM   28  C           1      -1.571   8.185 -28.497  0.00  0.00     0.030 A 
ENDBRANCH  18  21
ENDBRANCH   5  17
BRANCH   8  29
HETATM   29  C           1      -6.170   5.630 -33.473  0.00  0.00     0.154 C 
BRANCH  29  30
HETATM   30  C           1      -7.043   4.455 -33.924  0.00  0.00     0.187 C 
BRANCH  30  31
HETATM   31  O           1      -8.282   4.958 -34.363  0.00  0.00    -0.394 OA
HETATM   32  C           1      -9.016   5.559 -33.317  0.00  0.00     0.201 C 
ENDBRANCH  30  31
ENDBRANCH  29  30
ENDBRANCH   8  29
BRANCH   2  33
HETATM   33  O           1      -7.415   1.790 -31.262  0.00  0.00    -0.349 OA
BRANCH  33  34
HETATM   34  C           1      -8.399   0.901 -31.724  0.00  0.00     0.171 C 
HETATM   35  C           1      -9.388   1.681 -32.586  0.00  0.00     0.034 C 
ENDBRANCH  33  34
ENDBRANCH   2  33
TORSDOF 7
ENDMDL
MODEL 6
REMARK VINA RESULT:      -7.9      3.112      6.014
REMARK  7 active torsions:
REMARK  status: ('A' for Active; 'I' for Inactive)
REMARK    1  A    between atoms: C_6  and  O_7 
REMARK    2  A    between atoms: O_7  and  C_8 
REMARK    3  A    between atoms: C_11  and  C_12 
REMARK       I    between atoms: C_12  and  N_13 
REMARK    4  A    between atoms: N_13  and  C_14 
REMARK    5  A    between atoms: N_22  and  C_23 
REMARK    6  A    between atoms: C_23  and  C_24 
REMARK    7  A    between atoms: C_24  and  O_25 
ROOT
HETATM    1  C           1      -4.230   3.865 -32.594  0.00  0.00     0.113 A 
HETATM    2  C           1      -2.955   4.287 -32.774  0.00  0.00     0.102 A 
HETATM    3  C           1      -5.151   4.080 -33.557  0.00  0.00     0.002 A 
HETATM    4  C           1      -6.563   3.579 -33.376  0.00  0.00     0.138 C 
HETATM    5  C           1      -6.861   3.344 -31.889  0.00  0.00     0.161 C 
HETATM    6  C           1      -5.716   2.429 -31.404  0.00  0.00     0.155 C 
HETATM    7  C           1      -5.932   2.066 -29.926  0.00  0.00     0.072 C 
HETATM    8  N           1      -5.577   1.228 -32.259  0.00  0.00    -0.323 N 
HETATM    9  C           1      -6.183   1.144 -33.505  0.00  0.00     0.172 C 
HETATM   10  S           1      -6.253  -0.171 -34.379  0.00  0.00    -0.041 SA
HETATM   11  N           1      -6.655   2.301 -34.074  0.00  0.00    -0.357 N 
HETATM   12  O           1      -4.530   3.186 -31.439  0.00  0.00    -0.316 OA
HETATM   13  C           1      -4.824   4.726 -34.686  0.00  0.00     0.012 A 
HETATM   14  C           1      -3.572   5.160 -34.868  0.00  0.00     0.003 A 
HETATM   15  C           1      -2.654   4.935 -33.917  0.00  0.00     0.040 A 
HETATM   16  H           1      -7.016   2.280 -35.028  0.00  0.00     0.162 HD
ENDROOT
BRANCH   5  17
HETATM   17  C           1      -8.298   2.862 -31.651  0.00  0.00     0.233 C 
HETATM   18  N           1      -9.251   3.804 -31.910  0.00  0.00    -0.326 N 
HETATM   19  H           1      -8.926   4.689 -32.268  0.00  0.00     0.169 HD
HETATM   20  O           1      -8.541   1.733 -31.308  0.00  0.00    -0.273 OA
BRANCH  18  21
HETATM   21  C           1     -10.598   3.823 -31.808  0.00  0.00     0.040 A 
HETATM   22  C           1     -11.295   3.480 -32.913  0.00  0.00    -0.035 A 
HETATM   23  C           1     -10.604   3.083 -34.202  0.00  0.00     0.050 C 
HETATM   24  C           1     -12.641   3.482 -32.874  0.00  0.00     0.015 A 
HETATM   25  C           1     -13.327   3.819 -31.772  0.00  0.00    -0.061 A 
HETATM   26  C           1     -14.838   3.807 -31.771  0.00  0.00     0.048 C 
HETATM   27  C           1     -12.625   4.159 -30.679  0.00  0.00     0.009 A 
HETATM   28  C           1     -11.284   4.161 -30.702  0.00  0.00     0.030 A 
ENDBRANCH  18  21
ENDBRANCH   5  17
BRANCH   8  29
HETATM   29  C           1      -4.629   0.208 -31.793  0.00  0.00     0.154 C 
BRANCH  29  30
HETATM   30  C           1      -3.274   0.278 -32.505  0.00  0.00     0.187 C 
BRANCH  30  31
HETATM   31  O           1      -2.497  -0.825 -32.104  0.00  0.00    -0.394 OA
HETATM   32  C           1      -3.253  -2.015 -32.038  0.00  0.00     0.201 C 
ENDBRANCH  30  31
ENDBRANCH  29  30
ENDBRANCH   8  29
BRANCH   2  33
HETATM   33  O           1      -2.050   4.021 -31.771  0.00  0.00    -0.349 OA
BRANCH  33  34
HETATM   34  C           1      -1.510   5.083 -31.029  0.00  0.00     0.171 C 
HETATM   35  C           1      -0.061   5.289 -31.465  0.00  0.00     0.034 C 
ENDBRANCH  33  34
ENDBRANCH   2  33
TORSDOF 7
ENDMDL
MODEL 7
REMARK VINA RESULT:      -7.8      3.204      5.298
REMARK  7 active torsions:
REMARK  status: ('A' for Active; 'I' for Inactive)
REMARK    1  A    between atoms: C_6  and  O_7 
REMARK    2  A    between atoms: O_7  and  C_8 
REMARK    3  A    between atoms: C_11  and  C_12 
REMARK       I    between atoms: C_12  and  N_13 
REMARK    4  A    between atoms: N_13  and  C_14 
REMARK    5  A    between atoms: N_22  and  C_23 
REMARK    6  A    between atoms: C_23  and  C_24 
REMARK    7  A    between atoms: C_24  and  O_25 
ROOT
HETATM    1  C           1     -10.272   3.521 -32.847  0.00  0.00     0.113 A 
HETATM    2  C           1     -11.227   4.321 -32.315  0.00  0.00     0.102 A 
HETATM    3  C           1      -9.633   3.895 -33.975  0.00  0.00     0.002 A 
HETATM    4  C           1      -8.544   3.024 -34.550  0.00  0.00     0.138 C 
HETATM    5  C           1      -8.683   1.585 -34.036  0.00  0.00     0.161 C 
HETATM    6  C           1      -8.742   1.725 -32.500  0.00  0.00     0.155 C 
HETATM    7  C           1      -8.823   0.332 -31.854  0.00  0.00     0.072 C 
HETATM    8  N           1      -7.604   2.516 -31.979  0.00  0.00    -0.323 N 
HETATM    9  C           1      -6.809   3.289 -32.815  0.00  0.00     0.172 C 
HETATM   10  S           1      -5.464   3.991 -32.373  0.00  0.00    -0.041 SA
HETATM   11  N           1      -7.273   3.562 -34.078  0.00  0.00    -0.357 N 
HETATM   12  O           1      -9.957   2.361 -32.183  0.00  0.00    -0.316 OA
HETATM   13  C           1      -9.946   5.046 -34.590  0.00  0.00     0.012 A 
HETATM   14  C           1     -10.897   5.837 -34.082  0.00  0.00     0.003 A 
HETATM   15  C           1     -11.523   5.471 -32.954  0.00  0.00     0.040 A 
HETATM   16  H           1      -6.753   4.206 -34.675  0.00  0.00     0.162 HD
ENDROOT
BRANCH   5  17
HETATM   17  C           1      -7.614   0.651 -34.619  0.00  0.00     0.233 C 
HETATM   18  N           1      -7.355  -0.447 -33.851  0.00  0.00    -0.326 N 
HETATM   19  H           1      -7.913  -0.557 -33.018  0.00  0.00     0.169 HD
HETATM   20  O           1      -7.093   0.867 -35.685  0.00  0.00    -0.273 OA
BRANCH  18  21
HETATM   21  C           1      -6.494  -1.482 -33.961  0.00  0.00     0.040 A 
HETATM   22  C           1      -5.299  -1.344 -33.346  0.00  0.00    -0.035 A 
HETATM   23  C           1      -4.944  -0.096 -32.562  0.00  0.00     0.050 C 
HETATM   24  C           1      -4.396  -2.339 -33.420  0.00  0.00     0.015 A 
HETATM   25  C           1      -4.635  -3.476 -34.093  0.00  0.00    -0.061 A 
HETATM   26  C           1      -3.595  -4.570 -34.151  0.00  0.00     0.048 C 
HETATM   27  C           1      -5.825  -3.603 -34.702  0.00  0.00     0.009 A 
HETATM   28  C           1      -6.735  -2.620 -34.636  0.00  0.00     0.030 A 
ENDBRANCH  18  21
ENDBRANCH   5  17
BRANCH   8  29
HETATM   29  C           1      -7.469   2.574 -30.518  0.00  0.00     0.154 C 
BRANCH  29  30
HETATM   30  C           1      -8.072   3.844 -29.909  0.00  0.00     0.187 C 
BRANCH  30  31
HETATM   31  O           1      -7.030   4.627 -29.379  0.00  0.00    -0.394 OA
HETATM   32  C           1      -7.471   5.464 -28.331  0.00  0.00     0.201 C 
ENDBRANCH  30  31
ENDBRANCH  29  30
ENDBRANCH   8  29
BRANCH   2  33
HETATM   33  O           1     -11.831   3.903 -31.151  0.00  0.00    -0.349 OA
BRANCH  33  34
HETATM   34  C           1     -13.229   3.959 -31.038  0.00  0.00     0.171 C 
HETATM   35  C           1     -13.589   5.039 -30.020  0.00  0.00     0.034 C 
ENDBRANCH  33  34
ENDBRANCH   2  33
TORSDOF 7
ENDMDL
MODEL 8
REMARK VINA RESULT:      -7.7      5.801      7.768
REMARK  7 active torsions:
REMARK  status: ('A' for Active; 'I' for Inactive)
REMARK    1  A    between atoms: C_6  and  O_7 
REMARK    2  A    between atoms: O_7  and  C_8 
REMARK    3  A    between atoms: C_11  and  C_12 
REMARK       I    between atoms: C_12  and  N_13 
REMARK    4  A    between atoms: N_13  and  C_14 
REMARK    5  A    between atoms: N_22  and  C_23 
REMARK    6  A    between atoms: C_23  and  C_24 
REMARK    7  A    between atoms: C_24  and  O_25 
ROOT
HETATM    1  C           1     -12.067   5.507 -35.345  0.00  0.00     0.113 A 
HETATM    2  C           1     -12.728   6.564 -35.876  0.00  0.00     0.102 A 
HETATM    3  C           1     -10.912   5.704 -34.675  0.00  0.00     0.002 A 
HETATM    4  C           1     -10.192   4.534 -34.051  0.00  0.00     0.138 C 
HETATM    5  C           1     -10.629   3.222 -34.715  0.00  0.00     0.161 C 
HETATM    6  C           1     -12.170   3.236 -34.626  0.00  0.00     0.155 C 
HETATM    7  C           1     -12.736   1.931 -35.211  0.00  0.00     0.072 C 
HETATM    8  N           1     -12.636   3.474 -33.241  0.00  0.00    -0.323 N 
HETATM    9  C           1     -11.781   3.951 -32.256  0.00  0.00     0.172 C 
HETATM   10  S           1     -12.146   4.034 -30.720  0.00  0.00    -0.041 SA
HETATM   11  N           1     -10.582   4.494 -32.646  0.00  0.00    -0.357 N 
HETATM   12  O           1     -12.630   4.262 -35.473  0.00  0.00    -0.316 OA
HETATM   13  C           1     -10.397   6.936 -34.545  0.00  0.00     0.012 A 
HETATM   14  C           1     -11.033   7.985 -35.079  0.00  0.00     0.003 A 
HETATM   15  C           1     -12.188   7.791 -35.732  0.00  0.00     0.040 A 
HETATM   16  H           1      -9.983   4.937 -31.950  0.00  0.00     0.162 HD
ENDROOT
BRANCH   5  17
HETATM   17  C           1      -9.900   2.003 -34.134  0.00  0.00     0.233 C 
HETATM   18  N           1      -8.672   1.774 -34.684  0.00  0.00    -0.326 N 
HETATM   19  H           1      -8.354   2.440 -35.371  0.00  0.00     0.169 HD
HETATM   20  O           1     -10.372   1.347 -33.240  0.00  0.00    -0.273 OA
BRANCH  18  21
HETATM   21  C           1      -7.730   0.823 -34.503  0.00  0.00     0.040 A 
HETATM   22  C           1      -6.647   1.172 -33.776  0.00  0.00    -0.035 A 
HETATM   23  C           1      -6.498   2.559 -33.182  0.00  0.00     0.050 C 
HETATM   24  C           1      -5.672   0.269 -33.563  0.00  0.00     0.015 A 
HETATM   25  C           1      -5.730  -0.979 -34.052  0.00  0.00    -0.061 A 
HETATM   26  C           1      -4.615  -1.963 -33.789  0.00  0.00     0.048 C 
HETATM   27  C           1      -6.811  -1.317 -34.775  0.00  0.00     0.009 A 
HETATM   28  C           1      -7.790  -0.428 -34.995  0.00  0.00     0.030 A 
ENDBRANCH  18  21
ENDBRANCH   5  17
BRANCH   8  29
HETATM   29  C           1     -14.080   3.344 -33.011  0.00  0.00     0.154 C 
BRANCH  29  30
HETATM   30  C           1     -14.501   1.923 -32.623  0.00  0.00     0.187 C 
BRANCH  30  31
HETATM   31  O           1     -15.509   2.003 -31.645  0.00  0.00    -0.394 OA
HETATM   32  C           1     -16.724   2.496 -32.168  0.00  0.00     0.201 C 
ENDBRANCH  30  31
ENDBRANCH  29  30
ENDBRANCH   8  29
BRANCH   2  33
HETATM   33  O           1     -13.914   6.310 -36.528  0.00  0.00    -0.349 OA
BRANCH  33  34
HETATM   34  C           1     -15.029   7.124 -36.278  0.00  0.00     0.171 C 
HETATM   35  C           1     -15.606   7.579 -37.616  0.00  0.00     0.034 C 
ENDBRANCH  33  34
ENDBRANCH   2  33
TORSDOF 7
ENDMDL
MODEL 9
REMARK VINA RESULT:      -7.5      3.541      5.258
REMARK  7 active torsions:
REMARK  status: ('A' for Active; 'I' for Inactive)
REMARK    1  A    between atoms: C_6  and  O_7 
REMARK    2  A    between atoms: O_7  and  C_8 
REMARK    3  A    between atoms: C_11  and  C_12 
REMARK       I    between atoms: C_12  and  N_13 
REMARK    4  A    between atoms: N_13  and  C_14 
REMARK    5  A    between atoms: N_22  and  C_23 
REMARK    6  A    between atoms: C_23  and  C_24 
REMARK    7  A    between atoms: C_24  and  O_25 
ROOT
HETATM    1  C           1      -5.101   4.301 -32.838  0.00  0.00     0.113 A 
HETATM    2  C           1      -3.817   4.642 -33.105  0.00  0.00     0.102 A 
HETATM    3  C           1      -5.364   3.292 -31.982  0.00  0.00     0.002 A 
HETATM    4  C           1      -6.793   2.933 -31.654  0.00  0.00     0.138 C 
HETATM    5  C           1      -7.738   3.449 -32.748  0.00  0.00     0.161 C 
HETATM    6  C           1      -7.396   4.948 -32.882  0.00  0.00     0.155 C 
HETATM    7  C           1      -8.325   5.603 -33.917  0.00  0.00     0.072 C 
HETATM    8  N           1      -7.444   5.639 -31.573  0.00  0.00    -0.323 N 
HETATM    9  C           1      -7.464   4.935 -30.376  0.00  0.00     0.172 C 
HETATM   10  S           1      -7.722   5.586 -28.959  0.00  0.00    -0.041 SA
HETATM   11  N           1      -7.125   3.605 -30.403  0.00  0.00    -0.357 N 
HETATM   12  O           1      -6.100   5.037 -33.426  0.00  0.00    -0.316 OA
HETATM   13  C           1      -4.367   2.606 -31.404  0.00  0.00     0.012 A 
HETATM   14  C           1      -3.095   2.924 -31.672  0.00  0.00     0.003 A 
HETATM   15  C           1      -2.834   3.936 -32.512  0.00  0.00     0.040 A 
HETATM   16  H           1      -7.038   3.092 -29.525  0.00  0.00     0.162 HD
ENDROOT
BRANCH   5  17
HETATM   17  C           1      -9.202   3.081 -32.475  0.00  0.00     0.233 C 
HETATM   18  N           1      -9.857   2.561 -33.553  0.00  0.00    -0.326 N 
HETATM   19  H           1      -9.311   2.430 -34.392  0.00  0.00     0.169 HD
HETATM   20  O           1      -9.696   3.208 -31.383  0.00  0.00    -0.273 OA
BRANCH  18  21
HETATM   21  C           1     -11.124   2.145 -33.766  0.00  0.00     0.040 A 
HETATM   22  C           1     -11.394   0.853 -33.481  0.00  0.00    -0.035 A 
HETATM   23  C           1     -10.333  -0.084 -32.939  0.00  0.00     0.050 C 
HETATM   24  C           1     -12.639   0.378 -33.674  0.00  0.00     0.015 A 
HETATM   25  C           1     -13.634   1.143 -34.149  0.00  0.00    -0.061 A 
HETATM   26  C           1     -15.017   0.571 -34.350  0.00  0.00     0.048 C 
HETATM   27  C           1     -13.354   2.426 -34.430  0.00  0.00     0.009 A 
HETATM   28  C           1     -12.120   2.914 -34.242  0.00  0.00     0.030 A 
ENDBRANCH  18  21
ENDBRANCH   5  17
BRANCH   8  29
HETATM   29  C           1      -7.298   7.100 -31.605  0.00  0.00     0.154 C 
BRANCH  29  30
HETATM   30  C           1      -5.857   7.564 -31.369  0.00  0.00     0.187 C 
BRANCH  30  31
HETATM   31  O           1      -5.871   8.936 -31.057  0.00  0.00    -0.394 OA
HETATM   32  C           1      -6.948   9.280 -30.212  0.00  0.00     0.201 C 
ENDBRANCH  30  31
ENDBRANCH  29  30
ENDBRANCH   8  29
BRANCH   2  33
HETATM   33  O           1      -3.605   5.695 -33.967  0.00  0.00    -0.349 OA
BRANCH  33  34
HETATM   34  C           1      -2.301   5.983 -34.399  0.00  0.00     0.171 C 
HETATM   35  C           1      -1.838   7.268 -33.715  0.00  0.00     0.034 C 
ENDBRANCH  33  34
ENDBRANCH   2  33
TORSDOF 7
ENDMDL
MODEL 10
REMARK VINA RESULT:      -7.4      2.994      6.985
REMARK  7 active torsions:
REMARK  status: ('A' for Active; 'I' for Inactive)
REMARK    1  A    between atoms: C_6  and  O_7 
REMARK    2  A    between atoms: O_7  and  C_8 
REMARK    3  A    between atoms: C_11  and  C_12 
REMARK       I    between atoms: C_12  and  N_13 
REMARK    4  A    between atoms: N_13  and  C_14 
REMARK    5  A    between atoms: N_22  and  C_23 
REMARK    6  A    between atoms: C_23  and  C_24 
REMARK    7  A    between atoms: C_24  and  O_25 
ROOT
HETATM    1  C           1      -9.126   3.387 -32.594  0.00  0.00     0.113 A 
HETATM    2  C           1     -10.394   3.315 -33.066  0.00  0.00     0.102 A 
HETATM    3  C           1      -8.907   3.669 -31.293  0.00  0.00     0.002 A 
HETATM    4  C           1      -7.498   3.714 -30.756  0.00  0.00     0.138 C 
HETATM    5  C           1      -6.497   3.932 -31.899  0.00  0.00     0.161 C 
HETATM    6  C           1      -6.831   2.826 -32.924  0.00  0.00     0.155 C 
HETATM    7  C           1      -5.849   2.898 -34.105  0.00  0.00     0.072 C 
HETATM    8  N           1      -6.850   1.486 -32.295  0.00  0.00    -0.323 N 
HETATM    9  C           1      -6.892   1.327 -30.916  0.00  0.00     0.172 C 
HETATM   10  S           1      -6.707  -0.054 -30.169  0.00  0.00    -0.041 SA
HETATM   11  N           1      -7.231   2.414 -30.150  0.00  0.00    -0.357 N 
HETATM   12  O           1      -8.097   3.123 -33.464  0.00  0.00    -0.316 OA
HETATM   13  C           1      -9.933   3.899 -30.460  0.00  0.00     0.012 A 
HETATM   14  C           1     -11.189   3.845 -30.918  0.00  0.00     0.003 A 
HETATM   15  C           1     -11.406   3.552 -32.208  0.00  0.00     0.040 A 
HETATM   16  H           1      -7.363   2.298 -29.145  0.00  0.00     0.162 HD
ENDROOT
BRANCH   5  17
HETATM   17  C           1      -5.049   4.016 -31.399  0.00  0.00     0.233 C 
HETATM   18  N           1      -4.409   5.172 -31.737  0.00  0.00    -0.326 N 
HETATM   19  H           1      -4.954   5.861 -32.233  0.00  0.00     0.169 HD
HETATM   20  O           1      -4.556   3.143 -30.729  0.00  0.00    -0.273 OA
BRANCH  18  21
HETATM   21  C           1      -3.157   5.639 -31.541  0.00  0.00     0.040 A 
HETATM   22  C           1      -2.236   5.321 -32.476  0.00  0.00    -0.035 A 
HETATM   23  C           1      -2.590   4.489 -33.693  0.00  0.00     0.050 C 
HETATM   24  C           1      -0.970   5.754 -32.335  0.00  0.00     0.015 A 
HETATM   25  C           1      -0.578   6.496 -31.287  0.00  0.00    -0.061 A 
HETATM   26  C           1       0.854   6.963 -31.167  0.00  0.00     0.048 C 
HETATM   27  C           1      -1.500   6.806 -30.362  0.00  0.00     0.009 A 
HETATM   28  C           1      -2.765   6.382 -30.489  0.00  0.00     0.030 A 
ENDBRANCH  18  21
ENDBRANCH   5  17
BRANCH   8  29
HETATM   29  C           1      -6.994   0.344 -33.207  0.00  0.00     0.154 C 
BRANCH  29  30
HETATM   30  C           1      -5.711  -0.482 -33.342  0.00  0.00     0.187 C 
BRANCH  30  31
HETATM   31  O           1      -5.967  -1.577 -34.189  0.00  0.00    -0.394 OA
HETATM   32  C           1      -4.829  -2.391 -34.369  0.00  0.00     0.201 C 
ENDBRANCH  30  31
ENDBRANCH  29  30
ENDBRANCH   8  29
BRANCH   2  33
HETATM   33  O           1     -10.561   3.001 -34.396  0.00  0.00    -0.349 OA
BRANCH  33  34
HETATM   34  C           1     -11.822   3.160 -34.991  0.00  0.00     0.171 C 
HETATM   35  C           1     -12.354   1.781 -35.372  0.00  0.00     0.034 C 
ENDBRANCH  33  34
ENDBRANCH   2  33
TORSDOF 7
ENDMDL
