MODEL 1
REMARK VINA RESULT:      -7.9      0.000      0.000
REMARK  6 active torsions:
REMARK  status: ('A' for Active; 'I' for Inactive)
REMARK    1  A    between atoms: C_4  and  C_5 
REMARK    2  A    between atoms: C_5  and  N_6 
REMARK       I    between atoms: N_6  and  C_7 
REMARK       I    between atoms: C_7  and  N_8 
REMARK    3  A    between atoms: N_8  and  C_9 
REMARK    4  A    between atoms: C_9  and  C_10 
REMARK    5  A    between atoms: C_12  and  O_13 
REMARK    6  A    between atoms: O_13  and  C_14 
ROOT
HETATM    1  N   UNL     1      -3.697   1.116 -32.352  1.00  0.00    -0.333 N 
HETATM    2  C   UNL     1      -4.020   2.176 -31.571  1.00  0.00     0.317 C 
HETATM    3  N   UNL     1      -3.643   3.398 -32.025  1.00  0.00    -0.339 N 
HETATM    4  O   UNL     1      -4.626   2.082 -30.509  1.00  0.00    -0.247 OA
HETATM    5  H   UNL     1      -3.425   1.278 -33.310  1.00  0.00     0.165 HD
HETATM    6  H   UNL     1      -3.889   4.138 -31.381  1.00  0.00     0.164 HD
ENDROOT
BRANCH   3   7
HETATM    7  C   UNL     1      -2.722   3.718 -33.096  1.00  0.00     0.163 C 
BRANCH   7   8
HETATM    8  C   UNL     1      -2.047   5.060 -32.979  1.00  0.00    -0.035 A 
HETATM    9  C   UNL     1      -1.005   5.311 -32.081  1.00  0.00     0.066 A 
HETATM   10  C   UNL     1      -0.482   6.593 -32.007  1.00  0.00     0.164 A 
HETATM   11  N   UNL     1      -0.882   7.621 -32.785  1.00  0.00    -0.237 NA
HETATM   12  C   UNL     1      -1.858   7.352 -33.674  1.00  0.00     0.120 A 
HETATM   13  C   UNL     1      -2.464   6.111 -33.805  1.00  0.00     0.028 A 
BRANCH  10  14
HETATM   14  O   UNL     1       0.498   6.807 -31.058  1.00  0.00    -0.329 OA
BRANCH  14  15
HETATM   15  C   UNL     1       0.053   6.796 -29.685  1.00  0.00     0.130 C 
HETATM   16  C   UNL     1       0.673   5.717 -28.755  1.00  0.00     0.032 C 
HETATM   17  C   UNL     1       0.733   6.787 -27.652  1.00  0.00     0.005 C 
HETATM   18  C   UNL     1       0.745   7.843 -28.772  1.00  0.00     0.032 C 
ENDBRANCH  14  15
ENDBRANCH  10  14
ENDBRANCH   7   8
ENDBRANCH   3   7
BRANCH   1  19
HETATM   19  C   UNL     1      -4.141  -0.232 -32.050  1.00  0.00     0.139 C 
HETATM   20  C   UNL     1      -2.955  -1.181 -31.933  1.00  0.00     0.039 C 
BRANCH  19  21
HETATM   21  C   UNL     1      -5.077  -0.666 -33.133  1.00  0.00     0.075 A 
HETATM   22  O   UNL     1      -5.091  -1.997 -33.453  1.00  0.00    -0.318 OA
HETATM   23  C   UNL     1      -5.973  -2.155 -34.478  1.00  0.00     0.049 A 
HETATM   24  C   UNL     1      -6.133  -3.525 -35.005  1.00  0.00     0.076 C 
HETATM   25  C   UNL     1      -6.542  -0.945 -34.807  1.00  0.00     0.035 A 
HETATM   26  C   UNL     1      -5.962   0.016 -33.943  1.00  0.00     0.037 A 
ENDBRANCH  19  21
ENDBRANCH   1  19
TORSDOF 6
ENDMDL
MODEL 2
REMARK VINA RESULT:      -7.8      1.882      8.955
REMARK  6 active torsions:
REMARK  status: ('A' for Active; 'I' for Inactive)
REMARK    1  A    between atoms: C_4  and  C_5 
REMARK    2  A    between atoms: C_5  and  N_6 
REMARK       I    between atoms: N_6  and  C_7 
REMARK       I    between atoms: C_7  and  N_8 
REMARK    3  A    between atoms: N_8  and  C_9 
REMARK    4  A    between atoms: C_9  and  C_10 
REMARK    5  A    between atoms: C_12  and  O_13 
REMARK    6  A    between atoms: O_13  and  C_14 
ROOT
HETATM    1  N   UNL     1      -2.791   4.130 -32.730  1.00  0.00    -0.333 N 
HETATM    2  C   UNL     1      -3.614   4.152 -31.653  1.00  0.00     0.317 C 
HETATM    3  N   UNL     1      -4.004   2.947 -31.166  1.00  0.00    -0.339 N 
HETATM    4  O   UNL     1      -4.005   5.182 -31.113  1.00  0.00    -0.247 OA
HETATM    5  H   UNL     1      -2.319   3.271 -32.968  1.00  0.00     0.165 HD
HETATM    6  H   UNL     1      -4.639   3.038 -30.384  1.00  0.00     0.164 HD
ENDROOT
BRANCH   3   7
HETATM    7  C   UNL     1      -3.876   1.641 -31.779  1.00  0.00     0.163 C 
BRANCH   7   8
HETATM    8  C   UNL     1      -5.090   1.170 -32.537  1.00  0.00    -0.035 A 
HETATM    9  C   UNL     1      -5.077   0.047 -33.371  1.00  0.00     0.066 A 
HETATM   10  C   UNL     1      -6.229  -0.279 -34.068  1.00  0.00     0.164 A 
HETATM   11  N   UNL     1      -7.395   0.394 -33.965  1.00  0.00    -0.237 NA
HETATM   12  C   UNL     1      -7.403   1.449 -33.126  1.00  0.00     0.120 A 
HETATM   13  C   UNL     1      -6.294   1.871 -32.405  1.00  0.00     0.028 A 
BRANCH  10  14
HETATM   14  O   UNL     1      -6.147  -1.356 -34.930  1.00  0.00    -0.329 OA
BRANCH  14  15
HETATM   15  C   UNL     1      -6.001  -2.648 -34.305  1.00  0.00     0.130 C 
HETATM   16  C   UNL     1      -6.691  -3.850 -35.006  1.00  0.00     0.032 C 
HETATM   17  C   UNL     1      -5.447  -4.687 -34.667  1.00  0.00     0.005 C 
HETATM   18  C   UNL     1      -4.659  -3.366 -34.607  1.00  0.00     0.032 C 
ENDBRANCH  14  15
ENDBRANCH  10  14
ENDBRANCH   7   8
ENDBRANCH   3   7
BRANCH   1  19
HETATM   19  C   UNL     1      -2.203   5.337 -33.280  1.00  0.00     0.139 C 
HETATM   20  C   UNL     1      -1.698   5.098 -34.698  1.00  0.00     0.039 C 
BRANCH  19  21
HETATM   21  C   UNL     1      -1.092   5.767 -32.375  1.00  0.00     0.075 A 
HETATM   22  O   UNL     1      -0.550   4.816 -31.553  1.00  0.00    -0.318 OA
HETATM   23  C   UNL     1       0.402   5.431 -30.799  1.00  0.00     0.049 A 
HETATM   24  C   UNL     1       1.109   4.588 -29.814  1.00  0.00     0.076 C 
HETATM   25  C   UNL     1       0.492   6.762 -31.140  1.00  0.00     0.035 A 
HETATM   26  C   UNL     1      -0.472   6.980 -32.154  1.00  0.00     0.037 A 
ENDBRANCH  19  21
ENDBRANCH   1  19
TORSDOF 6
ENDMDL
MODEL 3
REMARK VINA RESULT:      -7.6      2.396      3.161
REMARK  6 active torsions:
REMARK  status: ('A' for Active; 'I' for Inactive)
REMARK    1  A    between atoms: C_4  and  C_5 
REMARK    2  A    between atoms: C_5  and  N_6 
REMARK       I    between atoms: N_6  and  C_7 
REMARK       I    between atoms: C_7  and  N_8 
REMARK    3  A    between atoms: N_8  and  C_9 
REMARK    4  A    between atoms: C_9  and  C_10 
REMARK    5  A    between atoms: C_12  and  O_13 
REMARK    6  A    between atoms: O_13  and  C_14 
ROOT
HETATM    1  N   UNL     1      -7.241   1.465 -33.464  1.00  0.00    -0.333 N 
HETATM    2  C   UNL     1      -7.735   2.692 -33.758  1.00  0.00     0.317 C 
HETATM    3  N   UNL     1      -6.957   3.753 -33.422  1.00  0.00    -0.339 N 
HETATM    4  O   UNL     1      -8.817   2.880 -34.303  1.00  0.00    -0.247 OA
HETATM    5  H   UNL     1      -6.261   1.371 -33.246  1.00  0.00     0.165 HD
HETATM    6  H   UNL     1      -7.399   4.636 -33.642  1.00  0.00     0.164 HD
ENDROOT
BRANCH   3   7
HETATM    7  C   UNL     1      -5.790   3.781 -32.565  1.00  0.00     0.163 C 
BRANCH   7   8
HETATM    8  C   UNL     1      -4.526   4.272 -33.223  1.00  0.00    -0.035 A 
HETATM    9  C   UNL     1      -3.277   4.230 -32.596  1.00  0.00     0.066 A 
HETATM   10  C   UNL     1      -2.180   4.754 -33.260  1.00  0.00     0.164 A 
HETATM   11  N   UNL     1      -2.222   5.270 -34.507  1.00  0.00    -0.237 NA
HETATM   12  C   UNL     1      -3.426   5.266 -35.114  1.00  0.00     0.120 A 
HETATM   13  C   UNL     1      -4.587   4.789 -34.523  1.00  0.00     0.028 A 
BRANCH  10  14
HETATM   14  O   UNL     1      -0.982   4.751 -32.573  1.00  0.00    -0.329 OA
BRANCH  14  15
HETATM   15  C   UNL     1      -0.915   5.624 -31.426  1.00  0.00     0.130 C 
HETATM   16  C   UNL     1       0.055   5.213 -30.285  1.00  0.00     0.032 C 
HETATM   17  C   UNL     1       0.433   6.697 -30.151  1.00  0.00     0.005 C 
HETATM   18  C   UNL     1      -0.012   6.872 -31.614  1.00  0.00     0.032 C 
ENDBRANCH  14  15
ENDBRANCH  10  14
ENDBRANCH   7   8
ENDBRANCH   3   7
BRANCH   1  19
HETATM   19  C   UNL     1      -7.909   0.243 -33.872  1.00  0.00     0.139 C 
HETATM   20  C   UNL     1      -8.939  -0.186 -32.836  1.00  0.00     0.039 C 
BRANCH  19  21
HETATM   21  C   UNL     1      -6.866  -0.812 -34.068  1.00  0.00     0.075 A 
HETATM   22  O   UNL     1      -7.290  -2.040 -34.500  1.00  0.00    -0.318 OA
HETATM   23  C   UNL     1      -6.194  -2.844 -34.567  1.00  0.00     0.049 A 
HETATM   24  C   UNL     1      -6.425  -4.238 -34.995  1.00  0.00     0.076 C 
HETATM   25  C   UNL     1      -5.067  -2.142 -34.203  1.00  0.00     0.035 A 
HETATM   26  C   UNL     1      -5.499  -0.833 -33.878  1.00  0.00     0.037 A 
ENDBRANCH  19  21
ENDBRANCH   1  19
TORSDOF 6
ENDMDL
MODEL 4
REMARK VINA RESULT:      -7.5      3.396      8.753
REMARK  6 active torsions:
REMARK  status: ('A' for Active; 'I' for Inactive)
REMARK    1  A    between atoms: C_4  and  C_5 
REMARK    2  A    between atoms: C_5  and  N_6 
REMARK       I    between atoms: N_6  and  C_7 
REMARK       I    between atoms: C_7  and  N_8 
REMARK    3  A    between atoms: N_8  and  C_9 
REMARK    4  A    between atoms: C_9  and  C_10 
REMARK    5  A    between atoms: C_12  and  O_13 
REMARK    6  A    between atoms: O_13  and  C_14 
ROOT
HETATM    1  N   UNL     1      -4.894   3.293 -31.399  1.00  0.00    -0.333 N 
HETATM    2  C   UNL     1      -4.089   2.214 -31.240  1.00  0.00     0.317 C 
HETATM    3  N   UNL     1      -4.696   1.001 -31.259  1.00  0.00    -0.339 N 
HETATM    4  O   UNL     1      -2.874   2.285 -31.091  1.00  0.00    -0.247 OA
HETATM    5  H   UNL     1      -5.828   3.159 -31.757  1.00  0.00     0.165 HD
HETATM    6  H   UNL     1      -4.042   0.244 -31.105  1.00  0.00     0.164 HD
ENDROOT
BRANCH   3   7
HETATM    7  C   UNL     1      -6.108   0.696 -31.170  1.00  0.00     0.163 C 
BRANCH   7   8
HETATM    8  C   UNL     1      -6.793   0.447 -32.489  1.00  0.00    -0.035 A 
HETATM    9  C   UNL     1      -6.533  -0.676 -33.281  1.00  0.00     0.066 A 
HETATM   10  C   UNL     1      -7.172  -0.793 -34.504  1.00  0.00     0.164 A 
HETATM   11  N   UNL     1      -8.077   0.091 -34.974  1.00  0.00    -0.237 NA
HETATM   12  C   UNL     1      -8.348   1.147 -34.182  1.00  0.00     0.120 A 
HETATM   13  C   UNL     1      -7.740   1.367 -32.953  1.00  0.00     0.028 A 
BRANCH  10  14
HETATM   14  O   UNL     1      -6.831  -1.884 -35.279  1.00  0.00    -0.329 OA
BRANCH  14  15
HETATM   15  C   UNL     1      -6.447  -3.071 -34.554  1.00  0.00     0.130 C 
HETATM   16  C   UNL     1      -6.701  -4.435 -35.253  1.00  0.00     0.032 C 
HETATM   17  C   UNL     1      -5.343  -4.903 -34.704  1.00  0.00     0.005 C 
HETATM   18  C   UNL     1      -4.937  -3.419 -34.635  1.00  0.00     0.032 C 
ENDBRANCH  14  15
ENDBRANCH  10  14
ENDBRANCH   7   8
ENDBRANCH   3   7
BRANCH   1  19
HETATM   19  C   UNL     1      -4.369   4.641 -31.518  1.00  0.00     0.139 C 
HETATM   20  C   UNL     1      -5.400   5.668 -31.069  1.00  0.00     0.039 C 
BRANCH  19  21
HETATM   21  C   UNL     1      -3.972   4.860 -32.944  1.00  0.00     0.075 A 
HETATM   22  O   UNL     1      -2.633   4.959 -33.214  1.00  0.00    -0.318 OA
HETATM   23  C   UNL     1      -2.508   5.196 -34.548  1.00  0.00     0.049 A 
HETATM   24  C   UNL     1      -1.133   5.361 -35.062  1.00  0.00     0.076 C 
HETATM   25  C   UNL     1      -3.749   5.230 -35.144  1.00  0.00     0.035 A 
HETATM   26  C   UNL     1      -4.693   5.017 -34.110  1.00  0.00     0.037 A 
ENDBRANCH  19  21
ENDBRANCH   1  19
TORSDOF 6
ENDMDL
MODEL 5
REMARK VINA RESULT:      -7.5      1.371      1.758
REMARK  6 active torsions:
REMARK  status: ('A' for Active; 'I' for Inactive)
REMARK    1  A    between atoms: C_4  and  C_5 
REMARK    2  A    between atoms: C_5  and  N_6 
REMARK       I    between atoms: N_6  and  C_7 
REMARK       I    between atoms: C_7  and  N_8 
REMARK    3  A    between atoms: N_8  and  C_9 
REMARK    4  A    between atoms: C_9  and  C_10 
REMARK    5  A    between atoms: C_12  and  O_13 
REMARK    6  A    between atoms: O_13  and  C_14 
ROOT
HETATM    1  N   UNL     1      -4.419   1.130 -32.698  1.00  0.00    -0.333 N 
HETATM    2  C   UNL     1      -4.548   2.153 -31.820  1.00  0.00     0.317 C 
HETATM    3  N   UNL     1      -3.854   3.284 -32.104  1.00  0.00    -0.339 N 
HETATM    4  O   UNL     1      -5.246   2.106 -30.813  1.00  0.00    -0.247 OA
HETATM    5  H   UNL     1      -4.035   1.314 -33.613  1.00  0.00     0.165 HD
HETATM    6  H   UNL     1      -3.971   3.994 -31.394  1.00  0.00     0.164 HD
ENDROOT
BRANCH   3   7
HETATM    7  C   UNL     1      -2.795   3.473 -33.074  1.00  0.00     0.163 C 
BRANCH   7   8
HETATM    8  C   UNL     1      -2.174   4.847 -33.082  1.00  0.00    -0.035 A 
HETATM    9  C   UNL     1      -1.174   5.234 -32.185  1.00  0.00     0.066 A 
HETATM   10  C   UNL     1      -0.701   6.536 -32.234  1.00  0.00     0.164 A 
HETATM   11  N   UNL     1      -1.111   7.458 -33.131  1.00  0.00    -0.237 NA
HETATM   12  C   UNL     1      -2.045   7.057 -34.015  1.00  0.00     0.120 A 
HETATM   13  C   UNL     1      -2.600   5.785 -34.029  1.00  0.00     0.028 A 
BRANCH  10  14
HETATM   14  O   UNL     1       0.237   6.889 -31.284  1.00  0.00    -0.329 OA
BRANCH  14  15
HETATM   15  C   UNL     1      -0.129   6.624 -29.914  1.00  0.00     0.130 C 
HETATM   16  C   UNL     1       0.658   5.503 -29.181  1.00  0.00     0.032 C 
HETATM   17  C   UNL     1       0.655   6.400 -27.931  1.00  0.00     0.005 C 
HETATM   18  C   UNL     1       0.487   7.602 -28.878  1.00  0.00     0.032 C 
ENDBRANCH  14  15
ENDBRANCH  10  14
ENDBRANCH   7   8
ENDBRANCH   3   7
BRANCH   1  19
HETATM   19  C   UNL     1      -5.194  -0.092 -32.583  1.00  0.00     0.139 C 
HETATM   20  C   UNL     1      -4.376  -1.298 -33.029  1.00  0.00     0.039 C 
BRANCH  19  21
HETATM   21  C   UNL     1      -6.429   0.061 -33.413  1.00  0.00     0.075 A 
HETATM   22  O   UNL     1      -7.616   0.212 -32.747  1.00  0.00    -0.318 OA
HETATM   23  C   UNL     1      -8.597   0.290 -33.687  1.00  0.00     0.049 A 
HETATM   24  C   UNL     1      -9.979   0.435 -33.187  1.00  0.00     0.076 C 
HETATM   25  C   UNL     1      -8.054   0.213 -34.950  1.00  0.00     0.035 A 
HETATM   26  C   UNL     1      -6.657   0.061 -34.774  1.00  0.00     0.037 A 
ENDBRANCH  19  21
ENDBRANCH   1  19
TORSDOF 6
ENDMDL
MODEL 6
REMARK VINA RESULT:      -7.5      3.402      4.333
REMARK  6 active torsions:
REMARK  status: ('A' for Active; 'I' for Inactive)
REMARK    1  A    between atoms: C_4  and  C_5 
REMARK    2  A    between atoms: C_5  and  N_6 
REMARK       I    between atoms: N_6  and  C_7 
REMARK       I    between atoms: C_7  and  N_8 
REMARK    3  A    between atoms: N_8  and  C_9 
REMARK    4  A    between atoms: C_9  and  C_10 
REMARK    5  A    between atoms: C_12  and  O_13 
REMARK    6  A    between atoms: O_13  and  C_14 
ROOT
HETATM    1  N   UNL     1      -4.795   0.561 -31.227  1.00  0.00    -0.333 N 
HETATM    2  C   UNL     1      -5.826   0.703 -30.360  1.00  0.00     0.317 C 
HETATM    3  N   UNL     1      -6.215   1.974 -30.086  1.00  0.00    -0.339 N 
HETATM    4  O   UNL     1      -6.410  -0.238 -29.833  1.00  0.00    -0.247 OA
HETATM    5  H   UNL     1      -4.527   1.346 -31.802  1.00  0.00     0.165 HD
HETATM    6  H   UNL     1      -6.968   2.007 -29.410  1.00  0.00     0.164 HD
ENDROOT
BRANCH   3   7
HETATM    7  C   UNL     1      -5.527   3.213 -30.386  1.00  0.00     0.163 C 
BRANCH   7   8
HETATM    8  C   UNL     1      -5.869   3.827 -31.719  1.00  0.00    -0.035 A 
HETATM    9  C   UNL     1      -4.915   4.425 -32.548  1.00  0.00     0.066 A 
HETATM   10  C   UNL     1      -5.333   5.010 -33.732  1.00  0.00     0.164 A 
HETATM   11  N   UNL     1      -6.609   5.004 -34.172  1.00  0.00    -0.237 NA
HETATM   12  C   UNL     1      -7.510   4.388 -33.382  1.00  0.00     0.120 A 
HETATM   13  C   UNL     1      -7.195   3.797 -32.166  1.00  0.00     0.028 A 
BRANCH  10  14
HETATM   14  O   UNL     1      -4.364   5.647 -34.483  1.00  0.00    -0.329 OA
BRANCH  14  15
HETATM   15  C   UNL     1      -3.019   5.570 -33.965  1.00  0.00     0.130 C 
HETATM   16  C   UNL     1      -1.931   5.003 -34.917  1.00  0.00     0.032 C 
HETATM   17  C   UNL     1      -0.979   6.084 -34.378  1.00  0.00     0.005 C 
HETATM   18  C   UNL     1      -2.229   6.905 -34.012  1.00  0.00     0.032 C 
ENDBRANCH  14  15
ENDBRANCH  10  14
ENDBRANCH   7   8
ENDBRANCH   3   7
BRANCH   1  19
HETATM   19  C   UNL     1      -4.353  -0.737 -31.701  1.00  0.00     0.139 C 
HETATM   20  C   UNL     1      -2.844  -0.757 -31.907  1.00  0.00     0.039 C 
BRANCH  19  21
HETATM   21  C   UNL     1      -5.078  -1.037 -32.975  1.00  0.00     0.075 A 
HETATM   22  O   UNL     1      -5.886  -0.056 -33.482  1.00  0.00    -0.318 OA
HETATM   23  C   UNL     1      -6.469  -0.556 -34.606  1.00  0.00     0.049 A 
HETATM   24  C   UNL     1      -7.411   0.336 -35.313  1.00  0.00     0.076 C 
HETATM   25  C   UNL     1      -6.029  -1.839 -34.839  1.00  0.00     0.035 A 
HETATM   26  C   UNL     1      -5.135  -2.152 -33.787  1.00  0.00     0.037 A 
ENDBRANCH  19  21
ENDBRANCH   1  19
TORSDOF 6
ENDMDL
MODEL 7
REMARK VINA RESULT:      -7.3      2.298      8.648
REMARK  6 active torsions:
REMARK  status: ('A' for Active; 'I' for Inactive)
REMARK    1  A    between atoms: C_4  and  C_5 
REMARK    2  A    between atoms: C_5  and  N_6 
REMARK       I    between atoms: N_6  and  C_7 
REMARK       I    between atoms: C_7  and  N_8 
REMARK    3  A    between atoms: N_8  and  C_9 
REMARK    4  A    between atoms: C_9  and  C_10 
REMARK    5  A    between atoms: C_12  and  O_13 
REMARK    6  A    between atoms: O_13  and  C_14 
ROOT
HETATM    1  N   UNL     1      -4.130   2.231 -32.297  1.00  0.00    -0.333 N 
HETATM    2  C   UNL     1      -4.516   1.597 -31.164  1.00  0.00     0.317 C 
HETATM    3  N   UNL     1      -4.105   0.312 -31.021  1.00  0.00    -0.339 N 
HETATM    4  O   UNL     1      -5.196   2.120 -30.287  1.00  0.00    -0.247 OA
HETATM    5  H   UNL     1      -3.383   1.837 -32.850  1.00  0.00     0.165 HD
HETATM    6  H   UNL     1      -4.453  -0.109 -30.169  1.00  0.00     0.164 HD
ENDROOT
BRANCH   3   7
HETATM    7  C   UNL     1      -3.526  -0.567 -32.016  1.00  0.00     0.163 C 
BRANCH   7   8
HETATM    8  C   UNL     1      -4.519  -1.251 -32.920  1.00  0.00    -0.035 A 
HETATM    9  C   UNL     1      -5.871  -0.898 -32.970  1.00  0.00     0.066 A 
HETATM   10  C   UNL     1      -6.719  -1.620 -33.794  1.00  0.00     0.164 A 
HETATM   11  N   UNL     1      -6.319  -2.626 -34.599  1.00  0.00    -0.237 NA
HETATM   12  C   UNL     1      -5.006  -2.927 -34.571  1.00  0.00     0.120 A 
HETATM   13  C   UNL     1      -4.082  -2.282 -33.760  1.00  0.00     0.028 A 
BRANCH  10  14
HETATM   14  O   UNL     1      -8.057  -1.277 -33.757  1.00  0.00    -0.329 OA
BRANCH  14  15
HETATM   15  C   UNL     1      -8.345   0.080 -33.361  1.00  0.00     0.130 C 
HETATM   16  C   UNL     1      -8.544   1.117 -34.499  1.00  0.00     0.032 C 
HETATM   17  C   UNL     1      -9.691   1.719 -33.671  1.00  0.00     0.005 C 
HETATM   18  C   UNL     1      -9.828   0.345 -32.990  1.00  0.00     0.032 C 
ENDBRANCH  14  15
ENDBRANCH  10  14
ENDBRANCH   7   8
ENDBRANCH   3   7
BRANCH   1  19
HETATM   19  C   UNL     1      -4.396   3.639 -32.527  1.00  0.00     0.139 C 
HETATM   20  C   UNL     1      -5.395   3.825 -33.663  1.00  0.00     0.039 C 
BRANCH  19  21
HETATM   21  C   UNL     1      -3.096   4.314 -32.833  1.00  0.00     0.075 A 
HETATM   22  O   UNL     1      -2.190   4.420 -31.812  1.00  0.00    -0.318 OA
HETATM   23  C   UNL     1      -1.114   5.096 -32.299  1.00  0.00     0.049 A 
HETATM   24  C   UNL     1      -0.010   5.348 -31.351  1.00  0.00     0.076 C 
HETATM   25  C   UNL     1      -1.308   5.408 -33.626  1.00  0.00     0.035 A 
HETATM   26  C   UNL     1      -2.586   4.907 -33.970  1.00  0.00     0.037 A 
ENDBRANCH  19  21
ENDBRANCH   1  19
TORSDOF 6
ENDMDL
MODEL 8
REMARK VINA RESULT:      -7.2      2.673      3.439
REMARK  6 active torsions:
REMARK  status: ('A' for Active; 'I' for Inactive)
REMARK    1  A    between atoms: C_4  and  C_5 
REMARK    2  A    between atoms: C_5  and  N_6 
REMARK       I    between atoms: N_6  and  C_7 
REMARK       I    between atoms: C_7  and  N_8 
REMARK    3  A    between atoms: N_8  and  C_9 
REMARK    4  A    between atoms: C_9  and  C_10 
REMARK    5  A    between atoms: C_12  and  O_13 
REMARK    6  A    between atoms: O_13  and  C_14 
ROOT
HETATM    1  N   UNL     1      -4.648   3.685 -33.415  1.00  0.00    -0.333 N 
HETATM    2  C   UNL     1      -5.031   4.691 -34.238  1.00  0.00     0.317 C 
HETATM    3  N   UNL     1      -4.059   5.250 -35.002  1.00  0.00    -0.339 N 
HETATM    4  O   UNL     1      -6.184   5.101 -34.325  1.00  0.00    -0.247 OA
HETATM    5  H   UNL     1      -3.756   3.239 -33.568  1.00  0.00     0.165 HD
HETATM    6  H   UNL     1      -4.408   6.012 -35.569  1.00  0.00     0.164 HD
ENDROOT
BRANCH   3   7
HETATM    7  C   UNL     1      -2.623   5.103 -34.885  1.00  0.00     0.163 C 
BRANCH   7   8
HETATM    8  C   UNL     1      -2.002   5.812 -33.708  1.00  0.00    -0.035 A 
HETATM    9  C   UNL     1      -2.293   7.139 -33.380  1.00  0.00     0.066 A 
HETATM   10  C   UNL     1      -1.632   7.723 -32.311  1.00  0.00     0.164 A 
HETATM   11  N   UNL     1      -0.747   7.077 -31.523  1.00  0.00    -0.237 NA
HETATM   12  C   UNL     1      -0.508   5.786 -31.827  1.00  0.00     0.120 A 
HETATM   13  C   UNL     1      -1.097   5.121 -32.893  1.00  0.00     0.028 A 
BRANCH  10  14
HETATM   14  O   UNL     1      -1.904   9.055 -32.069  1.00  0.00    -0.329 OA
BRANCH  14  15
HETATM   15  C   UNL     1      -2.512   9.348 -30.793  1.00  0.00     0.130 C 
HETATM   16  C   UNL     1      -2.419  10.815 -30.291  1.00  0.00     0.032 C 
HETATM   17  C   UNL     1      -3.866  10.675 -29.793  1.00  0.00     0.005 C 
HETATM   18  C   UNL     1      -4.048   9.565 -30.844  1.00  0.00     0.032 C 
ENDBRANCH  14  15
ENDBRANCH  10  14
ENDBRANCH   7   8
ENDBRANCH   3   7
BRANCH   1  19
HETATM   19  C   UNL     1      -5.600   2.919 -32.632  1.00  0.00     0.139 C 
HETATM   20  C   UNL     1      -5.055   2.635 -31.238  1.00  0.00     0.039 C 
BRANCH  19  21
HETATM   21  C   UNL     1      -5.892   1.650 -33.368  1.00  0.00     0.075 A 
HETATM   22  O   UNL     1      -5.100   0.568 -33.091  1.00  0.00    -0.318 OA
HETATM   23  C   UNL     1      -5.513  -0.450 -33.895  1.00  0.00     0.049 A 
HETATM   24  C   UNL     1      -4.775  -1.723 -33.779  1.00  0.00     0.076 C 
HETATM   25  C   UNL     1      -6.575  -0.042 -34.671  1.00  0.00     0.035 A 
HETATM   26  C   UNL     1      -6.818   1.312 -34.335  1.00  0.00     0.037 A 
ENDBRANCH  19  21
ENDBRANCH   1  19
TORSDOF 6
ENDMDL
MODEL 9
REMARK VINA RESULT:      -7.1      3.633      7.745
REMARK  6 active torsions:
REMARK  status: ('A' for Active; 'I' for Inactive)
REMARK    1  A    between atoms: C_4  and  C_5 
REMARK    2  A    between atoms: C_5  and  N_6 
REMARK       I    between atoms: N_6  and  C_7 
REMARK       I    between atoms: C_7  and  N_8 
REMARK    3  A    between atoms: N_8  and  C_9 
REMARK    4  A    between atoms: C_9  and  C_10 
REMARK    5  A    between atoms: C_12  and  O_13 
REMARK    6  A    between atoms: O_13  and  C_14 
ROOT
HETATM    1  N   UNL     1      -7.269   3.587 -31.710  1.00  0.00    -0.333 N 
HETATM    2  C   UNL     1      -7.677   2.832 -30.661  1.00  0.00     0.317 C 
HETATM    3  N   UNL     1      -8.411   1.730 -30.960  1.00  0.00    -0.339 N 
HETATM    4  O   UNL     1      -7.415   3.090 -29.491  1.00  0.00    -0.247 OA
HETATM    5  H   UNL     1      -7.306   3.197 -32.639  1.00  0.00     0.165 HD
HETATM    6  H   UNL     1      -8.706   1.231 -30.131  1.00  0.00     0.164 HD
ENDROOT
BRANCH   3   7
HETATM    7  C   UNL     1      -9.040   1.377 -32.216  1.00  0.00     0.163 C 
BRANCH   7   8
HETATM    8  C   UNL     1      -8.160   0.625 -33.181  1.00  0.00    -0.035 A 
HETATM    9  C   UNL     1      -7.215  -0.320 -32.771  1.00  0.00     0.066 A 
HETATM   10  C   UNL     1      -6.415  -0.922 -33.728  1.00  0.00     0.164 A 
HETATM   11  N   UNL     1      -6.515  -0.693 -35.055  1.00  0.00    -0.237 NA
HETATM   12  C   UNL     1      -7.459   0.190 -35.438  1.00  0.00     0.120 A 
HETATM   13  C   UNL     1      -8.290   0.865 -34.554  1.00  0.00     0.028 A 
BRANCH  10  14
HETATM   14  O   UNL     1      -5.451  -1.797 -33.267  1.00  0.00    -0.329 OA
BRANCH  14  15
HETATM   15  C   UNL     1      -4.535  -1.261 -32.289  1.00  0.00     0.130 C 
HETATM   16  C   UNL     1      -3.318  -2.147 -31.907  1.00  0.00     0.032 C 
HETATM   17  C   UNL     1      -2.465  -0.867 -31.897  1.00  0.00     0.005 C 
HETATM   18  C   UNL     1      -3.502  -0.251 -32.854  1.00  0.00     0.032 C 
ENDBRANCH  14  15
ENDBRANCH  10  14
ENDBRANCH   7   8
ENDBRANCH   3   7
BRANCH   1  19
HETATM   19  C   UNL     1      -6.381   4.724 -31.548  1.00  0.00     0.139 C 
HETATM   20  C   UNL     1      -6.760   5.850 -32.501  1.00  0.00     0.039 C 
BRANCH  19  21
HETATM   21  C   UNL     1      -4.981   4.257 -31.790  1.00  0.00     0.075 A 
HETATM   22  O   UNL     1      -4.297   4.837 -32.824  1.00  0.00    -0.318 OA
HETATM   23  C   UNL     1      -3.076   4.238 -32.886  1.00  0.00     0.049 A 
HETATM   24  C   UNL     1      -2.169   4.698 -33.956  1.00  0.00     0.076 C 
HETATM   25  C   UNL     1      -2.959   3.294 -31.890  1.00  0.00     0.035 A 
HETATM   26  C   UNL     1      -4.187   3.303 -31.185  1.00  0.00     0.037 A 
ENDBRANCH  19  21
ENDBRANCH   1  19
TORSDOF 6
ENDMDL
MODEL 10
REMARK VINA RESULT:      -7.1      2.041      9.273
REMARK  6 active torsions:
REMARK  status: ('A' for Active; 'I' for Inactive)
REMARK    1  A    between atoms: C_4  and  C_5 
REMARK    2  A    between atoms: C_5  and  N_6 
REMARK       I    between atoms: N_6  and  C_7 
REMARK       I    between atoms: C_7  and  N_8 
REMARK    3  A    between atoms: N_8  and  C_9 
REMARK    4  A    between atoms: C_9  and  C_10 
REMARK    5  A    between atoms: C_12  and  O_13 
REMARK    6  A    between atoms: O_13  and  C_14 
ROOT
HETATM    1  N   UNL     1      -1.140   4.723 -31.274  1.00  0.00    -0.333 N 
HETATM    2  C   UNL     1      -1.850   4.578 -32.420  1.00  0.00     0.317 C 
HETATM    3  N   UNL     1      -2.953   3.791 -32.351  1.00  0.00    -0.339 N 
HETATM    4  O   UNL     1      -1.551   5.116 -33.480  1.00  0.00    -0.247 OA
HETATM    5  H   UNL     1      -1.566   4.461 -30.397  1.00  0.00     0.165 HD
HETATM    6  H   UNL     1      -3.417   3.704 -33.246  1.00  0.00     0.164 HD
ENDROOT
BRANCH   3   7
HETATM    7  C   UNL     1      -3.346   2.877 -31.299  1.00  0.00     0.163 C 
BRANCH   7   8
HETATM    8  C   UNL     1      -3.625   1.466 -31.750  1.00  0.00    -0.035 A 
HETATM    9  C   UNL     1      -4.480   1.163 -32.814  1.00  0.00     0.066 A 
HETATM   10  C   UNL     1      -4.716  -0.168 -33.121  1.00  0.00     0.164 A 
HETATM   11  N   UNL     1      -4.136  -1.207 -32.486  1.00  0.00    -0.237 NA
HETATM   12  C   UNL     1      -3.282  -0.898 -31.490  1.00  0.00     0.120 A 
HETATM   13  C   UNL     1      -3.002   0.401 -31.089  1.00  0.00     0.028 A 
BRANCH  10  14
HETATM   14  O   UNL     1      -5.620  -0.417 -34.135  1.00  0.00    -0.329 OA
BRANCH  14  15
HETATM   15  C   UNL     1      -6.768   0.457 -34.180  1.00  0.00     0.130 C 
HETATM   16  C   UNL     1      -7.819   0.179 -35.290  1.00  0.00     0.032 C 
HETATM   17  C   UNL     1      -8.910   0.488 -34.251  1.00  0.00     0.005 C 
HETATM   18  C   UNL     1      -7.888   0.106 -33.165  1.00  0.00     0.032 C 
ENDBRANCH  14  15
ENDBRANCH  10  14
ENDBRANCH   7   8
ENDBRANCH   3   7
BRANCH   1  19
HETATM   19  C   UNL     1      -0.010   5.626 -31.171  1.00  0.00     0.139 C 
HETATM   20  C   UNL     1       1.276   4.859 -30.891  1.00  0.00     0.039 C 
BRANCH  19  21
HETATM   21  C   UNL     1      -0.300   6.612 -30.084  1.00  0.00     0.075 A 
HETATM   22  O   UNL     1       0.772   7.164 -29.436  1.00  0.00    -0.318 OA
HETATM   23  C   UNL     1       0.278   7.988 -28.471  1.00  0.00     0.049 A 
HETATM   24  C   UNL     1       1.270   8.681 -27.625  1.00  0.00     0.076 C 
HETATM   25  C   UNL     1      -1.099   7.988 -28.505  1.00  0.00     0.035 A 
HETATM   26  C   UNL     1      -1.472   7.099 -29.542  1.00  0.00     0.037 A 
ENDBRANCH  19  21
ENDBRANCH   1  19
TORSDOF 6
ENDMDL
