MODEL 1
REMARK VINA RESULT:     -10.4      0.000      0.000
REMARK  6 active torsions:
REMARK  status: ('A' for Active; 'I' for Inactive)
REMARK    1  A    between atoms: C_5  and  C_6 
REMARK    2  A    between atoms: C_12  and  C_13 
REMARK       I    between atoms: C_13  and  N_14 
REMARK    3  A    between atoms: N_14  and  C_15 
REMARK    4  A    between atoms: C_18  and  C_19 
REMARK    5  A    between atoms: C_19  and  O_20 
REMARK    6  A    between atoms: C_25  and  C_26 
ROOT
HETATM    1  C   UNL     1      -7.019   0.080 -33.716  1.00  0.00     0.097 C 
HETATM    2  N   UNL     1      -6.350   1.374 -33.981  1.00  0.00    -0.268 NA
HETATM    3  C   UNL     1      -7.119   2.504 -33.932  1.00  0.00     0.118 A 
HETATM    4  N   UNL     1      -8.493   2.421 -34.004  1.00  0.00    -0.245 N 
HETATM    5  N   UNL     1      -9.111   3.608 -34.044  1.00  0.00    -0.182 NA
HETATM    6  C   UNL     1      -8.107   4.478 -33.921  1.00  0.00     0.159 A 
HETATM    7  C   UNL     1      -6.832   3.856 -33.867  1.00  0.00     0.091 A 
HETATM    8  C   UNL     1      -9.243   1.196 -34.202  1.00  0.00     0.221 C 
HETATM    9  C   UNL     1      -8.299   0.035 -34.573  1.00  0.00     0.061 C 
HETATM   10  H   UNL     1      -5.720   1.296 -34.785  1.00  0.00     0.130 HD
ENDROOT
BRANCH   7  11
HETATM   11  C   UNL     1      -5.567   4.571 -33.779  1.00  0.00     0.261 C 
HETATM   12  N   UNL     1      -4.912   4.432 -32.571  1.00  0.00    -0.323 N 
HETATM   13  H   UNL     1      -5.427   3.937 -31.852  1.00  0.00     0.169 HD
HETATM   14  O   UNL     1      -5.157   5.202 -34.747  1.00  0.00    -0.267 OA
BRANCH  12  15
HETATM   15  C   UNL     1      -3.590   4.825 -32.270  1.00  0.00     0.035 A 
HETATM   16  C   UNL     1      -2.475   4.444 -33.017  1.00  0.00     0.030 A 
HETATM   17  C   UNL     1      -1.181   4.802 -32.618  1.00  0.00     0.012 A 
HETATM   18  C   UNL     1      -0.968   5.546 -31.453  1.00  0.00    -0.030 A 
HETATM   19  C   UNL     1      -2.096   5.957 -30.723  1.00  0.00     0.012 A 
HETATM   20  C   UNL     1      -3.390   5.606 -31.128  1.00  0.00     0.030 A 
BRANCH  18  21
HETATM   21  C   UNL     1       0.411   5.924 -30.946  1.00  0.00     0.147 C 
HETATM   22  C   UNL     1       0.462   6.731 -29.652  1.00  0.00     0.044 C 
BRANCH  21  23
HETATM   23  O   UNL     1       1.181   4.738 -30.744  1.00  0.00    -0.391 OA
HETATM   24  H   UNL     1       2.118   4.986 -30.814  1.00  0.00     0.210 HD
ENDBRANCH  21  23
ENDBRANCH  18  21
ENDBRANCH  12  15
ENDBRANCH   7  11
BRANCH   1  25
HETATM   25  C   UNL     1      -6.044  -1.075 -33.903  1.00  0.00    -0.040 A 
HETATM   26  C   UNL     1      -4.891  -1.143 -33.099  1.00  0.00     0.009 A 
HETATM   27  C   UNL     1      -4.028  -2.242 -33.154  1.00  0.00     0.007 A 
HETATM   28  C   UNL     1      -4.300  -3.315 -34.007  1.00  0.00    -0.062 A 
HETATM   29  C   UNL     1      -3.423  -4.531 -34.005  1.00  0.00     0.048 C 
HETATM   30  C   UNL     1      -5.450  -3.268 -34.799  1.00  0.00     0.007 A 
HETATM   31  C   UNL     1      -6.306  -2.163 -34.751  1.00  0.00     0.009 A 
ENDBRANCH   1  25
BRANCH   8  32
HETATM   32  C   UNL     1     -10.070   0.881 -32.973  1.00  0.00     0.409 C 
HETATM   33  F   UNL     1      -9.558   1.395 -31.836  1.00  0.00    -0.169 F 
HETATM   34  F   UNL     1     -11.311   1.421 -33.110  1.00  0.00    -0.169 F 
HETATM   35  F   UNL     1     -10.249  -0.445 -32.790  1.00  0.00    -0.169 F 
ENDBRANCH   8  32
TORSDOF 6
ENDMDL
MODEL 2
REMARK VINA RESULT:      -9.8      3.948      8.043
REMARK  6 active torsions:
REMARK  status: ('A' for Active; 'I' for Inactive)
REMARK    1  A    between atoms: C_5  and  C_6 
REMARK    2  A    between atoms: C_12  and  C_13 
REMARK       I    between atoms: C_13  and  N_14 
REMARK    3  A    between atoms: N_14  and  C_15 
REMARK    4  A    between atoms: C_18  and  C_19 
REMARK    5  A    between atoms: C_19  and  O_20 
REMARK    6  A    between atoms: C_25  and  C_26 
ROOT
HETATM    1  C   UNL     1      -5.419   0.824 -32.926  1.00  0.00     0.097 C 
HETATM    2  N   UNL     1      -6.683   1.246 -32.279  1.00  0.00    -0.268 NA
HETATM    3  C   UNL     1      -6.659   2.398 -31.541  1.00  0.00     0.118 A 
HETATM    4  N   UNL     1      -5.464   2.933 -31.113  1.00  0.00    -0.245 N 
HETATM    5  N   UNL     1      -5.596   4.003 -30.319  1.00  0.00    -0.182 NA
HETATM    6  C   UNL     1      -6.916   4.204 -30.297  1.00  0.00     0.159 A 
HETATM    7  C   UNL     1      -7.642   3.224 -31.024  1.00  0.00     0.091 A 
HETATM    8  C   UNL     1      -4.161   2.331 -31.322  1.00  0.00     0.221 C 
HETATM    9  C   UNL     1      -4.306   0.895 -31.863  1.00  0.00     0.061 C 
HETATM   10  H   UNL     1      -7.150   0.446 -31.844  1.00  0.00     0.130 HD
ENDROOT
BRANCH   7  11
HETATM   11  C   UNL     1      -9.093   3.178 -31.126  1.00  0.00     0.261 C 
HETATM   12  N   UNL     1      -9.570   2.844 -32.379  1.00  0.00    -0.323 N 
HETATM   13  H   UNL     1      -8.867   2.767 -33.104  1.00  0.00     0.169 HD
HETATM   14  O   UNL     1      -9.780   3.399 -30.135  1.00  0.00    -0.267 OA
BRANCH  12  15
HETATM   15  C   UNL     1     -10.900   2.518 -32.724  1.00  0.00     0.035 A 
HETATM   16  C   UNL     1     -11.990   3.359 -32.500  1.00  0.00     0.030 A 
HETATM   17  C   UNL     1     -13.295   2.943 -32.793  1.00  0.00     0.012 A 
HETATM   18  C   UNL     1     -13.544   1.668 -33.311  1.00  0.00    -0.030 A 
HETATM   19  C   UNL     1     -12.440   0.839 -33.567  1.00  0.00     0.012 A 
HETATM   20  C   UNL     1     -11.134   1.259 -33.283  1.00  0.00     0.030 A 
BRANCH  18  21
HETATM   21  C   UNL     1     -14.937   1.144 -33.604  1.00  0.00     0.147 C 
HETATM   22  C   UNL     1     -16.097   1.900 -32.961  1.00  0.00     0.044 C 
BRANCH  21  23
HETATM   23  O   UNL     1     -15.153   1.143 -35.016  1.00  0.00    -0.391 OA
HETATM   24  H   UNL     1     -15.596   1.978 -35.243  1.00  0.00     0.210 HD
ENDBRANCH  21  23
ENDBRANCH  18  21
ENDBRANCH  12  15
ENDBRANCH   7  11
BRANCH   1  25
HETATM   25  C   UNL     1      -5.598  -0.518 -33.625  1.00  0.00    -0.040 A 
HETATM   26  C   UNL     1      -4.518  -1.418 -33.677  1.00  0.00     0.009 A 
HETATM   27  C   UNL     1      -4.667  -2.704 -34.206  1.00  0.00     0.007 A 
HETATM   28  C   UNL     1      -5.907  -3.134 -34.686  1.00  0.00    -0.062 A 
HETATM   29  C   UNL     1      -6.090  -4.540 -35.174  1.00  0.00     0.048 C 
HETATM   30  C   UNL     1      -6.991  -2.256 -34.626  1.00  0.00     0.007 A 
HETATM   31  C   UNL     1      -6.838  -0.965 -34.108  1.00  0.00     0.009 A 
ENDBRANCH   1  25
BRANCH   8  32
HETATM   32  C   UNL     1      -3.322   3.197 -32.238  1.00  0.00     0.409 C 
HETATM   33  F   UNL     1      -2.426   3.961 -31.582  1.00  0.00    -0.169 F 
HETATM   34  F   UNL     1      -2.604   2.405 -33.079  1.00  0.00    -0.169 F 
HETATM   35  F   UNL     1      -4.069   4.006 -33.020  1.00  0.00    -0.169 F 
ENDBRANCH   8  32
TORSDOF 6
ENDMDL
MODEL 3
REMARK VINA RESULT:      -9.0      3.856      7.882
REMARK  6 active torsions:
REMARK  status: ('A' for Active; 'I' for Inactive)
REMARK    1  A    between atoms: C_5  and  C_6 
REMARK    2  A    between atoms: C_12  and  C_13 
REMARK       I    between atoms: C_13  and  N_14 
REMARK    3  A    between atoms: N_14  and  C_15 
REMARK    4  A    between atoms: C_18  and  C_19 
REMARK    5  A    between atoms: C_19  and  O_20 
REMARK    6  A    between atoms: C_25  and  C_26 
ROOT
HETATM    1  C   UNL     1      -3.969   2.361 -32.585  1.00  0.00     0.097 C 
HETATM    2  N   UNL     1      -5.378   2.802 -32.698  1.00  0.00    -0.268 NA
HETATM    3  C   UNL     1      -5.616   4.148 -32.753  1.00  0.00     0.118 A 
HETATM    4  N   UNL     1      -4.651   5.047 -32.353  1.00  0.00    -0.245 N 
HETATM    5  N   UNL     1      -5.055   6.324 -32.367  1.00  0.00    -0.182 NA
HETATM    6  C   UNL     1      -6.292   6.246 -32.861  1.00  0.00     0.159 A 
HETATM    7  C   UNL     1      -6.714   4.913 -33.105  1.00  0.00     0.091 A 
HETATM    8  C   UNL     1      -3.364   4.690 -31.789  1.00  0.00     0.221 C 
HETATM    9  C   UNL     1      -3.313   3.185 -31.460  1.00  0.00     0.061 C 
HETATM   10  H   UNL     1      -5.975   2.268 -32.060  1.00  0.00     0.130 HD
ENDROOT
BRANCH   7  11
HETATM   11  C   UNL     1      -8.031   4.539 -33.599  1.00  0.00     0.261 C 
HETATM   12  N   UNL     1      -8.564   3.407 -33.015  1.00  0.00    -0.323 N 
HETATM   13  H   UNL     1      -7.943   2.909 -32.388  1.00  0.00     0.169 HD
HETATM   14  O   UNL     1      -8.583   5.235 -34.445  1.00  0.00    -0.267 OA
BRANCH  12  15
HETATM   15  C   UNL     1      -9.888   2.931 -33.133  1.00  0.00     0.035 A 
HETATM   16  C   UNL     1     -10.286   1.959 -34.052  1.00  0.00     0.030 A 
HETATM   17  C   UNL     1     -11.632   1.589 -34.173  1.00  0.00     0.012 A 
HETATM   18  C   UNL     1     -12.617   2.188 -33.381  1.00  0.00    -0.030 A 
HETATM   19  C   UNL     1     -12.205   3.139 -32.434  1.00  0.00     0.012 A 
HETATM   20  C   UNL     1     -10.858   3.503 -32.307  1.00  0.00     0.030 A 
BRANCH  18  21
HETATM   21  C   UNL     1     -14.093   1.862 -33.499  1.00  0.00     0.147 C 
HETATM   22  C   UNL     1     -14.451   0.595 -34.272  1.00  0.00     0.044 C 
BRANCH  21  23
HETATM   23  O   UNL     1     -14.655   1.742 -32.191  1.00  0.00    -0.391 OA
HETATM   24  H   UNL     1     -13.917   1.647 -31.565  1.00  0.00     0.210 HD
ENDBRANCH  21  23
ENDBRANCH  18  21
ENDBRANCH  12  15
ENDBRANCH   7  11
BRANCH   1  25
HETATM   25  C   UNL     1      -3.891   0.846 -32.441  1.00  0.00    -0.040 A 
HETATM   26  C   UNL     1      -4.696   0.032 -33.260  1.00  0.00     0.009 A 
HETATM   27  C   UNL     1      -4.576  -1.361 -33.245  1.00  0.00     0.007 A 
HETATM   28  C   UNL     1      -3.637  -1.982 -32.419  1.00  0.00    -0.062 A 
HETATM   29  C   UNL     1      -3.448  -3.469 -32.464  1.00  0.00     0.048 C 
HETATM   30  C   UNL     1      -2.820  -1.186 -31.612  1.00  0.00     0.007 A 
HETATM   31  C   UNL     1      -2.949   0.207 -31.620  1.00  0.00     0.009 A 
ENDBRANCH   1  25
BRANCH   8  32
HETATM   32  C   UNL     1      -2.247   5.102 -32.724  1.00  0.00     0.409 C 
HETATM   33  F   UNL     1      -2.555   4.946 -34.028  1.00  0.00    -0.169 F 
HETATM   34  F   UNL     1      -1.976   6.424 -32.553  1.00  0.00    -0.169 F 
HETATM   35  F   UNL     1      -1.094   4.442 -32.484  1.00  0.00    -0.169 F 
ENDBRANCH   8  32
TORSDOF 6
ENDMDL
MODEL 4
REMARK VINA RESULT:      -8.9      1.644      2.083
REMARK  6 active torsions:
REMARK  status: ('A' for Active; 'I' for Inactive)
REMARK    1  A    between atoms: C_5  and  C_6 
REMARK    2  A    between atoms: C_12  and  C_13 
REMARK       I    between atoms: C_13  and  N_14 
REMARK    3  A    between atoms: N_14  and  C_15 
REMARK    4  A    between atoms: C_18  and  C_19 
REMARK    5  A    between atoms: C_19  and  O_20 
REMARK    6  A    between atoms: C_25  and  C_26 
ROOT
HETATM    1  C   UNL     1      -6.821   0.245 -33.533  1.00  0.00     0.097 C 
HETATM    2  N   UNL     1      -5.902   1.379 -33.281  1.00  0.00    -0.268 NA
HETATM    3  C   UNL     1      -6.442   2.636 -33.258  1.00  0.00     0.118 A 
HETATM    4  N   UNL     1      -7.684   2.875 -33.803  1.00  0.00    -0.245 N 
HETATM    5  N   UNL     1      -8.044   4.165 -33.799  1.00  0.00    -0.182 NA
HETATM    6  C   UNL     1      -7.031   4.761 -33.166  1.00  0.00     0.159 A 
HETATM    7  C   UNL     1      -5.986   3.866 -32.818  1.00  0.00     0.091 A 
HETATM    8  C   UNL     1      -8.494   1.890 -34.493  1.00  0.00     0.221 C 
HETATM    9  C   UNL     1      -7.680   0.608 -34.759  1.00  0.00     0.061 C 
HETATM   10  H   UNL     1      -5.040   1.272 -33.824  1.00  0.00     0.130 HD
ENDROOT
BRANCH   7  11
HETATM   11  C   UNL     1      -4.746   4.257 -32.163  1.00  0.00     0.261 C 
HETATM   12  N   UNL     1      -4.609   5.616 -31.958  1.00  0.00    -0.323 N 
HETATM   13  H   UNL     1      -5.332   6.192 -32.373  1.00  0.00     0.169 HD
HETATM   14  O   UNL     1      -3.943   3.397 -31.818  1.00  0.00    -0.267 OA
BRANCH  12  15
HETATM   15  C   UNL     1      -3.632   6.264 -31.171  1.00  0.00     0.035 A 
HETATM   16  C   UNL     1      -2.328   6.514 -31.599  1.00  0.00     0.030 A 
HETATM   17  C   UNL     1      -1.383   7.089 -30.740  1.00  0.00     0.012 A 
HETATM   18  C   UNL     1      -1.718   7.423 -29.423  1.00  0.00    -0.030 A 
HETATM   19  C   UNL     1      -3.042   7.201 -29.009  1.00  0.00     0.012 A 
HETATM   20  C   UNL     1      -3.988   6.635 -29.872  1.00  0.00     0.030 A 
BRANCH  18  21
HETATM   21  C   UNL     1      -0.727   8.005 -28.433  1.00  0.00     0.147 C 
HETATM   22  C   UNL     1       0.751   7.820 -28.762  1.00  0.00     0.044 C 
BRANCH  21  23
HETATM   23  O   UNL     1      -0.966   9.406 -28.295  1.00  0.00    -0.391 OA
HETATM   24  H   UNL     1      -0.920   9.616 -27.347  1.00  0.00     0.210 HD
ENDBRANCH  21  23
ENDBRANCH  18  21
ENDBRANCH  12  15
ENDBRANCH   7  11
BRANCH   1  25
HETATM   25  C   UNL     1      -6.046  -1.064 -33.619  1.00  0.00    -0.040 A 
HETATM   26  C   UNL     1      -6.479  -2.067 -34.505  1.00  0.00     0.009 A 
HETATM   27  C   UNL     1      -5.738  -3.235 -34.701  1.00  0.00     0.007 A 
HETATM   28  C   UNL     1      -4.531  -3.431 -34.026  1.00  0.00    -0.062 A 
HETATM   29  C   UNL     1      -3.692  -4.644 -34.299  1.00  0.00     0.048 C 
HETATM   30  C   UNL     1      -4.080  -2.436 -33.154  1.00  0.00     0.007 A 
HETATM   31  C   UNL     1      -4.829  -1.273 -32.950  1.00  0.00     0.009 A 
ENDBRANCH   1  25
BRANCH   8  32
HETATM   32  C   UNL     1      -9.757   1.604 -33.708  1.00  0.00     0.409 C 
HETATM   33  F   UNL     1      -9.632   1.840 -32.387  1.00  0.00    -0.169 F 
HETATM   34  F   UNL     1     -10.757   2.415 -34.147  1.00  0.00    -0.169 F 
HETATM   35  F   UNL     1     -10.195   0.337 -33.868  1.00  0.00    -0.169 F 
ENDBRANCH   8  32
TORSDOF 6
ENDMDL
MODEL 5
REMARK VINA RESULT:      -8.8      3.319      7.772
REMARK  6 active torsions:
REMARK  status: ('A' for Active; 'I' for Inactive)
REMARK    1  A    between atoms: C_5  and  C_6 
REMARK    2  A    between atoms: C_12  and  C_13 
REMARK       I    between atoms: C_13  and  N_14 
REMARK    3  A    between atoms: N_14  and  C_15 
REMARK    4  A    between atoms: C_18  and  C_19 
REMARK    5  A    between atoms: C_19  and  O_20 
REMARK    6  A    between atoms: C_25  and  C_26 
ROOT
HETATM    1  C   UNL     1      -5.148   5.293 -31.637  1.00  0.00     0.097 C 
HETATM    2  N   UNL     1      -5.515   3.875 -31.415  1.00  0.00    -0.268 NA
HETATM    3  C   UNL     1      -6.848   3.569 -31.370  1.00  0.00     0.118 A 
HETATM    4  N   UNL     1      -7.788   4.556 -31.167  1.00  0.00    -0.245 N 
HETATM    5  N   UNL     1      -9.041   4.100 -31.047  1.00  0.00    -0.182 NA
HETATM    6  C   UNL     1      -8.909   2.788 -31.252  1.00  0.00     0.159 A 
HETATM    7  C   UNL     1      -7.561   2.385 -31.440  1.00  0.00     0.091 A 
HETATM    8  C   UNL     1      -7.488   5.953 -30.919  1.00  0.00     0.221 C 
HETATM    9  C   UNL     1      -5.980   6.147 -30.662  1.00  0.00     0.061 C 
HETATM   10  H   UNL     1      -4.937   3.464 -30.677  1.00  0.00     0.130 HD
ENDROOT
BRANCH   7  11
HETATM   11  C   UNL     1      -7.129   1.009 -31.637  1.00  0.00     0.261 C 
HETATM   12  N   UNL     1      -7.062   0.612 -32.958  1.00  0.00    -0.323 N 
HETATM   13  H   UNL     1      -7.414   1.283 -33.631  1.00  0.00     0.169 HD
HETATM   14  O   UNL     1      -6.834   0.320 -30.667  1.00  0.00    -0.267 OA
BRANCH  12  15
HETATM   15  C   UNL     1      -6.484  -0.573 -33.462  1.00  0.00     0.035 A 
HETATM   16  C   UNL     1      -7.197  -1.555 -34.151  1.00  0.00     0.030 A 
HETATM   17  C   UNL     1      -6.581  -2.746 -34.554  1.00  0.00     0.012 A 
HETATM   18  C   UNL     1      -5.232  -2.990 -34.272  1.00  0.00    -0.030 A 
HETATM   19  C   UNL     1      -4.510  -1.983 -33.610  1.00  0.00     0.012 A 
HETATM   20  C   UNL     1      -5.126  -0.788 -33.215  1.00  0.00     0.030 A 
BRANCH  18  21
HETATM   21  C   UNL     1      -4.522  -4.277 -34.642  1.00  0.00     0.147 C 
HETATM   22  C   UNL     1      -3.455  -4.770 -33.669  1.00  0.00     0.044 C 
BRANCH  21  23
HETATM   23  O   UNL     1      -5.486  -5.322 -34.790  1.00  0.00    -0.391 OA
HETATM   24  H   UNL     1      -6.203  -4.977 -35.348  1.00  0.00     0.210 HD
ENDBRANCH  21  23
ENDBRANCH  18  21
ENDBRANCH  12  15
ENDBRANCH   7  11
BRANCH   1  25
HETATM   25  C   UNL     1      -3.636   5.472 -31.565  1.00  0.00    -0.040 A 
HETATM   26  C   UNL     1      -3.084   6.287 -30.561  1.00  0.00     0.009 A 
HETATM   27  C   UNL     1      -1.700   6.390 -30.385  1.00  0.00     0.007 A 
HETATM   28  C   UNL     1      -0.826   5.668 -31.202  1.00  0.00    -0.062 A 
HETATM   29  C   UNL     1       0.653   5.710 -30.960  1.00  0.00     0.048 C 
HETATM   30  C   UNL     1      -1.361   4.842 -32.193  1.00  0.00     0.007 A 
HETATM   31  C   UNL     1      -2.745   4.749 -32.375  1.00  0.00     0.009 A 
ENDBRANCH   1  25
BRANCH   8  32
HETATM   32  C   UNL     1      -7.979   6.808 -32.068  1.00  0.00     0.409 C 
HETATM   33  F   UNL     1      -9.227   7.284 -31.887  1.00  0.00    -0.169 F 
HETATM   34  F   UNL     1      -7.173   7.896 -32.201  1.00  0.00    -0.169 F 
HETATM   35  F   UNL     1      -7.946   6.161 -33.253  1.00  0.00    -0.169 F 
ENDBRANCH   8  32
TORSDOF 6
ENDMDL
MODEL 6
REMARK VINA RESULT:      -8.7      3.250      6.570
REMARK  6 active torsions:
REMARK  status: ('A' for Active; 'I' for Inactive)
REMARK    1  A    between atoms: C_5  and  C_6 
REMARK    2  A    between atoms: C_12  and  C_13 
REMARK       I    between atoms: C_13  and  N_14 
REMARK    3  A    between atoms: N_14  and  C_15 
REMARK    4  A    between atoms: C_18  and  C_19 
REMARK    5  A    between atoms: C_19  and  O_20 
REMARK    6  A    between atoms: C_25  and  C_26 
ROOT
HETATM    1  C   UNL     1     -11.498   3.910 -34.900  1.00  0.00     0.097 C 
HETATM    2  N   UNL     1     -10.096   3.633 -34.513  1.00  0.00    -0.268 NA
HETATM    3  C   UNL     1      -9.806   2.380 -34.047  1.00  0.00     0.118 A 
HETATM    4  N   UNL     1     -10.811   1.544 -33.611  1.00  0.00    -0.245 N 
HETATM    5  N   UNL     1     -10.374   0.389 -33.091  1.00  0.00    -0.182 NA
HETATM    6  C   UNL     1      -9.053   0.457 -33.267  1.00  0.00     0.159 A 
HETATM    7  C   UNL     1      -8.628   1.684 -33.841  1.00  0.00     0.091 A 
HETATM    8  C   UNL     1     -12.214   1.901 -33.530  1.00  0.00     0.221 C 
HETATM    9  C   UNL     1     -12.404   3.414 -33.757  1.00  0.00     0.061 C 
HETATM   10  H   UNL     1      -9.712   4.412 -33.970  1.00  0.00     0.130 HD
ENDROOT
BRANCH   7  11
HETATM   11  C   UNL     1      -7.240   2.040 -34.098  1.00  0.00     0.261 C 
HETATM   12  N   UNL     1      -6.886   3.310 -33.688  1.00  0.00    -0.323 N 
HETATM   13  H   UNL     1      -7.650   3.884 -33.349  1.00  0.00     0.169 HD
HETATM   14  O   UNL     1      -6.488   1.220 -34.614  1.00  0.00    -0.267 OA
BRANCH  12  15
HETATM   15  C   UNL     1      -5.584   3.848 -33.612  1.00  0.00     0.035 A 
HETATM   16  C   UNL     1      -5.063   4.760 -34.531  1.00  0.00     0.030 A 
HETATM   17  C   UNL     1      -3.734   5.194 -34.444  1.00  0.00     0.012 A 
HETATM   18  C   UNL     1      -2.887   4.720 -33.437  1.00  0.00    -0.030 A 
HETATM   19  C   UNL     1      -3.427   3.830 -32.493  1.00  0.00     0.012 A 
HETATM   20  C   UNL     1      -4.758   3.404 -32.576  1.00  0.00     0.030 A 
BRANCH  18  21
HETATM   21  C   UNL     1      -1.429   5.118 -33.319  1.00  0.00     0.147 C 
HETATM   22  C   UNL     1      -1.114   6.604 -33.470  1.00  0.00     0.044 C 
BRANCH  21  23
HETATM   23  O   UNL     1      -0.926   4.698 -32.049  1.00  0.00    -0.391 OA
HETATM   24  H   UNL     1      -1.633   4.196 -31.609  1.00  0.00     0.210 HD
ENDBRANCH  21  23
ENDBRANCH  18  21
ENDBRANCH  12  15
ENDBRANCH   7  11
BRANCH   1  25
HETATM   25  C   UNL     1     -11.664   5.370 -35.304  1.00  0.00    -0.040 A 
HETATM   26  C   UNL     1     -10.524   6.182 -35.445  1.00  0.00     0.009 A 
HETATM   27  C   UNL     1     -10.617   7.492 -35.924  1.00  0.00     0.007 A 
HETATM   28  C   UNL     1     -11.855   8.027 -36.289  1.00  0.00    -0.062 A 
HETATM   29  C   UNL     1     -11.947   9.401 -36.882  1.00  0.00     0.048 C 
HETATM   30  C   UNL     1     -12.994   7.227 -36.169  1.00  0.00     0.007 A 
HETATM   31  C   UNL     1     -12.901   5.920 -35.680  1.00  0.00     0.009 A 
ENDBRANCH   1  25
BRANCH   8  32
HETATM   32  C   UNL     1     -13.023   1.077 -34.511  1.00  0.00     0.409 C 
HETATM   33  F   UNL     1     -14.238   1.598 -34.773  1.00  0.00    -0.169 F 
HETATM   34  F   UNL     1     -12.369   1.018 -35.702  1.00  0.00    -0.169 F 
HETATM   35  F   UNL     1     -13.193  -0.199 -34.105  1.00  0.00    -0.169 F 
ENDBRANCH   8  32
TORSDOF 6
ENDMDL
MODEL 7
REMARK VINA RESULT:      -8.7     16.967     19.556
REMARK  6 active torsions:
REMARK  status: ('A' for Active; 'I' for Inactive)
REMARK    1  A    between atoms: C_5  and  C_6 
REMARK    2  A    between atoms: C_12  and  C_13 
REMARK       I    between atoms: C_13  and  N_14 
REMARK    3  A    between atoms: N_14  and  C_15 
REMARK    4  A    between atoms: C_18  and  C_19 
REMARK    5  A    between atoms: C_19  and  O_20 
REMARK    6  A    between atoms: C_25  and  C_26 
ROOT
HETATM    1  C   UNL     1      -1.721 -15.413 -40.559  1.00  0.00     0.097 C 
HETATM    2  N   UNL     1      -2.861 -15.088 -39.672  1.00  0.00    -0.268 NA
HETATM    3  C   UNL     1      -2.577 -14.754 -38.376  1.00  0.00     0.118 A 
HETATM    4  N   UNL     1      -1.353 -15.064 -37.825  1.00  0.00    -0.245 N 
HETATM    5  N   UNL     1      -1.249 -14.769 -36.523  1.00  0.00    -0.182 NA
HETATM    6  C   UNL     1      -2.419 -14.186 -36.249  1.00  0.00     0.159 A 
HETATM    7  C   UNL     1      -3.304 -14.163 -37.358  1.00  0.00     0.091 A 
HETATM    8  C   UNL     1      -0.301 -15.803 -38.495  1.00  0.00     0.221 C 
HETATM    9  C   UNL     1      -0.822 -16.416 -39.811  1.00  0.00     0.061 C 
HETATM   10  H   UNL     1      -3.624 -15.758 -39.805  1.00  0.00     0.130 HD
ENDROOT
BRANCH   7  11
HETATM   11  C   UNL     1      -4.658 -13.629 -37.324  1.00  0.00     0.261 C 
HETATM   12  N   UNL     1      -5.290 -13.585 -38.552  1.00  0.00    -0.323 N 
HETATM   13  H   UNL     1      -4.711 -13.832 -39.346  1.00  0.00     0.169 HD
HETATM   14  O   UNL     1      -5.151 -13.291 -36.254  1.00  0.00    -0.267 OA
BRANCH  12  15
HETATM   15  C   UNL     1      -6.654 -13.322 -38.798  1.00  0.00     0.035 A 
HETATM   16  C   UNL     1      -7.701 -13.902 -38.081  1.00  0.00     0.030 A 
HETATM   17  C   UNL     1      -9.036 -13.660 -38.428  1.00  0.00     0.012 A 
HETATM   18  C   UNL     1      -9.359 -12.835 -39.510  1.00  0.00    -0.030 A 
HETATM   19  C   UNL     1      -8.303 -12.225 -40.207  1.00  0.00     0.012 A 
HETATM   20  C   UNL     1      -6.968 -12.460 -39.853  1.00  0.00     0.030 A 
BRANCH  18  21
HETATM   21  C   UNL     1     -10.783 -12.572 -39.962  1.00  0.00     0.147 C 
HETATM   22  C   UNL     1     -11.059 -11.206 -40.582  1.00  0.00     0.044 C 
BRANCH  21  23
HETATM   23  O   UNL     1     -11.165 -13.564 -40.917  1.00  0.00    -0.391 OA
HETATM   24  H   UNL     1     -10.531 -13.518 -41.653  1.00  0.00     0.210 HD
ENDBRANCH  21  23
ENDBRANCH  18  21
ENDBRANCH  12  15
ENDBRANCH   7  11
BRANCH   1  25
HETATM   25  C   UNL     1      -2.218 -15.850 -41.932  1.00  0.00    -0.040 A 
HETATM   26  C   UNL     1      -3.066 -14.998 -42.663  1.00  0.00     0.009 A 
HETATM   27  C   UNL     1      -3.454 -15.304 -43.971  1.00  0.00     0.007 A 
HETATM   28  C   UNL     1      -2.993 -16.467 -44.593  1.00  0.00    -0.062 A 
HETATM   29  C   UNL     1      -3.339 -16.754 -46.024  1.00  0.00     0.048 C 
HETATM   30  C   UNL     1      -2.138 -17.314 -43.885  1.00  0.00     0.007 A 
HETATM   31  C   UNL     1      -1.760 -17.013 -42.572  1.00  0.00     0.009 A 
ENDBRANCH   1  25
BRANCH   8  32
HETATM   32  C   UNL     1       0.903 -14.914 -38.725  1.00  0.00     0.409 C 
HETATM   33  F   UNL     1       0.615 -13.598 -38.671  1.00  0.00    -0.169 F 
HETATM   34  F   UNL     1       1.827 -15.141 -37.753  1.00  0.00    -0.169 F 
HETATM   35  F   UNL     1       1.518 -15.161 -39.901  1.00  0.00    -0.169 F 
ENDBRANCH   8  32
TORSDOF 6
ENDMDL
MODEL 8
REMARK VINA RESULT:      -8.4      4.156      7.652
REMARK  6 active torsions:
REMARK  status: ('A' for Active; 'I' for Inactive)
REMARK    1  A    between atoms: C_5  and  C_6 
REMARK    2  A    between atoms: C_12  and  C_13 
REMARK       I    between atoms: C_13  and  N_14 
REMARK    3  A    between atoms: N_14  and  C_15 
REMARK    4  A    between atoms: C_18  and  C_19 
REMARK    5  A    between atoms: C_19  and  O_20 
REMARK    6  A    between atoms: C_25  and  C_26 
ROOT
HETATM    1  C   UNL     1      -5.820   1.071 -33.293  1.00  0.00     0.097 C 
HETATM    2  N   UNL     1      -7.104   1.798 -33.420  1.00  0.00    -0.268 NA
HETATM    3  C   UNL     1      -7.178   3.048 -32.871  1.00  0.00     0.118 A 
HETATM    4  N   UNL     1      -6.253   3.460 -31.936  1.00  0.00    -0.245 N 
HETATM    5  N   UNL     1      -6.504   4.666 -31.412  1.00  0.00    -0.182 NA
HETATM    6  C   UNL     1      -7.584   5.071 -32.085  1.00  0.00     0.159 A 
HETATM    7  C   UNL     1      -8.070   4.099 -32.998  1.00  0.00     0.091 A 
HETATM    8  C   UNL     1      -5.188   2.634 -31.400  1.00  0.00     0.221 C 
HETATM    9  C   UNL     1      -5.377   1.163 -31.820  1.00  0.00     0.061 C 
HETATM   10  H   UNL     1      -7.892   1.175 -33.222  1.00  0.00     0.130 HD
ENDROOT
BRANCH   7  11
HETATM   11  C   UNL     1      -9.257   4.261 -33.825  1.00  0.00     0.261 C 
HETATM   12  N   UNL     1      -9.900   5.475 -33.674  1.00  0.00    -0.323 N 
HETATM   13  H   UNL     1      -9.536   6.070 -32.939  1.00  0.00     0.169 HD
HETATM   14  O   UNL     1      -9.589   3.367 -34.595  1.00  0.00    -0.267 OA
BRANCH  12  15
HETATM   15  C   UNL     1     -10.935   5.996 -34.480  1.00  0.00     0.035 A 
HETATM   16  C   UNL     1     -12.199   5.416 -34.595  1.00  0.00     0.030 A 
HETATM   17  C   UNL     1     -13.155   5.938 -35.476  1.00  0.00     0.012 A 
HETATM   18  C   UNL     1     -12.868   7.052 -36.272  1.00  0.00    -0.030 A 
HETATM   19  C   UNL     1     -11.606   7.652 -36.126  1.00  0.00     0.012 A 
HETATM   20  C   UNL     1     -10.654   7.135 -35.238  1.00  0.00     0.030 A 
BRANCH  18  21
HETATM   21  C   UNL     1     -13.845   7.633 -37.276  1.00  0.00     0.147 C 
HETATM   22  C   UNL     1     -13.315   8.747 -38.174  1.00  0.00     0.044 C 
BRANCH  21  23
HETATM   23  O   UNL     1     -14.328   6.590 -38.123  1.00  0.00    -0.391 OA
HETATM   24  H   UNL     1     -14.155   6.858 -39.041  1.00  0.00     0.210 HD
ENDBRANCH  21  23
ENDBRANCH  18  21
ENDBRANCH  12  15
ENDBRANCH   7  11
BRANCH   1  25
HETATM   25  C   UNL     1      -5.939  -0.333 -33.873  1.00  0.00    -0.040 A 
HETATM   26  C   UNL     1      -4.825  -1.192 -33.838  1.00  0.00     0.009 A 
HETATM   27  C   UNL     1      -4.919  -2.524 -34.252  1.00  0.00     0.007 A 
HETATM   28  C   UNL     1      -6.136  -3.041 -34.704  1.00  0.00    -0.062 A 
HETATM   29  C   UNL     1      -6.259  -4.491 -35.068  1.00  0.00     0.048 C 
HETATM   30  C   UNL     1      -7.253  -2.204 -34.730  1.00  0.00     0.007 A 
HETATM   31  C   UNL     1      -7.156  -0.869 -34.325  1.00  0.00     0.009 A 
ENDBRANCH   1  25
BRANCH   8  32
HETATM   32  C   UNL     1      -3.839   3.174 -31.825  1.00  0.00     0.409 C 
HETATM   33  F   UNL     1      -3.322   4.069 -30.959  1.00  0.00    -0.169 F 
HETATM   34  F   UNL     1      -2.943   2.153 -31.896  1.00  0.00    -0.169 F 
HETATM   35  F   UNL     1      -3.866   3.743 -33.050  1.00  0.00    -0.169 F 
ENDBRANCH   8  32
TORSDOF 6
ENDMDL
MODEL 9
REMARK VINA RESULT:      -8.3      3.765      8.757
REMARK  6 active torsions:
REMARK  status: ('A' for Active; 'I' for Inactive)
REMARK    1  A    between atoms: C_5  and  C_6 
REMARK    2  A    between atoms: C_12  and  C_13 
REMARK       I    between atoms: C_13  and  N_14 
REMARK    3  A    between atoms: N_14  and  C_15 
REMARK    4  A    between atoms: C_18  and  C_19 
REMARK    5  A    between atoms: C_19  and  O_20 
REMARK    6  A    between atoms: C_25  and  C_26 
ROOT
HETATM    1  C   UNL     1      -4.361   6.581 -29.218  1.00  0.00     0.097 C 
HETATM    2  N   UNL     1      -4.354   5.193 -29.733  1.00  0.00    -0.268 NA
HETATM    3  C   UNL     1      -5.560   4.557 -29.848  1.00  0.00     0.118 A 
HETATM    4  N   UNL     1      -6.669   5.029 -29.181  1.00  0.00    -0.245 N 
HETATM    5  N   UNL     1      -7.753   4.254 -29.305  1.00  0.00    -0.182 NA
HETATM    6  C   UNL     1      -7.347   3.293 -30.137  1.00  0.00     0.159 A 
HETATM    7  C   UNL     1      -5.979   3.410 -30.500  1.00  0.00     0.091 A 
HETATM    8  C   UNL     1      -6.673   6.157 -28.269  1.00  0.00     0.221 C 
HETATM    9  C   UNL     1      -5.232   6.601 -27.947  1.00  0.00     0.061 C 
HETATM   10  H   UNL     1      -3.602   4.651 -29.299  1.00  0.00     0.130 HD
ENDROOT
BRANCH   7  11
HETATM   11  C   UNL     1      -5.268   2.473 -31.357  1.00  0.00     0.261 C 
HETATM   12  N   UNL     1      -5.749   1.178 -31.316  1.00  0.00    -0.323 N 
HETATM   13  H   UNL     1      -6.471   1.006 -30.625  1.00  0.00     0.169 HD
HETATM   14  O   UNL     1      -4.344   2.870 -32.058  1.00  0.00    -0.267 OA
BRANCH  12  15
HETATM   15  C   UNL     1      -5.407   0.116 -32.180  1.00  0.00     0.035 A 
HETATM   16  C   UNL     1      -6.092  -0.180 -33.359  1.00  0.00     0.030 A 
HETATM   17  C   UNL     1      -5.752  -1.298 -34.131  1.00  0.00     0.012 A 
HETATM   18  C   UNL     1      -4.720  -2.157 -33.738  1.00  0.00    -0.030 A 
HETATM   19  C   UNL     1      -4.011  -1.834 -32.569  1.00  0.00     0.012 A 
HETATM   20  C   UNL     1      -4.345  -0.710 -31.802  1.00  0.00     0.030 A 
BRANCH  18  21
HETATM   21  C   UNL     1      -4.337  -3.406 -34.506  1.00  0.00     0.147 C 
HETATM   22  C   UNL     1      -3.663  -4.517 -33.706  1.00  0.00     0.044 C 
BRANCH  21  23
HETATM   23  O   UNL     1      -5.503  -3.961 -35.116  1.00  0.00    -0.391 OA
HETATM   24  H   UNL     1      -6.225  -3.903 -34.468  1.00  0.00     0.210 HD
ENDBRANCH  21  23
ENDBRANCH  18  21
ENDBRANCH  12  15
ENDBRANCH   7  11
BRANCH   1  25
HETATM   25  C   UNL     1      -2.938   7.103 -29.066  1.00  0.00    -0.040 A 
HETATM   26  C   UNL     1      -2.608   7.897 -27.952  1.00  0.00     0.009 A 
HETATM   27  C   UNL     1      -1.292   8.302 -27.710  1.00  0.00     0.007 A 
HETATM   28  C   UNL     1      -0.261   7.915 -28.570  1.00  0.00    -0.062 A 
HETATM   29  C   UNL     1       1.162   8.277 -28.267  1.00  0.00     0.048 C 
HETATM   30  C   UNL     1      -0.572   7.114 -29.672  1.00  0.00     0.007 A 
HETATM   31  C   UNL     1      -1.891   6.718 -29.919  1.00  0.00     0.009 A 
ENDBRANCH   1  25
BRANCH   8  32
HETATM   32  C   UNL     1      -7.500   7.291 -28.838  1.00  0.00     0.409 C 
HETATM   33  F   UNL     1      -7.546   7.296 -30.185  1.00  0.00    -0.169 F 
HETATM   34  F   UNL     1      -8.786   7.172 -28.413  1.00  0.00    -0.169 F 
HETATM   35  F   UNL     1      -7.073   8.505 -28.429  1.00  0.00    -0.169 F 
ENDBRANCH   8  32
TORSDOF 6
ENDMDL
MODEL 10
REMARK VINA RESULT:      -8.3      7.578     10.431
REMARK  6 active torsions:
REMARK  status: ('A' for Active; 'I' for Inactive)
REMARK    1  A    between atoms: C_5  and  C_6 
REMARK    2  A    between atoms: C_12  and  C_13 
REMARK       I    between atoms: C_13  and  N_14 
REMARK    3  A    between atoms: N_14  and  C_15 
REMARK    4  A    between atoms: C_18  and  C_19 
REMARK    5  A    between atoms: C_19  and  O_20 
REMARK    6  A    between atoms: C_25  and  C_26 
ROOT
HETATM    1  C   UNL     1      -0.765   7.133 -29.622  1.00  0.00     0.097 C 
HETATM    2  N   UNL     1      -2.036   6.990 -28.877  1.00  0.00    -0.268 NA
HETATM    3  C   UNL     1      -2.040   7.361 -27.560  1.00  0.00     0.118 A 
HETATM    4  N   UNL     1      -0.857   7.505 -26.868  1.00  0.00    -0.245 N 
HETATM    5  N   UNL     1      -1.015   7.774 -25.566  1.00  0.00    -0.182 NA
HETATM    6  C   UNL     1      -2.339   7.879 -25.435  1.00  0.00     0.159 A 
HETATM    7  C   UNL     1      -3.042   7.612 -26.639  1.00  0.00     0.091 A 
HETATM    8  C   UNL     1       0.460   7.224 -27.405  1.00  0.00     0.221 C 
HETATM    9  C   UNL     1       0.351   6.506 -28.765  1.00  0.00     0.061 C 
HETATM   10  H   UNL     1      -2.479   6.091 -29.089  1.00  0.00     0.130 HD
ENDROOT
BRANCH   7  11
HETATM   11  C   UNL     1      -4.492   7.612 -26.767  1.00  0.00     0.261 C 
HETATM   12  N   UNL     1      -4.955   7.422 -28.055  1.00  0.00    -0.323 N 
HETATM   13  H   UNL     1      -4.242   7.406 -28.774  1.00  0.00     0.169 HD
HETATM   14  O   UNL     1      -5.191   7.743 -25.768  1.00  0.00    -0.267 OA
BRANCH  12  15
HETATM   15  C   UNL     1      -6.285   7.166 -28.451  1.00  0.00     0.035 A 
HETATM   16  C   UNL     1      -6.866   5.897 -28.458  1.00  0.00     0.030 A 
HETATM   17  C   UNL     1      -8.166   5.700 -28.940  1.00  0.00     0.012 A 
HETATM   18  C   UNL     1      -8.919   6.769 -29.437  1.00  0.00    -0.030 A 
HETATM   19  C   UNL     1      -8.343   8.050 -29.396  1.00  0.00     0.012 A 
HETATM   20  C   UNL     1      -7.046   8.248 -28.904  1.00  0.00     0.030 A 
BRANCH  18  21
HETATM   21  C   UNL     1     -10.312   6.611 -30.014  1.00  0.00     0.147 C 
HETATM   22  C   UNL     1     -10.528   7.144 -31.427  1.00  0.00     0.044 C 
BRANCH  21  23
HETATM   23  O   UNL     1     -10.667   5.227 -30.017  1.00  0.00    -0.391 OA
HETATM   24  H   UNL     1     -11.544   5.151 -29.604  1.00  0.00     0.210 HD
ENDBRANCH  21  23
ENDBRANCH  18  21
ENDBRANCH  12  15
ENDBRANCH   7  11
BRANCH   1  25
HETATM   25  C   UNL     1      -0.910   6.590 -31.038  1.00  0.00    -0.040 A 
HETATM   26  C   UNL     1      -1.291   5.249 -31.228  1.00  0.00     0.009 A 
HETATM   27  C   UNL     1      -1.548   4.738 -32.504  1.00  0.00     0.007 A 
HETATM   28  C   UNL     1      -1.444   5.559 -33.630  1.00  0.00    -0.062 A 
HETATM   29  C   UNL     1      -1.802   5.036 -34.990  1.00  0.00     0.048 C 
HETATM   30  C   UNL     1      -1.083   6.897 -33.455  1.00  0.00     0.007 A 
HETATM   31  C   UNL     1      -0.815   7.403 -32.179  1.00  0.00     0.009 A 
ENDBRANCH   1  25
BRANCH   8  32
HETATM   32  C   UNL     1       1.270   8.500 -27.503  1.00  0.00     0.409 C 
HETATM   33  F   UNL     1       2.249   8.586 -26.579  1.00  0.00    -0.169 F 
HETATM   34  F   UNL     1       1.886   8.554 -28.715  1.00  0.00    -0.169 F 
HETATM   35  F   UNL     1       0.508   9.611 -27.412  1.00  0.00    -0.169 F 
ENDBRANCH   8  32
TORSDOF 6
ENDMDL
