MODEL 1
REMARK VINA RESULT:      -8.1      0.000      0.000
REMARK  3 active torsions:
REMARK  status: ('A' for Active; 'I' for Inactive)
REMARK    1  A    between atoms: C_5  and  N_6 
REMARK       I    between atoms: N_6  and  C_7 
REMARK    2  A    between atoms: C_7  and  C_8 
REMARK    3  A    between atoms: C_8  and  C_9 
ROOT
HETATM    1  C   UNL     1      -9.136   1.047 -32.162  1.00  0.00     0.286 C 
HETATM    2  N   UNL     1      -9.487   0.950 -33.643  1.00  0.00    -0.056 N 
HETATM    3  H   UNL     1      -8.835   1.611 -34.120  1.00  0.00     0.278 HD
HETATM    4  H   UNL     1      -9.263   0.021 -34.018  1.00  0.00     0.278 HD
HETATM    5  C   UNL     1     -10.886   1.366 -33.998  1.00  0.00     0.209 C 
HETATM    6  C   UNL     1     -11.175   2.769 -33.409  1.00  0.00     0.115 C 
HETATM    7  N   UNL     1     -10.804   2.885 -32.000  1.00  0.00    -0.353 N 
HETATM    8  C   UNL     1      -9.655   2.334 -31.488  1.00  0.00     0.249 C 
HETATM    9  O   UNL     1      -9.153   2.803 -30.472  1.00  0.00    -0.271 OA
HETATM   10  C   UNL     1     -11.881   0.297 -33.539  1.00  0.00     0.035 C 
HETATM   11  C   UNL     1     -13.318   0.737 -33.805  1.00  0.00     0.002 C 
HETATM   12  C   UNL     1     -13.616   2.086 -33.153  1.00  0.00     0.002 C 
HETATM   13  C   UNL     1     -12.641   3.165 -33.622  1.00  0.00     0.027 C 
HETATM   14  H   UNL     1     -11.059   3.744 -31.516  1.00  0.00     0.163 HD
ENDROOT
BRANCH   1  15
HETATM   15  C   UNL     1      -7.629   0.860 -31.919  1.00  0.00     0.146 C 
BRANCH  15  16
HETATM   16  C   UNL     1      -6.811   1.442 -33.041  1.00  0.00     0.224 C 
HETATM   17  N   UNL     1      -6.138   0.680 -33.939  1.00  0.00    -0.327 N 
HETATM   18  H   UNL     1      -5.639   1.260 -34.608  1.00  0.00     0.169 HD
HETATM   19  O   UNL     1      -6.818   2.673 -33.197  1.00  0.00    -0.273 OA
BRANCH  17  20
HETATM   20  C   UNL     1      -5.969  -0.706 -34.133  1.00  0.00     0.034 A 
HETATM   21  C   UNL     1      -6.925  -1.592 -34.626  1.00  0.00     0.030 A 
HETATM   22  C   UNL     1      -6.636  -2.959 -34.751  1.00  0.00     0.009 A 
HETATM   23  C   UNL     1      -5.381  -3.464 -34.408  1.00  0.00    -0.062 A 
HETATM   24  C   UNL     1      -5.082  -4.930 -34.505  1.00  0.00     0.048 C 
HETATM   25  C   UNL     1      -4.416  -2.581 -33.925  1.00  0.00     0.009 A 
HETATM   26  C   UNL     1      -4.708  -1.219 -33.793  1.00  0.00     0.030 A 
ENDBRANCH  17  20
ENDBRANCH  15  16
ENDBRANCH   1  15
TORSDOF 3
ENDMDL
MODEL 2
REMARK VINA RESULT:      -8.0      3.794      6.316
REMARK  3 active torsions:
REMARK  status: ('A' for Active; 'I' for Inactive)
REMARK    1  A    between atoms: C_5  and  N_6 
REMARK       I    between atoms: N_6  and  C_7 
REMARK    2  A    between atoms: C_7  and  C_8 
REMARK    3  A    between atoms: C_8  and  C_9 
ROOT
HETATM    1  C   UNL     1      -5.252   3.518 -33.765  1.00  0.00     0.286 C 
HETATM    2  N   UNL     1      -4.120   3.330 -32.760  1.00  0.00    -0.056 N 
HETATM    3  H   UNL     1      -4.594   3.238 -31.835  1.00  0.00     0.278 HD
HETATM    4  H   UNL     1      -3.632   2.439 -32.912  1.00  0.00     0.278 HD
HETATM    5  C   UNL     1      -3.156   4.478 -32.659  1.00  0.00     0.209 C 
HETATM    6  C   UNL     1      -3.940   5.795 -32.433  1.00  0.00     0.115 C 
HETATM    7  N   UNL     1      -5.051   5.965 -33.367  1.00  0.00    -0.353 N 
HETATM    8  C   UNL     1      -5.875   4.930 -33.737  1.00  0.00     0.249 C 
HETATM    9  O   UNL     1      -7.012   5.164 -34.130  1.00  0.00    -0.271 OA
HETATM   10  C   UNL     1      -2.253   4.511 -33.894  1.00  0.00     0.035 C 
HETATM   11  C   UNL     1      -1.325   5.722 -33.861  1.00  0.00     0.002 C 
HETATM   12  C   UNL     1      -2.113   7.022 -33.717  1.00  0.00     0.002 C 
HETATM   13  C   UNL     1      -3.003   7.007 -32.474  1.00  0.00     0.027 C 
HETATM   14  H   UNL     1      -5.549   6.854 -33.348  1.00  0.00     0.163 HD
ENDROOT
BRANCH   1  15
HETATM   15  C   UNL     1      -6.330   2.432 -33.622  1.00  0.00     0.146 C 
BRANCH  15  16
HETATM   16  C   UNL     1      -6.325   1.827 -32.243  1.00  0.00     0.224 C 
HETATM   17  N   UNL     1      -6.177   0.498 -32.018  1.00  0.00    -0.327 N 
HETATM   18  H   UNL     1      -6.213   0.289 -31.024  1.00  0.00     0.169 HD
HETATM   19  O   UNL     1      -6.383   2.589 -31.267  1.00  0.00    -0.273 OA
BRANCH  17  20
HETATM   20  C   UNL     1      -6.002  -0.634 -32.842  1.00  0.00     0.034 A 
HETATM   21  C   UNL     1      -4.796  -1.274 -33.118  1.00  0.00     0.030 A 
HETATM   22  C   UNL     1      -4.755  -2.384 -33.976  1.00  0.00     0.009 A 
HETATM   23  C   UNL     1      -5.921  -2.887 -34.556  1.00  0.00    -0.062 A 
HETATM   24  C   UNL     1      -5.876  -4.049 -35.504  1.00  0.00     0.048 C 
HETATM   25  C   UNL     1      -7.133  -2.258 -34.274  1.00  0.00     0.009 A 
HETATM   26  C   UNL     1      -7.170  -1.147 -33.426  1.00  0.00     0.030 A 
ENDBRANCH  17  20
ENDBRANCH  15  16
ENDBRANCH   1  15
TORSDOF 3
ENDMDL
MODEL 3
REMARK VINA RESULT:      -7.9      1.406      1.922
REMARK  3 active torsions:
REMARK  status: ('A' for Active; 'I' for Inactive)
REMARK    1  A    between atoms: C_5  and  N_6 
REMARK       I    between atoms: N_6  and  C_7 
REMARK    2  A    between atoms: C_7  and  C_8 
REMARK    3  A    between atoms: C_8  and  C_9 
ROOT
HETATM    1  C   UNL     1      -8.956   1.729 -33.007  1.00  0.00     0.286 C 
HETATM    2  N   UNL     1      -9.356   3.183 -32.782  1.00  0.00    -0.056 N 
HETATM    3  H   UNL     1      -9.486   3.271 -31.751  1.00  0.00     0.278 HD
HETATM    4  H   UNL     1      -8.587   3.821 -33.021  1.00  0.00     0.278 HD
HETATM    5  C   UNL     1     -10.643   3.602 -33.435  1.00  0.00     0.209 C 
HETATM    6  C   UNL     1     -11.767   2.609 -33.047  1.00  0.00     0.115 C 
HETATM    7  N   UNL     1     -11.380   1.211 -33.221  1.00  0.00    -0.353 N 
HETATM    8  C   UNL     1     -10.134   0.739 -32.886  1.00  0.00     0.249 C 
HETATM    9  O   UNL     1      -9.982  -0.447 -32.617  1.00  0.00    -0.271 OA
HETATM   10  C   UNL     1     -10.443   3.735 -34.946  1.00  0.00     0.035 C 
HETATM   11  C   UNL     1     -11.758   4.069 -35.644  1.00  0.00     0.002 C 
HETATM   12  C   UNL     1     -12.839   3.041 -35.318  1.00  0.00     0.002 C 
HETATM   13  C   UNL     1     -13.061   2.916 -33.810  1.00  0.00     0.027 C 
HETATM   14  H   UNL     1     -12.100   0.503 -33.085  1.00  0.00     0.163 HD
ENDROOT
BRANCH   1  15
HETATM   15  C   UNL     1      -7.784   1.312 -32.104  1.00  0.00     0.146 C 
BRANCH  15  16
HETATM   16  C   UNL     1      -6.461   1.735 -32.685  1.00  0.00     0.224 C 
HETATM   17  N   UNL     1      -5.674   0.906 -33.416  1.00  0.00    -0.327 N 
HETATM   18  H   UNL     1      -4.820   1.375 -33.707  1.00  0.00     0.169 HD
HETATM   19  O   UNL     1      -6.113   2.918 -32.555  1.00  0.00    -0.273 OA
BRANCH  17  20
HETATM   20  C   UNL     1      -5.771  -0.436 -33.838  1.00  0.00     0.034 A 
HETATM   21  C   UNL     1      -6.880  -1.036 -34.431  1.00  0.00     0.030 A 
HETATM   22  C   UNL     1      -6.855  -2.393 -34.786  1.00  0.00     0.009 A 
HETATM   23  C   UNL     1      -5.715  -3.171 -34.576  1.00  0.00    -0.062 A 
HETATM   24  C   UNL     1      -5.698  -4.631 -34.919  1.00  0.00     0.048 C 
HETATM   25  C   UNL     1      -4.598  -2.573 -33.993  1.00  0.00     0.009 A 
HETATM   26  C   UNL     1      -4.627  -1.223 -33.632  1.00  0.00     0.030 A 
ENDBRANCH  17  20
ENDBRANCH  15  16
ENDBRANCH   1  15
TORSDOF 3
ENDMDL
MODEL 4
REMARK VINA RESULT:      -7.9      1.762      2.638
REMARK  3 active torsions:
REMARK  status: ('A' for Active; 'I' for Inactive)
REMARK    1  A    between atoms: C_5  and  N_6 
REMARK       I    between atoms: N_6  and  C_7 
REMARK    2  A    between atoms: C_7  and  C_8 
REMARK    3  A    between atoms: C_8  and  C_9 
ROOT
HETATM    1  C   UNL     1      -7.175   2.141 -33.580  1.00  0.00     0.286 C 
HETATM    2  N   UNL     1      -7.883   1.959 -32.242  1.00  0.00    -0.056 N 
HETATM    3  H   UNL     1      -7.546   1.040 -31.880  1.00  0.00     0.278 HD
HETATM    4  H   UNL     1      -7.571   2.658 -31.558  1.00  0.00     0.278 HD
HETATM    5  C   UNL     1      -9.382   1.890 -32.315  1.00  0.00     0.209 C 
HETATM    6  C   UNL     1      -9.802   0.825 -33.360  1.00  0.00     0.115 C 
HETATM    7  N   UNL     1      -9.098   0.967 -34.633  1.00  0.00    -0.353 N 
HETATM    8  C   UNL     1      -7.761   1.272 -34.713  1.00  0.00     0.249 C 
HETATM    9  O   UNL     1      -7.119   0.950 -35.706  1.00  0.00    -0.271 OA
HETATM   10  C   UNL     1      -9.956   3.280 -32.599  1.00  0.00     0.035 C 
HETATM   11  C   UNL     1     -11.471   3.221 -32.770  1.00  0.00     0.002 C 
HETATM   12  C   UNL     1     -11.871   2.226 -33.857  1.00  0.00     0.002 C 
HETATM   13  C   UNL     1     -11.320   0.829 -33.571  1.00  0.00     0.027 C 
HETATM   14  H   UNL     1      -9.395   0.368 -35.403  1.00  0.00     0.163 HD
ENDROOT
BRANCH   1  15
HETATM   15  C   UNL     1      -5.656   1.940 -33.455  1.00  0.00     0.146 C 
BRANCH  15  16
HETATM   16  C   UNL     1      -5.298   1.203 -32.192  1.00  0.00     0.224 C 
HETATM   17  N   UNL     1      -5.298  -0.150 -32.099  1.00  0.00    -0.327 N 
HETATM   18  H   UNL     1      -5.041  -0.452 -31.163  1.00  0.00     0.169 HD
HETATM   19  O   UNL     1      -4.911   1.862 -31.215  1.00  0.00    -0.273 OA
BRANCH  17  20
HETATM   20  C   UNL     1      -5.586  -1.205 -32.990  1.00  0.00     0.034 A 
HETATM   21  C   UNL     1      -6.848  -1.578 -33.447  1.00  0.00     0.030 A 
HETATM   22  C   UNL     1      -7.000  -2.666 -34.320  1.00  0.00     0.009 A 
HETATM   23  C   UNL     1      -5.894  -3.387 -34.770  1.00  0.00    -0.062 A 
HETATM   24  C   UNL     1      -6.057  -4.574 -35.673  1.00  0.00     0.048 C 
HETATM   25  C   UNL     1      -4.626  -3.011 -34.327  1.00  0.00     0.009 A 
HETATM   26  C   UNL     1      -4.477  -1.932 -33.450  1.00  0.00     0.030 A 
ENDBRANCH  17  20
ENDBRANCH  15  16
ENDBRANCH   1  15
TORSDOF 3
ENDMDL
MODEL 5
REMARK VINA RESULT:      -7.7      3.040      5.065
REMARK  3 active torsions:
REMARK  status: ('A' for Active; 'I' for Inactive)
REMARK    1  A    between atoms: C_5  and  N_6 
REMARK       I    between atoms: N_6  and  C_7 
REMARK    2  A    between atoms: C_7  and  C_8 
REMARK    3  A    between atoms: C_8  and  C_9 
ROOT
HETATM    1  C   UNL     1      -7.074   1.381 -32.173  1.00  0.00     0.286 C 
HETATM    2  N   UNL     1      -6.540   2.082 -33.417  1.00  0.00    -0.056 N 
HETATM    3  H   UNL     1      -6.172   1.316 -34.023  1.00  0.00     0.278 HD
HETATM    4  H   UNL     1      -7.298   2.520 -33.952  1.00  0.00     0.278 HD
HETATM    5  C   UNL     1      -5.410   3.042 -33.174  1.00  0.00     0.209 C 
HETATM    6  C   UNL     1      -4.294   2.337 -32.364  1.00  0.00     0.115 C 
HETATM    7  N   UNL     1      -4.803   1.628 -31.191  1.00  0.00    -0.353 N 
HETATM    8  C   UNL     1      -5.968   0.901 -31.211  1.00  0.00     0.249 C 
HETATM    9  O   UNL     1      -6.133  -0.012 -30.409  1.00  0.00    -0.271 OA
HETATM   10  C   UNL     1      -5.939   4.313 -32.504  1.00  0.00     0.035 C 
HETATM   11  C   UNL     1      -4.798   5.267 -32.163  1.00  0.00     0.002 C 
HETATM   12  C   UNL     1      -3.741   4.584 -31.297  1.00  0.00     0.002 C 
HETATM   13  C   UNL     1      -3.191   3.325 -31.968  1.00  0.00     0.027 C 
HETATM   14  H   UNL     1      -4.118   1.226 -30.552  1.00  0.00     0.163 HD
ENDROOT
BRANCH   1  15
HETATM   15  C   UNL     1      -8.035   0.236 -32.532  1.00  0.00     0.146 C 
BRANCH  15  16
HETATM   16  C   UNL     1      -8.203   0.101 -34.022  1.00  0.00     0.224 C 
HETATM   17  N   UNL     1      -7.464  -0.751 -34.776  1.00  0.00    -0.327 N 
HETATM   18  H   UNL     1      -7.720  -0.685 -35.758  1.00  0.00     0.169 HD
HETATM   19  O   UNL     1      -9.112   0.741 -34.572  1.00  0.00    -0.273 OA
BRANCH  17  20
HETATM   20  C   UNL     1      -6.433  -1.674 -34.506  1.00  0.00     0.034 A 
HETATM   21  C   UNL     1      -5.198  -1.385 -33.928  1.00  0.00     0.030 A 
HETATM   22  C   UNL     1      -4.246  -2.397 -33.732  1.00  0.00     0.009 A 
HETATM   23  C   UNL     1      -4.517  -3.719 -34.089  1.00  0.00    -0.062 A 
HETATM   24  C   UNL     1      -3.487  -4.795 -33.917  1.00  0.00     0.048 C 
HETATM   25  C   UNL     1      -5.755  -4.016 -34.658  1.00  0.00     0.009 A 
HETATM   26  C   UNL     1      -6.700  -3.005 -34.860  1.00  0.00     0.030 A 
ENDBRANCH  17  20
ENDBRANCH  15  16
ENDBRANCH   1  15
TORSDOF 3
ENDMDL
MODEL 6
REMARK VINA RESULT:      -7.7      4.293      6.988
REMARK  3 active torsions:
REMARK  status: ('A' for Active; 'I' for Inactive)
REMARK    1  A    between atoms: C_5  and  N_6 
REMARK       I    between atoms: N_6  and  C_7 
REMARK    2  A    between atoms: C_7  and  C_8 
REMARK    3  A    between atoms: C_8  and  C_9 
ROOT
HETATM    1  C   UNL     1      -4.206   4.288 -31.169  1.00  0.00     0.286 C 
HETATM    2  N   UNL     1      -4.829   5.272 -32.153  1.00  0.00    -0.056 N 
HETATM    3  H   UNL     1      -5.554   4.722 -32.663  1.00  0.00     0.278 HD
HETATM    4  H   UNL     1      -5.338   6.017 -31.663  1.00  0.00     0.278 HD
HETATM    5  C   UNL     1      -3.886   5.832 -33.181  1.00  0.00     0.209 C 
HETATM    6  C   UNL     1      -3.142   4.672 -33.889  1.00  0.00     0.115 C 
HETATM    7  N   UNL     1      -2.576   3.702 -32.954  1.00  0.00    -0.353 N 
HETATM    8  C   UNL     1      -3.242   3.280 -31.829  1.00  0.00     0.249 C 
HETATM    9  O   UNL     1      -2.975   2.191 -31.334  1.00  0.00    -0.271 OA
HETATM   10  C   UNL     1      -2.946   6.849 -32.528  1.00  0.00     0.035 C 
HETATM   11  C   UNL     1      -1.918   7.365 -33.530  1.00  0.00     0.002 C 
HETATM   12  C   UNL     1      -1.135   6.218 -34.165  1.00  0.00     0.002 C 
HETATM   13  C   UNL     1      -2.064   5.207 -34.839  1.00  0.00     0.027 C 
HETATM   14  H   UNL     1      -1.985   2.967 -33.340  1.00  0.00     0.163 HD
ENDROOT
BRANCH   1  15
HETATM   15  C   UNL     1      -5.274   3.568 -30.329  1.00  0.00     0.146 C 
BRANCH  15  16
HETATM   16  C   UNL     1      -6.639   3.683 -30.954  1.00  0.00     0.224 C 
HETATM   17  N   UNL     1      -7.159   2.738 -31.776  1.00  0.00    -0.327 N 
HETATM   18  H   UNL     1      -8.083   3.006 -32.102  1.00  0.00     0.169 HD
HETATM   19  O   UNL     1      -7.350   4.649 -30.639  1.00  0.00    -0.273 OA
BRANCH  17  20
HETATM   20  C   UNL     1      -6.702   1.501 -32.279  1.00  0.00     0.034 A 
HETATM   21  C   UNL     1      -6.292   0.405 -31.524  1.00  0.00     0.030 A 
HETATM   22  C   UNL     1      -5.836  -0.765 -32.150  1.00  0.00     0.009 A 
HETATM   23  C   UNL     1      -5.803  -0.870 -33.541  1.00  0.00    -0.062 A 
HETATM   24  C   UNL     1      -5.282  -2.105 -34.213  1.00  0.00     0.048 C 
HETATM   25  C   UNL     1      -6.224   0.220 -34.303  1.00  0.00     0.009 A 
HETATM   26  C   UNL     1      -6.669   1.388 -33.677  1.00  0.00     0.030 A 
ENDBRANCH  17  20
ENDBRANCH  15  16
ENDBRANCH   1  15
TORSDOF 3
ENDMDL
MODEL 7
REMARK VINA RESULT:      -7.6      4.506      7.178
REMARK  3 active torsions:
REMARK  status: ('A' for Active; 'I' for Inactive)
REMARK    1  A    between atoms: C_5  and  N_6 
REMARK       I    between atoms: N_6  and  C_7 
REMARK    2  A    between atoms: C_7  and  C_8 
REMARK    3  A    between atoms: C_8  and  C_9 
ROOT
HETATM    1  C   UNL     1      -4.564   4.432 -33.574  1.00  0.00     0.286 C 
HETATM    2  N   UNL     1      -4.587   5.044 -32.177  1.00  0.00    -0.056 N 
HETATM    3  H   UNL     1      -5.301   5.803 -32.225  1.00  0.00     0.278 HD
HETATM    4  H   UNL     1      -4.939   4.374 -31.483  1.00  0.00     0.278 HD
HETATM    5  C   UNL     1      -3.296   5.671 -31.732  1.00  0.00     0.209 C 
HETATM    6  C   UNL     1      -2.806   6.670 -32.811  1.00  0.00     0.115 C 
HETATM    7  N   UNL     1      -2.819   6.105 -34.159  1.00  0.00    -0.353 N 
HETATM    8  C   UNL     1      -3.836   5.304 -34.618  1.00  0.00     0.249 C 
HETATM    9  O   UNL     1      -4.054   5.223 -35.822  1.00  0.00    -0.271 OA
HETATM   10  C   UNL     1      -2.273   4.582 -31.401  1.00  0.00     0.035 C 
HETATM   11  C   UNL     1      -0.923   5.193 -31.035  1.00  0.00     0.002 C 
HETATM   12  C   UNL     1      -0.411   6.115 -32.140  1.00  0.00     0.002 C 
HETATM   13  C   UNL     1      -1.418   7.219 -32.463  1.00  0.00     0.027 C 
HETATM   14  H   UNL     1      -2.413   6.666 -34.907  1.00  0.00     0.163 HD
ENDROOT
BRANCH   1  15
HETATM   15  C   UNL     1      -5.974   4.051 -34.053  1.00  0.00     0.146 C 
BRANCH  15  16
HETATM   16  C   UNL     1      -6.840   3.587 -32.911  1.00  0.00     0.224 C 
HETATM   17  N   UNL     1      -7.142   2.283 -32.694  1.00  0.00    -0.327 N 
HETATM   18  H   UNL     1      -7.746   2.179 -31.883  1.00  0.00     0.169 HD
HETATM   19  O   UNL     1      -7.229   4.430 -32.089  1.00  0.00    -0.273 OA
BRANCH  17  20
HETATM   20  C   UNL     1      -6.822   1.071 -33.339  1.00  0.00     0.034 A 
HETATM   21  C   UNL     1      -7.318   0.634 -34.566  1.00  0.00     0.030 A 
HETATM   22  C   UNL     1      -6.935  -0.610 -35.090  1.00  0.00     0.009 A 
HETATM   23  C   UNL     1      -6.033  -1.430 -34.410  1.00  0.00    -0.062 A 
HETATM   24  C   UNL     1      -5.651  -2.777 -34.949  1.00  0.00     0.048 C 
HETATM   25  C   UNL     1      -5.525  -0.994 -33.187  1.00  0.00     0.009 A 
HETATM   26  C   UNL     1      -5.914   0.242 -32.662  1.00  0.00     0.030 A 
ENDBRANCH  17  20
ENDBRANCH  15  16
ENDBRANCH   1  15
TORSDOF 3
ENDMDL
MODEL 8
REMARK VINA RESULT:      -7.6      5.377      7.815
REMARK  3 active torsions:
REMARK  status: ('A' for Active; 'I' for Inactive)
REMARK    1  A    between atoms: C_5  and  N_6 
REMARK       I    between atoms: N_6  and  C_7 
REMARK    2  A    between atoms: C_7  and  C_8 
REMARK    3  A    between atoms: C_8  and  C_9 
ROOT
HETATM    1  C   UNL     1      -5.022   3.452 -33.462  1.00  0.00     0.286 C 
HETATM    2  N   UNL     1      -6.531   3.233 -33.431  1.00  0.00    -0.056 N 
HETATM    3  H   UNL     1      -6.852   3.694 -32.552  1.00  0.00     0.278 HD
HETATM    4  H   UNL     1      -6.996   3.736 -34.195  1.00  0.00     0.278 HD
HETATM    5  C   UNL     1      -6.967   1.796 -33.369  1.00  0.00     0.209 C 
HETATM    6  C   UNL     1      -6.238   1.082 -32.204  1.00  0.00     0.115 C 
HETATM    7  N   UNL     1      -4.796   1.320 -32.203  1.00  0.00    -0.353 N 
HETATM    8  C   UNL     1      -4.245   2.546 -32.484  1.00  0.00     0.249 C 
HETATM    9  O   UNL     1      -3.134   2.831 -32.052  1.00  0.00    -0.271 OA
HETATM   10  C   UNL     1      -6.748   1.125 -34.727  1.00  0.00     0.035 C 
HETATM   11  C   UNL     1      -7.098  -0.359 -34.666  1.00  0.00     0.002 C 
HETATM   12  C   UNL     1      -6.314  -1.070 -33.565  1.00  0.00     0.002 C 
HETATM   13  C   UNL     1      -6.543  -0.420 -32.201  1.00  0.00     0.027 C 
HETATM   14  H   UNL     1      -4.235   0.800 -31.529  1.00  0.00     0.163 HD
ENDROOT
BRANCH   1  15
HETATM   15  C   UNL     1      -4.655   4.931 -33.261  1.00  0.00     0.146 C 
BRANCH  15  16
HETATM   16  C   UNL     1      -3.777   5.440 -34.374  1.00  0.00     0.224 C 
HETATM   17  N   UNL     1      -2.552   5.981 -34.162  1.00  0.00    -0.327 N 
HETATM   18  H   UNL     1      -2.125   6.273 -35.037  1.00  0.00     0.169 HD
HETATM   19  O   UNL     1      -4.161   5.285 -35.543  1.00  0.00    -0.273 OA
BRANCH  17  20
HETATM   20  C   UNL     1      -1.764   6.235 -33.019  1.00  0.00     0.034 A 
HETATM   21  C   UNL     1      -0.814   5.380 -32.467  1.00  0.00     0.030 A 
HETATM   22  C   UNL     1      -0.110   5.745 -31.309  1.00  0.00     0.009 A 
HETATM   23  C   UNL     1      -0.327   6.979 -30.695  1.00  0.00    -0.062 A 
HETATM   24  C   UNL     1       0.396   7.357 -29.436  1.00  0.00     0.048 C 
HETATM   25  C   UNL     1      -1.268   7.845 -31.250  1.00  0.00     0.009 A 
HETATM   26  C   UNL     1      -1.975   7.476 -32.399  1.00  0.00     0.030 A 
ENDBRANCH  17  20
ENDBRANCH  15  16
ENDBRANCH   1  15
TORSDOF 3
ENDMDL
MODEL 9
REMARK VINA RESULT:      -7.4      6.149      8.336
REMARK  3 active torsions:
REMARK  status: ('A' for Active; 'I' for Inactive)
REMARK    1  A    between atoms: C_5  and  N_6 
REMARK       I    between atoms: N_6  and  C_7 
REMARK    2  A    between atoms: C_7  and  C_8 
REMARK    3  A    between atoms: C_8  and  C_9 
ROOT
HETATM    1  C   UNL     1      -3.964   2.999 -32.277  1.00  0.00     0.286 C 
HETATM    2  N   UNL     1      -5.409   3.486 -32.325  1.00  0.00    -0.056 N 
HETATM    3  H   UNL     1      -5.627   3.780 -31.347  1.00  0.00     0.278 HD
HETATM    4  H   UNL     1      -5.496   4.335 -32.896  1.00  0.00     0.278 HD
HETATM    5  C   UNL     1      -6.421   2.448 -32.719  1.00  0.00     0.209 C 
HETATM    6  C   UNL     1      -6.247   1.190 -31.832  1.00  0.00     0.115 C 
HETATM    7  N   UNL     1      -4.859   0.740 -31.748  1.00  0.00    -0.353 N 
HETATM    8  C   UNL     1      -3.802   1.609 -31.628  1.00  0.00     0.249 C 
HETATM    9  O   UNL     1      -2.752   1.229 -31.122  1.00  0.00    -0.271 OA
HETATM   10  C   UNL     1      -6.314   2.156 -34.217  1.00  0.00     0.035 C 
HETATM   11  C   UNL     1      -7.269   1.039 -34.626  1.00  0.00     0.002 C 
HETATM   12  C   UNL     1      -7.036  -0.223 -33.799  1.00  0.00     0.002 C 
HETATM   13  C   UNL     1      -7.162   0.054 -32.301  1.00  0.00     0.027 C 
HETATM   14  H   UNL     1      -4.679  -0.141 -31.267  1.00  0.00     0.163 HD
ENDROOT
BRANCH   1  15
HETATM   15  C   UNL     1      -3.035   4.032 -31.620  1.00  0.00     0.146 C 
BRANCH  15  16
HETATM   16  C   UNL     1      -2.020   4.564 -32.598  1.00  0.00     0.224 C 
HETATM   17  N   UNL     1      -0.978   5.350 -32.230  1.00  0.00    -0.327 N 
HETATM   18  H   UNL     1      -0.417   5.614 -33.036  1.00  0.00     0.169 HD
HETATM   19  O   UNL     1      -2.099   4.202 -33.782  1.00  0.00    -0.273 OA
BRANCH  17  20
HETATM   20  C   UNL     1      -0.522   5.883 -31.006  1.00  0.00     0.034 A 
HETATM   21  C   UNL     1      -0.746   7.175 -30.535  1.00  0.00     0.030 A 
HETATM   22  C   UNL     1      -0.215   7.589 -29.304  1.00  0.00     0.009 A 
HETATM   23  C   UNL     1       0.528   6.714 -28.510  1.00  0.00    -0.062 A 
HETATM   24  C   UNL     1       1.129   7.165 -27.211  1.00  0.00     0.048 C 
HETATM   25  C   UNL     1       0.746   5.416 -28.971  1.00  0.00     0.009 A 
HETATM   26  C   UNL     1       0.224   5.008 -30.202  1.00  0.00     0.030 A 
ENDBRANCH  17  20
ENDBRANCH  15  16
ENDBRANCH   1  15
TORSDOF 3
ENDMDL
MODEL 10
REMARK VINA RESULT:      -7.3      3.705      7.298
REMARK  3 active torsions:
REMARK  status: ('A' for Active; 'I' for Inactive)
REMARK    1  A    between atoms: C_5  and  N_6 
REMARK       I    between atoms: N_6  and  C_7 
REMARK    2  A    between atoms: C_7  and  C_8 
REMARK    3  A    between atoms: C_8  and  C_9 
ROOT
HETATM    1  C   UNL     1      -5.942   0.168 -32.677  1.00  0.00     0.286 C 
HETATM    2  N   UNL     1      -4.467   0.256 -33.053  1.00  0.00    -0.056 N 
HETATM    3  H   UNL     1      -4.454   0.704 -33.995  1.00  0.00     0.278 HD
HETATM    4  H   UNL     1      -3.963   0.900 -32.432  1.00  0.00     0.278 HD
HETATM    5  C   UNL     1      -3.758  -1.063 -33.173  1.00  0.00     0.209 C 
HETATM    6  C   UNL     1      -4.557  -1.998 -34.116  1.00  0.00     0.115 C 
HETATM    7  N   UNL     1      -5.980  -2.057 -33.789  1.00  0.00    -0.353 N 
HETATM    8  C   UNL     1      -6.704  -0.949 -33.422  1.00  0.00     0.249 C 
HETATM    9  O   UNL     1      -7.918  -0.928 -33.591  1.00  0.00    -0.271 OA
HETATM   10  C   UNL     1      -3.521  -1.658 -31.783  1.00  0.00     0.035 C 
HETATM   11  C   UNL     1      -2.885  -3.042 -31.882  1.00  0.00     0.002 C 
HETATM   12  C   UNL     1      -3.721  -3.979 -32.749  1.00  0.00     0.002 C 
HETATM   13  C   UNL     1      -3.945  -3.403 -34.148  1.00  0.00     0.027 C 
HETATM   14  H   UNL     1      -6.551  -2.729 -34.298  1.00  0.00     0.163 HD
ENDROOT
BRANCH   1  15
HETATM   15  C   UNL     1      -6.653   1.523 -32.830  1.00  0.00     0.146 C 
BRANCH  15  16
HETATM   16  C   UNL     1      -6.515   2.363 -31.588  1.00  0.00     0.224 C 
HETATM   17  N   UNL     1      -5.629   3.384 -31.479  1.00  0.00    -0.327 N 
HETATM   18  H   UNL     1      -5.683   3.817 -30.561  1.00  0.00     0.169 HD
HETATM   19  O   UNL     1      -7.301   2.159 -30.650  1.00  0.00    -0.273 OA
BRANCH  17  20
HETATM   20  C   UNL     1      -4.663   3.954 -32.334  1.00  0.00     0.034 A 
HETATM   21  C   UNL     1      -4.909   4.836 -33.383  1.00  0.00     0.030 A 
HETATM   22  C   UNL     1      -3.855   5.316 -34.177  1.00  0.00     0.009 A 
HETATM   23  C   UNL     1      -2.535   4.940 -33.922  1.00  0.00    -0.062 A 
HETATM   24  C   UNL     1      -1.411   5.421 -34.792  1.00  0.00     0.048 C 
HETATM   25  C   UNL     1      -2.281   4.067 -32.866  1.00  0.00     0.009 A 
HETATM   26  C   UNL     1      -3.334   3.583 -32.082  1.00  0.00     0.030 A 
ENDBRANCH  17  20
ENDBRANCH  15  16
ENDBRANCH   1  15
TORSDOF 3
ENDMDL
