MODEL 1
REMARK VINA RESULT:      -8.8      0.000      0.000
REMARK  5 active torsions:
REMARK  status: ('A' for Active; 'I' for Inactive)
REMARK    1  A    between atoms: C_4  and  O_5 
REMARK    2  A    between atoms: O_5  and  C_6 
REMARK    3  A    between atoms: C_6  and  C_7 
REMARK       I    between atoms: C_7  and  N_8 
REMARK    4  A    between atoms: N_8  and  N_9 
REMARK    5  A    between atoms: C_10  and  C_11 
ROOT
HETATM    1  C   UNL     1      -3.809   1.028 -31.729  1.00  0.00     0.261 C 
HETATM    2  N   UNL     1      -4.140   2.251 -32.297  1.00  0.00    -0.246 N 
HETATM    3  O   UNL     1      -2.795   0.771 -31.082  1.00  0.00    -0.269 OA
HETATM    4  H   UNL     1      -5.085   2.341 -32.671  1.00  0.00     0.192 HD
ENDROOT
BRANCH   2   5
HETATM    5  N   UNL     1      -3.464   3.442 -32.199  1.00  0.00    -0.184 NA
HETATM    6  C   UNL     1      -2.574   3.756 -33.086  1.00  0.00     0.152 C 
BRANCH   6   7
HETATM    7  C   UNL     1      -1.840   5.000 -32.952  1.00  0.00     0.011 A 
HETATM    8  C   UNL     1      -1.023   5.394 -31.842  1.00  0.00     0.004 A 
HETATM    9  C   UNL     1      -0.512   6.661 -32.126  1.00  0.00     0.043 A 
HETATM   10  C   UNL     1      -0.682   4.794 -30.611  1.00  0.00     0.014 A 
HETATM   11  C   UNL     1       0.326   7.355 -31.245  1.00  0.00     0.030 A 
HETATM   12  N   UNL     1      -0.993   7.022 -33.363  1.00  0.00    -0.364 N 
HETATM   13  C   UNL     1       0.645   6.738 -30.031  1.00  0.00     0.002 A 
HETATM   14  C   UNL     1       0.151   5.476 -29.716  1.00  0.00     0.001 A 
HETATM   15  H   UNL     1      -0.785   7.896 -33.826  1.00  0.00     0.165 HD
HETATM   16  C   UNL     1      -1.799   6.036 -33.865  1.00  0.00     0.102 A 
ENDBRANCH   6   7
ENDBRANCH   2   5
BRANCH   1  17
HETATM   17  C   UNL     1      -4.820  -0.068 -32.057  1.00  0.00     0.280 C 
BRANCH  17  18
HETATM   18  O   UNL     1      -4.973  -0.220 -33.466  1.00  0.00    -0.342 OA
BRANCH  18  19
HETATM   19  C   UNL     1      -5.141  -1.519 -33.879  1.00  0.00     0.075 A 
HETATM   20  C   UNL     1      -4.182  -2.519 -33.668  1.00  0.00     0.044 A 
HETATM   21  C   UNL     1      -4.407  -3.830 -34.109  1.00  0.00    -0.059 A 
HETATM   22  C   UNL     1      -3.401  -4.911 -33.846  1.00  0.00     0.048 C 
HETATM   23  C   UNL     1      -5.605  -4.131 -34.761  1.00  0.00     0.007 A 
HETATM   24  C   UNL     1      -6.553  -3.132 -34.996  1.00  0.00     0.010 A 
HETATM   25  C   UNL     1      -6.324  -1.815 -34.571  1.00  0.00    -0.029 A 
HETATM   26  C   UNL     1      -7.366  -0.761 -34.814  1.00  0.00     0.051 C 
ENDBRANCH  18  19
ENDBRANCH  17  18
ENDBRANCH   1  17
TORSDOF 5
ENDMDL
MODEL 2
REMARK VINA RESULT:      -8.6      5.631      9.723
REMARK  5 active torsions:
REMARK  status: ('A' for Active; 'I' for Inactive)
REMARK    1  A    between atoms: C_4  and  O_5 
REMARK    2  A    between atoms: O_5  and  C_6 
REMARK    3  A    between atoms: C_6  and  C_7 
REMARK       I    between atoms: C_7  and  N_8 
REMARK    4  A    between atoms: N_8  and  N_9 
REMARK    5  A    between atoms: C_10  and  C_11 
ROOT
HETATM    1  C   UNL     1     -10.091   1.115 -34.056  1.00  0.00     0.261 C 
HETATM    2  N   UNL     1      -9.011   1.033 -34.927  1.00  0.00    -0.246 N 
HETATM    3  O   UNL     1     -10.325   0.368 -33.108  1.00  0.00    -0.269 OA
HETATM    4  H   UNL     1      -8.878   1.816 -35.566  1.00  0.00     0.192 HD
ENDROOT
BRANCH   2   5
HETATM    5  N   UNL     1      -7.945   0.168 -34.876  1.00  0.00    -0.184 NA
HETATM    6  C   UNL     1      -7.147   0.184 -33.858  1.00  0.00     0.152 C 
BRANCH   6   7
HETATM    7  C   UNL     1      -6.004  -0.709 -33.832  1.00  0.00     0.011 A 
HETATM    8  C   UNL     1      -5.995  -2.096 -34.191  1.00  0.00     0.004 A 
HETATM    9  C   UNL     1      -4.693  -2.567 -34.015  1.00  0.00     0.043 A 
HETATM   10  C   UNL     1      -6.981  -3.002 -34.637  1.00  0.00     0.014 A 
HETATM   11  C   UNL     1      -4.327  -3.895 -34.266  1.00  0.00     0.030 A 
HETATM   12  N   UNL     1      -3.937  -1.506 -33.572  1.00  0.00    -0.364 N 
HETATM   13  C   UNL     1      -5.325  -4.771 -34.705  1.00  0.00     0.002 A 
HETATM   14  C   UNL     1      -6.633  -4.334 -34.889  1.00  0.00     0.001 A 
HETATM   15  H   UNL     1      -2.950  -1.556 -33.359  1.00  0.00     0.165 HD
HETATM   16  C   UNL     1      -4.715  -0.387 -33.450  1.00  0.00     0.102 A 
ENDBRANCH   6   7
ENDBRANCH   2   5
BRANCH   1  17
HETATM   17  C   UNL     1     -11.073   2.219 -34.438  1.00  0.00     0.280 C 
BRANCH  17  18
HETATM   18  O   UNL     1     -12.405   1.718 -34.515  1.00  0.00    -0.342 OA
BRANCH  18  19
HETATM   19  C   UNL     1     -13.241   2.182 -33.529  1.00  0.00     0.075 A 
HETATM   20  C   UNL     1     -12.871   3.182 -32.620  1.00  0.00     0.044 A 
HETATM   21  C   UNL     1     -13.768   3.620 -31.635  1.00  0.00    -0.059 A 
HETATM   22  C   UNL     1     -13.390   4.721 -30.690  1.00  0.00     0.048 C 
HETATM   23  C   UNL     1     -15.041   3.048 -31.572  1.00  0.00     0.007 A 
HETATM   24  C   UNL     1     -15.404   2.032 -32.460  1.00  0.00     0.010 A 
HETATM   25  C   UNL     1     -14.505   1.580 -33.436  1.00  0.00    -0.029 A 
HETATM   26  C   UNL     1     -14.923   0.502 -34.395  1.00  0.00     0.051 C 
ENDBRANCH  18  19
ENDBRANCH  17  18
ENDBRANCH   1  17
TORSDOF 5
ENDMDL
MODEL 3
REMARK VINA RESULT:      -8.4      4.964      8.151
REMARK  5 active torsions:
REMARK  status: ('A' for Active; 'I' for Inactive)
REMARK    1  A    between atoms: C_4  and  O_5 
REMARK    2  A    between atoms: O_5  and  C_6 
REMARK    3  A    between atoms: C_6  and  C_7 
REMARK       I    between atoms: C_7  and  N_8 
REMARK    4  A    between atoms: N_8  and  N_9 
REMARK    5  A    between atoms: C_10  and  C_11 
ROOT
HETATM    1  C   UNL     1      -6.409   0.375 -31.691  1.00  0.00     0.261 C 
HETATM    2  N   UNL     1      -7.070   1.337 -32.445  1.00  0.00    -0.246 N 
HETATM    3  O   UNL     1      -6.826  -0.169 -30.670  1.00  0.00    -0.269 OA
HETATM    4  H   UNL     1      -6.656   1.576 -33.345  1.00  0.00     0.192 HD
ENDROOT
BRANCH   2   5
HETATM    5  N   UNL     1      -8.341   1.826 -32.268  1.00  0.00    -0.184 NA
HETATM    6  C   UNL     1      -9.132   1.953 -33.284  1.00  0.00     0.152 C 
BRANCH   6   7
HETATM    7  C   UNL     1     -10.460   2.506 -33.092  1.00  0.00     0.011 A 
HETATM    8  C   UNL     1     -11.705   1.821 -33.276  1.00  0.00     0.004 A 
HETATM    9  C   UNL     1     -12.728   2.726 -32.988  1.00  0.00     0.043 A 
HETATM   10  C   UNL     1     -12.058   0.515 -33.678  1.00  0.00     0.014 A 
HETATM   11  C   UNL     1     -14.084   2.389 -33.077  1.00  0.00     0.030 A 
HETATM   12  N   UNL     1     -12.129   3.913 -32.636  1.00  0.00    -0.364 N 
HETATM   13  C   UNL     1     -14.405   1.089 -33.479  1.00  0.00     0.002 A 
HETATM   14  C   UNL     1     -13.410   0.163 -33.776  1.00  0.00     0.001 A 
HETATM   15  H   UNL     1     -12.630   4.752 -32.375  1.00  0.00     0.165 HD
HETATM   16  C   UNL     1     -10.767   3.796 -32.703  1.00  0.00     0.102 A 
ENDBRANCH   6   7
ENDBRANCH   2   5
BRANCH   1  17
HETATM   17  C   UNL     1      -5.003   0.084 -32.208  1.00  0.00     0.280 C 
BRANCH  17  18
HETATM   18  O   UNL     1      -5.012  -0.161 -33.612  1.00  0.00    -0.342 OA
BRANCH  18  19
HETATM   19  C   UNL     1      -5.144  -1.485 -33.953  1.00  0.00     0.075 A 
HETATM   20  C   UNL     1      -4.190  -2.458 -33.628  1.00  0.00     0.044 A 
HETATM   21  C   UNL     1      -4.379  -3.796 -34.000  1.00  0.00    -0.059 A 
HETATM   22  C   UNL     1      -3.381  -4.847 -33.613  1.00  0.00     0.048 C 
HETATM   23  C   UNL     1      -5.535  -4.151 -34.699  1.00  0.00     0.007 A 
HETATM   24  C   UNL     1      -6.476  -3.179 -35.048  1.00  0.00     0.010 A 
HETATM   25  C   UNL     1      -6.283  -1.837 -34.692  1.00  0.00    -0.029 A 
HETATM   26  C   UNL     1      -7.318  -0.812 -35.059  1.00  0.00     0.051 C 
ENDBRANCH  18  19
ENDBRANCH  17  18
ENDBRANCH   1  17
TORSDOF 5
ENDMDL
MODEL 4
REMARK VINA RESULT:      -8.4      1.954      9.332
REMARK  5 active torsions:
REMARK  status: ('A' for Active; 'I' for Inactive)
REMARK    1  A    between atoms: C_4  and  O_5 
REMARK    2  A    between atoms: O_5  and  C_6 
REMARK    3  A    between atoms: C_6  and  C_7 
REMARK       I    between atoms: C_7  and  N_8 
REMARK    4  A    between atoms: N_8  and  N_9 
REMARK    5  A    between atoms: C_10  and  C_11 
ROOT
HETATM    1  C   UNL     1      -4.627   3.121 -32.186  1.00  0.00     0.261 C 
HETATM    2  N   UNL     1      -4.570   1.763 -31.902  1.00  0.00    -0.246 N 
HETATM    3  O   UNL     1      -5.292   3.657 -33.070  1.00  0.00    -0.269 OA
HETATM    4  H   UNL     1      -4.090   1.495 -31.043  1.00  0.00     0.192 HD
ENDROOT
BRANCH   2   5
HETATM    5  N   UNL     1      -5.291   0.745 -32.478  1.00  0.00    -0.184 NA
HETATM    6  C   UNL     1      -4.707  -0.088 -33.278  1.00  0.00     0.152 C 
BRANCH   6   7
HETATM    7  C   UNL     1      -5.485  -1.136 -33.910  1.00  0.00     0.011 A 
HETATM    8  C   UNL     1      -5.119  -2.516 -34.031  1.00  0.00     0.004 A 
HETATM    9  C   UNL     1      -6.151  -3.166 -34.710  1.00  0.00     0.043 A 
HETATM   10  C   UNL     1      -3.995  -3.273 -33.637  1.00  0.00     0.014 A 
HETATM   11  C   UNL     1      -6.117  -4.534 -35.010  1.00  0.00     0.030 A 
HETATM   12  N   UNL     1      -7.111  -2.220 -34.986  1.00  0.00    -0.364 N 
HETATM   13  C   UNL     1      -4.990  -5.258 -34.610  1.00  0.00     0.002 A 
HETATM   14  C   UNL     1      -3.943  -4.640 -33.933  1.00  0.00     0.001 A 
HETATM   15  H   UNL     1      -7.977  -2.408 -35.474  1.00  0.00     0.165 HD
HETATM   16  C   UNL     1      -6.718  -0.995 -34.519  1.00  0.00     0.102 A 
ENDBRANCH   6   7
ENDBRANCH   2   5
BRANCH   1  17
HETATM   17  C   UNL     1      -3.676   3.945 -31.321  1.00  0.00     0.280 C 
BRANCH  17  18
HETATM   18  O   UNL     1      -2.321   3.748 -31.716  1.00  0.00    -0.342 OA
BRANCH  18  19
HETATM   19  C   UNL     1      -1.569   4.897 -31.749  1.00  0.00     0.075 A 
HETATM   20  C   UNL     1      -0.980   5.459 -30.609  1.00  0.00     0.044 A 
HETATM   21  C   UNL     1      -0.221   6.633 -30.702  1.00  0.00    -0.059 A 
HETATM   22  C   UNL     1       0.447   7.212 -29.490  1.00  0.00     0.048 C 
HETATM   23  C   UNL     1      -0.053   7.237 -31.951  1.00  0.00     0.007 A 
HETATM   24  C   UNL     1      -0.660   6.694 -33.085  1.00  0.00     0.010 A 
HETATM   25  C   UNL     1      -1.435   5.529 -32.994  1.00  0.00    -0.029 A 
HETATM   26  C   UNL     1      -2.060   4.949 -34.230  1.00  0.00     0.051 C 
ENDBRANCH  18  19
ENDBRANCH  17  18
ENDBRANCH   1  17
TORSDOF 5
ENDMDL
MODEL 5
REMARK VINA RESULT:      -8.4      2.445      9.494
REMARK  5 active torsions:
REMARK  status: ('A' for Active; 'I' for Inactive)
REMARK    1  A    between atoms: C_4  and  O_5 
REMARK    2  A    between atoms: O_5  and  C_6 
REMARK    3  A    between atoms: C_6  and  C_7 
REMARK       I    between atoms: C_7  and  N_8 
REMARK    4  A    between atoms: N_8  and  N_9 
REMARK    5  A    between atoms: C_10  and  C_11 
ROOT
HETATM    1  C   UNL     1      -2.726   4.493 -31.922  1.00  0.00     0.261 C 
HETATM    2  N   UNL     1      -3.040   3.403 -31.120  1.00  0.00    -0.246 N 
HETATM    3  O   UNL     1      -2.263   4.456 -33.061  1.00  0.00    -0.269 OA
HETATM    4  H   UNL     1      -3.556   3.599 -30.263  1.00  0.00     0.192 HD
ENDROOT
BRANCH   2   5
HETATM    5  N   UNL     1      -2.981   2.069 -31.442  1.00  0.00    -0.184 NA
HETATM    6  C   UNL     1      -3.965   1.510 -32.068  1.00  0.00     0.152 C 
BRANCH   6   7
HETATM    7  C   UNL     1      -3.908   0.092 -32.370  1.00  0.00     0.011 A 
HETATM    8  C   UNL     1      -4.764  -0.625 -33.268  1.00  0.00     0.004 A 
HETATM    9  C   UNL     1      -4.362  -1.961 -33.253  1.00  0.00     0.043 A 
HETATM   10  C   UNL     1      -5.857  -0.262 -34.084  1.00  0.00     0.014 A 
HETATM   11  C   UNL     1      -4.995  -2.951 -34.015  1.00  0.00     0.030 A 
HETATM   12  N   UNL     1      -3.299  -2.053 -32.385  1.00  0.00    -0.364 N 
HETATM   13  C   UNL     1      -6.076  -2.564 -34.812  1.00  0.00     0.002 A 
HETATM   14  C   UNL     1      -6.504  -1.240 -34.849  1.00  0.00     0.001 A 
HETATM   15  H   UNL     1      -2.803  -2.909 -32.176  1.00  0.00     0.165 HD
HETATM   16  C   UNL     1      -3.023  -0.828 -31.842  1.00  0.00     0.102 A 
ENDBRANCH   6   7
ENDBRANCH   2   5
BRANCH   1  17
HETATM   17  C   UNL     1      -2.932   5.827 -31.210  1.00  0.00     0.280 C 
BRANCH  17  18
HETATM   18  O   UNL     1      -1.701   6.536 -31.081  1.00  0.00    -0.342 OA
BRANCH  18  19
HETATM   19  C   UNL     1      -1.166   6.513 -29.817  1.00  0.00     0.075 A 
HETATM   20  C   UNL     1      -1.788   7.109 -28.711  1.00  0.00     0.044 A 
HETATM   21  C   UNL     1      -1.197   7.053 -27.442  1.00  0.00    -0.059 A 
HETATM   22  C   UNL     1      -1.882   7.651 -26.250  1.00  0.00     0.048 C 
HETATM   23  C   UNL     1       0.023   6.389 -27.289  1.00  0.00     0.007 A 
HETATM   24  C   UNL     1       0.659   5.816 -28.393  1.00  0.00     0.010 A 
HETATM   25  C   UNL     1       0.079   5.885 -29.668  1.00  0.00    -0.029 A 
HETATM   26  C   UNL     1       0.769   5.243 -30.837  1.00  0.00     0.051 C 
ENDBRANCH  18  19
ENDBRANCH  17  18
ENDBRANCH   1  17
TORSDOF 5
ENDMDL
MODEL 6
REMARK VINA RESULT:      -8.3      1.229      2.332
REMARK  5 active torsions:
REMARK  status: ('A' for Active; 'I' for Inactive)
REMARK    1  A    between atoms: C_4  and  O_5 
REMARK    2  A    between atoms: O_5  and  C_6 
REMARK    3  A    between atoms: C_6  and  C_7 
REMARK       I    between atoms: C_7  and  N_8 
REMARK    4  A    between atoms: N_8  and  N_9 
REMARK    5  A    between atoms: C_10  and  C_11 
ROOT
HETATM    1  C   UNL     1      -3.141   0.211 -31.262  1.00  0.00     0.261 C 
HETATM    2  N   UNL     1      -3.954   1.240 -31.723  1.00  0.00    -0.246 N 
HETATM    3  O   UNL     1      -2.063   0.333 -30.683  1.00  0.00    -0.269 OA
HETATM    4  H   UNL     1      -4.885   0.977 -32.046  1.00  0.00     0.192 HD
ENDROOT
BRANCH   2   5
HETATM    5  N   UNL     1      -3.780   2.593 -31.566  1.00  0.00    -0.184 NA
HETATM    6  C   UNL     1      -3.114   3.266 -32.449  1.00  0.00     0.152 C 
BRANCH   6   7
HETATM    7  C   UNL     1      -2.905   4.688 -32.254  1.00  0.00     0.011 A 
HETATM    8  C   UNL     1      -1.712   5.318 -31.772  1.00  0.00     0.004 A 
HETATM    9  C   UNL     1      -1.947   6.693 -31.736  1.00  0.00     0.043 A 
HETATM   10  C   UNL     1      -0.452   4.842 -31.348  1.00  0.00     0.014 A 
HETATM   11  C   UNL     1      -0.987   7.615 -31.302  1.00  0.00     0.030 A 
HETATM   12  N   UNL     1      -3.232   6.893 -32.184  1.00  0.00    -0.364 N 
HETATM   13  C   UNL     1       0.251   7.115 -30.885  1.00  0.00     0.002 A 
HETATM   14  C   UNL     1       0.518   5.750 -30.907  1.00  0.00     0.001 A 
HETATM   15  H   UNL     1      -3.676   7.799 -32.265  1.00  0.00     0.165 HD
HETATM   16  C   UNL     1      -3.821   5.696 -32.490  1.00  0.00     0.102 A 
ENDBRANCH   6   7
ENDBRANCH   2   5
BRANCH   1  17
HETATM   17  C   UNL     1      -3.676  -1.171 -31.626  1.00  0.00     0.280 C 
BRANCH  17  18
HETATM   18  O   UNL     1      -3.457  -1.460 -33.005  1.00  0.00    -0.342 OA
BRANCH  18  19
HETATM   19  C   UNL     1      -4.597  -1.775 -33.703  1.00  0.00     0.075 A 
HETATM   20  C   UNL     1      -5.577  -0.830 -34.036  1.00  0.00     0.044 A 
HETATM   21  C   UNL     1      -6.720  -1.208 -34.754  1.00  0.00    -0.059 A 
HETATM   22  C   UNL     1      -7.748  -0.190 -35.150  1.00  0.00     0.048 C 
HETATM   23  C   UNL     1      -6.871  -2.542 -35.138  1.00  0.00     0.007 A 
HETATM   24  C   UNL     1      -5.909  -3.492 -34.786  1.00  0.00     0.010 A 
HETATM   25  C   UNL     1      -4.773  -3.122 -34.054  1.00  0.00    -0.029 A 
HETATM   26  C   UNL     1      -3.740  -4.155 -33.705  1.00  0.00     0.051 C 
ENDBRANCH  18  19
ENDBRANCH  17  18
ENDBRANCH   1  17
TORSDOF 5
ENDMDL
MODEL 7
REMARK VINA RESULT:      -8.2      5.501      8.754
REMARK  5 active torsions:
REMARK  status: ('A' for Active; 'I' for Inactive)
REMARK    1  A    between atoms: C_4  and  O_5 
REMARK    2  A    between atoms: O_5  and  C_6 
REMARK    3  A    between atoms: C_6  and  C_7 
REMARK       I    between atoms: C_7  and  N_8 
REMARK    4  A    between atoms: N_8  and  N_9 
REMARK    5  A    between atoms: C_10  and  C_11 
ROOT
HETATM    1  C   UNL     1      -8.554   2.266 -31.519  1.00  0.00     0.261 C 
HETATM    2  N   UNL     1      -8.535   1.072 -32.228  1.00  0.00    -0.246 N 
HETATM    3  O   UNL     1      -7.667   2.695 -30.783  1.00  0.00    -0.269 OA
HETATM    4  H   UNL     1      -9.280   0.933 -32.910  1.00  0.00     0.192 HD
ENDROOT
BRANCH   2   5
HETATM    5  N   UNL     1      -7.511   0.162 -32.328  1.00  0.00    -0.184 NA
HETATM    6  C   UNL     1      -6.745   0.162 -33.371  1.00  0.00     0.152 C 
BRANCH   6   7
HETATM    7  C   UNL     1      -5.690  -0.829 -33.483  1.00  0.00     0.011 A 
HETATM    8  C   UNL     1      -5.816  -2.153 -34.015  1.00  0.00     0.004 A 
HETATM    9  C   UNL     1      -4.563  -2.761 -33.927  1.00  0.00     0.043 A 
HETATM   10  C   UNL     1      -6.887  -2.898 -34.554  1.00  0.00     0.014 A 
HETATM   11  C   UNL     1      -4.326  -4.074 -34.353  1.00  0.00     0.030 A 
HETATM   12  N   UNL     1      -3.706  -1.841 -33.368  1.00  0.00    -0.364 N 
HETATM   13  C   UNL     1      -5.406  -4.790 -34.880  1.00  0.00     0.002 A 
HETATM   14  C   UNL     1      -6.668  -4.213 -34.980  1.00  0.00     0.001 A 
HETATM   15  H   UNL     1      -2.726  -2.009 -33.184  1.00  0.00     0.165 HD
HETATM   16  C   UNL     1      -4.374  -0.680 -33.088  1.00  0.00     0.102 A 
ENDBRANCH   6   7
ENDBRANCH   2   5
BRANCH   1  17
HETATM   17  C   UNL     1      -9.875   3.016 -31.661  1.00  0.00     0.280 C 
BRANCH  17  18
HETATM   18  O   UNL     1      -9.981   3.631 -32.943  1.00  0.00    -0.342 OA
BRANCH  18  19
HETATM   19  C   UNL     1     -10.955   3.093 -33.749  1.00  0.00     0.075 A 
HETATM   20  C   UNL     1     -11.660   1.928 -33.423  1.00  0.00     0.044 A 
HETATM   21  C   UNL     1     -12.647   1.425 -34.283  1.00  0.00    -0.059 A 
HETATM   22  C   UNL     1     -13.434   0.203 -33.915  1.00  0.00     0.048 C 
HETATM   23  C   UNL     1     -12.922   2.105 -35.472  1.00  0.00     0.007 A 
HETATM   24  C   UNL     1     -12.203   3.253 -35.813  1.00  0.00     0.010 A 
HETATM   25  C   UNL     1     -11.204   3.749 -34.964  1.00  0.00    -0.029 A 
HETATM   26  C   UNL     1     -10.458   4.998 -35.339  1.00  0.00     0.051 C 
ENDBRANCH  18  19
ENDBRANCH  17  18
ENDBRANCH   1  17
TORSDOF 5
ENDMDL
MODEL 8
REMARK VINA RESULT:      -8.1      2.451      9.759
REMARK  5 active torsions:
REMARK  status: ('A' for Active; 'I' for Inactive)
REMARK    1  A    between atoms: C_4  and  O_5 
REMARK    2  A    between atoms: O_5  and  C_6 
REMARK    3  A    between atoms: C_6  and  C_7 
REMARK       I    between atoms: C_7  and  N_8 
REMARK    4  A    between atoms: N_8  and  N_9 
REMARK    5  A    between atoms: C_10  and  C_11 
ROOT
HETATM    1  C   UNL     1      -2.122   4.593 -31.853  1.00  0.00     0.261 C 
HETATM    2  N   UNL     1      -2.794   3.585 -31.174  1.00  0.00    -0.246 N 
HETATM    3  O   UNL     1      -2.403   5.042 -32.963  1.00  0.00    -0.269 OA
HETATM    4  H   UNL     1      -2.528   3.433 -30.201  1.00  0.00     0.192 HD
ENDROOT
BRANCH   2   5
HETATM    5  N   UNL     1      -3.945   2.935 -31.545  1.00  0.00    -0.184 NA
HETATM    6  C   UNL     1      -3.876   1.820 -32.199  1.00  0.00     0.152 C 
BRANCH   6   7
HETATM    7  C   UNL     1      -5.099   1.160 -32.618  1.00  0.00     0.011 A 
HETATM    8  C   UNL     1      -5.206  -0.135 -33.220  1.00  0.00     0.004 A 
HETATM    9  C   UNL     1      -6.559  -0.373 -33.464  1.00  0.00     0.043 A 
HETATM   10  C   UNL     1      -4.273  -1.126 -33.594  1.00  0.00     0.014 A 
HETATM   11  C   UNL     1      -7.026  -1.552 -34.060  1.00  0.00     0.030 A 
HETATM   12  N   UNL     1      -7.249   0.732 -33.023  1.00  0.00    -0.364 N 
HETATM   13  C   UNL     1      -6.079  -2.515 -34.422  1.00  0.00     0.002 A 
HETATM   14  C   UNL     1      -4.722  -2.308 -34.194  1.00  0.00     0.001 A 
HETATM   15  H   UNL     1      -8.254   0.838 -33.074  1.00  0.00     0.165 HD
HETATM   16  C   UNL     1      -6.382   1.663 -32.521  1.00  0.00     0.102 A 
ENDBRANCH   6   7
ENDBRANCH   2   5
BRANCH   1  17
HETATM   17  C   UNL     1      -0.878   5.076 -31.112  1.00  0.00     0.280 C 
BRANCH  17  18
HETATM   18  O   UNL     1      -0.583   6.433 -31.434  1.00  0.00    -0.342 OA
BRANCH  18  19
HETATM   19  C   UNL     1      -0.561   7.279 -30.352  1.00  0.00     0.075 A 
HETATM   20  C   UNL     1       0.441   7.244 -29.373  1.00  0.00     0.044 A 
HETATM   21  C   UNL     1       0.415   8.134 -28.291  1.00  0.00    -0.059 A 
HETATM   22  C   UNL     1       1.510   8.128 -27.267  1.00  0.00     0.048 C 
HETATM   23  C   UNL     1      -0.625   9.062 -28.200  1.00  0.00     0.007 A 
HETATM   24  C   UNL     1      -1.640   9.083 -29.159  1.00  0.00     0.010 A 
HETATM   25  C   UNL     1      -1.626   8.184 -30.235  1.00  0.00    -0.029 A 
HETATM   26  C   UNL     1      -2.716   8.237 -31.267  1.00  0.00     0.051 C 
ENDBRANCH  18  19
ENDBRANCH  17  18
ENDBRANCH   1  17
TORSDOF 5
ENDMDL
MODEL 9
REMARK VINA RESULT:      -8.0      2.350      8.906
REMARK  5 active torsions:
REMARK  status: ('A' for Active; 'I' for Inactive)
REMARK    1  A    between atoms: C_4  and  O_5 
REMARK    2  A    between atoms: O_5  and  C_6 
REMARK    3  A    between atoms: C_6  and  C_7 
REMARK       I    between atoms: C_7  and  N_8 
REMARK    4  A    between atoms: N_8  and  N_9 
REMARK    5  A    between atoms: C_10  and  C_11 
ROOT
HETATM    1  C   UNL     1      -5.015   4.460 -30.704  1.00  0.00     0.261 C 
HETATM    2  N   UNL     1      -4.122   3.406 -30.850  1.00  0.00    -0.246 N 
HETATM    3  O   UNL     1      -6.215   4.445 -30.972  1.00  0.00    -0.269 OA
HETATM    4  H   UNL     1      -3.196   3.531 -30.442  1.00  0.00     0.192 HD
ENDROOT
BRANCH   2   5
HETATM    5  N   UNL     1      -4.389   2.117 -31.240  1.00  0.00    -0.184 NA
HETATM    6  C   UNL     1      -3.532   1.469 -31.962  1.00  0.00     0.152 C 
BRANCH   6   7
HETATM    7  C   UNL     1      -3.841   0.120 -32.400  1.00  0.00     0.011 A 
HETATM    8  C   UNL     1      -4.921  -0.273 -33.255  1.00  0.00     0.004 A 
HETATM    9  C   UNL     1      -4.849  -1.658 -33.412  1.00  0.00     0.043 A 
HETATM   10  C   UNL     1      -5.966   0.421 -33.902  1.00  0.00     0.014 A 
HETATM   11  C   UNL     1      -5.765  -2.382 -34.185  1.00  0.00     0.030 A 
HETATM   12  N   UNL     1      -3.764  -2.090 -32.685  1.00  0.00    -0.364 N 
HETATM   13  C   UNL     1      -6.792  -1.669 -34.812  1.00  0.00     0.002 A 
HETATM   14  C   UNL     1      -6.893  -0.288 -34.675  1.00  0.00     0.001 A 
HETATM   15  H   UNL     1      -3.469  -3.055 -32.615  1.00  0.00     0.165 HD
HETATM   16  C   UNL     1      -3.156  -1.032 -32.066  1.00  0.00     0.102 A 
ENDBRANCH   6   7
ENDBRANCH   2   5
BRANCH   1  17
HETATM   17  C   UNL     1      -4.338   5.746 -30.238  1.00  0.00     0.280 C 
BRANCH  17  18
HETATM   18  O   UNL     1      -3.586   6.342 -31.291  1.00  0.00    -0.342 OA
BRANCH  18  19
HETATM   19  C   UNL     1      -2.231   6.379 -31.068  1.00  0.00     0.075 A 
HETATM   20  C   UNL     1      -1.647   7.108 -30.023  1.00  0.00     0.044 A 
HETATM   21  C   UNL     1      -0.258   7.107 -29.840  1.00  0.00    -0.059 A 
HETATM   22  C   UNL     1       0.365   7.850 -28.696  1.00  0.00     0.048 C 
HETATM   23  C   UNL     1       0.542   6.366 -30.713  1.00  0.00     0.007 A 
HETATM   24  C   UNL     1      -0.034   5.659 -31.772  1.00  0.00     0.010 A 
HETATM   25  C   UNL     1      -1.422   5.670 -31.968  1.00  0.00    -0.029 A 
HETATM   26  C   UNL     1      -2.022   4.886 -33.099  1.00  0.00     0.051 C 
ENDBRANCH  18  19
ENDBRANCH  17  18
ENDBRANCH   1  17
TORSDOF 5
ENDMDL
MODEL 10
REMARK VINA RESULT:      -8.0      1.885      2.732
REMARK  5 active torsions:
REMARK  status: ('A' for Active; 'I' for Inactive)
REMARK    1  A    between atoms: C_4  and  O_5 
REMARK    2  A    between atoms: O_5  and  C_6 
REMARK    3  A    between atoms: C_6  and  C_7 
REMARK       I    between atoms: C_7  and  N_8 
REMARK    4  A    between atoms: N_8  and  N_9 
REMARK    5  A    between atoms: C_10  and  C_11 
ROOT
HETATM    1  C   UNL     1      -7.002   2.618 -32.472  1.00  0.00     0.261 C 
HETATM    2  N   UNL     1      -6.129   2.846 -33.529  1.00  0.00    -0.246 N 
HETATM    3  O   UNL     1      -7.111   3.296 -31.453  1.00  0.00    -0.269 OA
HETATM    4  H   UNL     1      -6.267   2.281 -34.366  1.00  0.00     0.192 HD
ENDROOT
BRANCH   2   5
HETATM    5  N   UNL     1      -5.268   3.901 -33.704  1.00  0.00    -0.184 NA
HETATM    6  C   UNL     1      -4.038   3.804 -33.311  1.00  0.00     0.152 C 
BRANCH   6   7
HETATM    7  C   UNL     1      -3.147   4.938 -33.468  1.00  0.00     0.011 A 
HETATM    8  C   UNL     1      -2.098   5.330 -32.574  1.00  0.00     0.004 A 
HETATM    9  C   UNL     1      -1.499   6.473 -33.105  1.00  0.00     0.043 A 
HETATM   10  C   UNL     1      -1.609   4.823 -31.351  1.00  0.00     0.014 A 
HETATM   11  C   UNL     1      -0.435   7.132 -32.477  1.00  0.00     0.030 A 
HETATM   12  N   UNL     1      -2.154   6.763 -34.279  1.00  0.00    -0.364 N 
HETATM   13  C   UNL     1       0.027   6.610 -31.265  1.00  0.00     0.002 A 
HETATM   14  C   UNL     1      -0.549   5.472 -30.707  1.00  0.00     0.001 A 
HETATM   15  H   UNL     1      -1.931   7.544 -34.882  1.00  0.00     0.165 HD
HETATM   16  C   UNL     1      -3.151   5.854 -34.503  1.00  0.00     0.102 A 
ENDBRANCH   6   7
ENDBRANCH   2   5
BRANCH   1  17
HETATM   17  C   UNL     1      -7.810   1.334 -32.641  1.00  0.00     0.280 C 
BRANCH  17  18
HETATM   18  O   UNL     1      -7.320   0.303 -31.788  1.00  0.00    -0.342 OA
BRANCH  18  19
HETATM   19  C   UNL     1      -6.357  -0.493 -32.358  1.00  0.00     0.075 A 
HETATM   20  C   UNL     1      -6.599  -1.307 -33.473  1.00  0.00     0.044 A 
HETATM   21  C   UNL     1      -5.577  -2.098 -34.016  1.00  0.00    -0.059 A 
HETATM   22  C   UNL     1      -5.822  -2.935 -35.235  1.00  0.00     0.048 C 
HETATM   23  C   UNL     1      -4.308  -2.062 -33.433  1.00  0.00     0.007 A 
HETATM   24  C   UNL     1      -4.069  -1.272 -32.306  1.00  0.00     0.010 A 
HETATM   25  C   UNL     1      -5.093  -0.492 -31.750  1.00  0.00    -0.029 A 
HETATM   26  C   UNL     1      -4.810   0.367 -30.551  1.00  0.00     0.051 C 
ENDBRANCH  18  19
ENDBRANCH  17  18
ENDBRANCH   1  17
TORSDOF 5
ENDMDL
