MODEL 1
REMARK VINA RESULT:      -9.2      0.000      0.000
REMARK  4 active torsions:
REMARK  status: ('A' for Active; 'I' for Inactive)
REMARK    1  A    between atoms: C_4  and  C_5 
REMARK    2  A    between atoms: C_14  and  C_15 
REMARK    3  A    between atoms: C_15  and  C_16 
REMARK    4  A    between atoms: C_17  and  O_18 
ROOT
HETATM    1  C   UNL     1      -3.245   0.897 -31.223  1.00  0.00     0.071 C 
HETATM    2  C   UNL     1      -4.362   0.690 -32.214  1.00  0.00     0.045 A 
HETATM    3  N   UNL     1      -4.405  -0.597 -32.705  1.00  0.00    -0.234 NA
HETATM    4  C   UNL     1      -5.337  -0.913 -33.545  1.00  0.00     0.141 A 
HETATM    5  N   UNL     1      -6.246   0.003 -34.001  1.00  0.00    -0.307 N 
HETATM    6  C   UNL     1      -6.268   1.284 -33.554  1.00  0.00     0.255 A 
HETATM    7  O   UNL     1      -7.118   2.089 -33.931  1.00  0.00    -0.268 OA
HETATM    8  C   UNL     1      -5.242   1.653 -32.552  1.00  0.00     0.039 A 
HETATM    9  H   UNL     1      -6.941  -0.226 -34.693  1.00  0.00     0.170 HD
ENDROOT
BRANCH   8  10
HETATM   10  C   UNL     1      -5.302   3.072 -32.046  1.00  0.00     0.088 C 
BRANCH  10  11
HETATM   11  C   UNL     1      -4.358   4.014 -32.768  1.00  0.00    -0.020 A 
HETATM   12  C   UNL     1      -4.686   4.667 -33.979  1.00  0.00     0.074 A 
HETATM   13  C   UNL     1      -3.813   5.580 -34.575  1.00  0.00     0.074 A 
HETATM   14  C   UNL     1      -2.601   5.813 -33.964  1.00  0.00     0.077 A 
HETATM   15  C   UNL     1      -2.235   5.157 -32.804  1.00  0.00    -0.022 A 
HETATM   16  O   UNL     1      -1.641   6.669 -34.439  1.00  0.00    -0.350 OA
HETATM   17  C   UNL     1      -0.848   5.534 -32.451  1.00  0.00     0.068 C 
HETATM   18  C   UNL     1      -3.092   4.256 -32.195  1.00  0.00     0.020 A 
HETATM   19  C   UNL     1      -0.707   6.771 -33.339  1.00  0.00     0.180 C 
BRANCH  12  20
HETATM   20  O   UNL     1      -5.852   4.464 -34.662  1.00  0.00    -0.360 OA
HETATM   21  H   UNL     1      -6.532   4.042 -34.101  1.00  0.00     0.217 HD
ENDBRANCH  12  20
ENDBRANCH  10  11
ENDBRANCH   8  10
BRANCH   4  22
HETATM   22  C   UNL     1      -5.458  -2.303 -34.067  1.00  0.00     0.010 A 
HETATM   23  C   UNL     1      -6.648  -2.780 -34.633  1.00  0.00     0.015 A 
HETATM   24  C   UNL     1      -6.727  -4.096 -35.094  1.00  0.00     0.001 A 
HETATM   25  C   UNL     1      -5.626  -4.944 -34.983  1.00  0.00     0.000 A 
HETATM   26  C   UNL     1      -4.446  -4.482 -34.406  1.00  0.00     0.001 A 
HETATM   27  C   UNL     1      -4.362  -3.166 -33.946  1.00  0.00     0.015 A 
ENDBRANCH   4  22
TORSDOF 4
ENDMDL
MODEL 2
REMARK VINA RESULT:      -8.9      4.068      7.348
REMARK  4 active torsions:
REMARK  status: ('A' for Active; 'I' for Inactive)
REMARK    1  A    between atoms: C_4  and  C_5 
REMARK    2  A    between atoms: C_14  and  C_15 
REMARK    3  A    between atoms: C_15  and  C_16 
REMARK    4  A    between atoms: C_17  and  O_18 
ROOT
HETATM    1  C   UNL     1      -7.550   0.396 -30.947  1.00  0.00     0.071 C 
HETATM    2  C   UNL     1      -7.988   0.590 -32.375  1.00  0.00     0.045 A 
HETATM    3  N   UNL     1      -9.359   0.631 -32.510  1.00  0.00    -0.234 NA
HETATM    4  C   UNL     1      -9.865   0.821 -33.686  1.00  0.00     0.141 A 
HETATM    5  N   UNL     1      -9.084   0.928 -34.804  1.00  0.00    -0.307 N 
HETATM    6  C   UNL     1      -7.729   0.907 -34.745  1.00  0.00     0.255 A 
HETATM    7  O   UNL     1      -7.033   1.053 -35.748  1.00  0.00    -0.268 OA
HETATM    8  C   UNL     1      -7.127   0.742 -33.402  1.00  0.00     0.039 A 
HETATM    9  H   UNL     1      -9.476   1.026 -35.728  1.00  0.00     0.170 HD
ENDROOT
BRANCH   8  10
HETATM   10  C   UNL     1      -5.621   0.751 -33.353  1.00  0.00     0.088 C 
BRANCH  10  11
HETATM   11  C   UNL     1      -5.006  -0.636 -33.353  1.00  0.00    -0.020 A 
HETATM   12  C   UNL     1      -3.933  -1.012 -32.513  1.00  0.00     0.074 A 
HETATM   13  C   UNL     1      -3.442  -2.319 -32.497  1.00  0.00     0.074 A 
HETATM   14  C   UNL     1      -4.016  -3.238 -33.346  1.00  0.00     0.077 A 
HETATM   15  C   UNL     1      -5.037  -2.890 -34.210  1.00  0.00    -0.022 A 
HETATM   16  O   UNL     1      -3.630  -4.549 -33.449  1.00  0.00    -0.350 OA
HETATM   17  C   UNL     1      -5.370  -4.054 -35.061  1.00  0.00     0.068 C 
HETATM   18  C   UNL     1      -5.541  -1.600 -34.232  1.00  0.00     0.020 A 
HETATM   19  C   UNL     1      -4.681  -5.147 -34.244  1.00  0.00     0.180 C 
BRANCH  12  20
HETATM   20  O   UNL     1      -3.290  -0.150 -31.668  1.00  0.00    -0.360 OA
HETATM   21  H   UNL     1      -3.594   0.770 -31.789  1.00  0.00     0.217 HD
ENDBRANCH  12  20
ENDBRANCH  10  11
ENDBRANCH   8  10
BRANCH   4  22
HETATM   22  C   UNL     1     -11.339   0.923 -33.877  1.00  0.00     0.010 A 
HETATM   23  C   UNL     1     -12.211  -0.095 -33.468  1.00  0.00     0.015 A 
HETATM   24  C   UNL     1     -13.585   0.030 -33.682  1.00  0.00     0.001 A 
HETATM   25  C   UNL     1     -14.095   1.164 -34.313  1.00  0.00     0.000 A 
HETATM   26  C   UNL     1     -13.233   2.173 -34.738  1.00  0.00     0.001 A 
HETATM   27  C   UNL     1     -11.858   2.052 -34.523  1.00  0.00     0.015 A 
ENDBRANCH   4  22
TORSDOF 4
ENDMDL
MODEL 3
REMARK VINA RESULT:      -8.4      1.024      1.962
REMARK  4 active torsions:
REMARK  status: ('A' for Active; 'I' for Inactive)
REMARK    1  A    between atoms: C_4  and  C_5 
REMARK    2  A    between atoms: C_14  and  C_15 
REMARK    3  A    between atoms: C_15  and  C_16 
REMARK    4  A    between atoms: C_17  and  O_18 
ROOT
HETATM    1  C   UNL     1      -7.742   2.305 -33.596  1.00  0.00     0.071 C 
HETATM    2  C   UNL     1      -6.544   1.502 -33.158  1.00  0.00     0.045 A 
HETATM    3  N   UNL     1      -6.575   0.205 -33.623  1.00  0.00    -0.234 NA
HETATM    4  C   UNL     1      -5.588  -0.583 -33.339  1.00  0.00     0.141 A 
HETATM    5  N   UNL     1      -4.544  -0.185 -32.550  1.00  0.00    -0.307 N 
HETATM    6  C   UNL     1      -4.444   1.079 -32.067  1.00  0.00     0.255 A 
HETATM    7  O   UNL     1      -3.478   1.444 -31.399  1.00  0.00    -0.268 OA
HETATM    8  C   UNL     1      -5.536   2.012 -32.422  1.00  0.00     0.039 A 
HETATM    9  H   UNL     1      -3.799  -0.810 -32.285  1.00  0.00     0.170 HD
ENDROOT
BRANCH   8  10
HETATM   10  C   UNL     1      -5.392   3.420 -31.901  1.00  0.00     0.088 C 
BRANCH  10  11
HETATM   11  C   UNL     1      -4.386   4.252 -32.672  1.00  0.00    -0.020 A 
HETATM   12  C   UNL     1      -4.615   4.736 -33.981  1.00  0.00     0.074 A 
HETATM   13  C   UNL     1      -3.688   5.556 -34.628  1.00  0.00     0.074 A 
HETATM   14  C   UNL     1      -2.522   5.865 -33.966  1.00  0.00     0.077 A 
HETATM   15  C   UNL     1      -2.250   5.372 -32.704  1.00  0.00    -0.022 A 
HETATM   16  O   UNL     1      -1.518   6.645 -34.480  1.00  0.00    -0.350 OA
HETATM   17  C   UNL     1      -0.888   5.789 -32.303  1.00  0.00     0.068 C 
HETATM   18  C   UNL     1      -3.162   4.565 -32.044  1.00  0.00     0.020 A 
HETATM   19  C   UNL     1      -0.666   6.893 -33.337  1.00  0.00     0.180 C 
BRANCH  12  20
HETATM   20  O   UNL     1      -5.731   4.445 -34.716  1.00  0.00    -0.360 OA
HETATM   21  H   UNL     1      -6.039   3.531 -34.560  1.00  0.00     0.217 HD
ENDBRANCH  12  20
ENDBRANCH  10  11
ENDBRANCH   8  10
BRANCH   4  22
HETATM   22  C   UNL     1      -5.550  -1.979 -33.859  1.00  0.00     0.010 A 
HETATM   23  C   UNL     1      -4.378  -2.747 -33.831  1.00  0.00     0.015 A 
HETATM   24  C   UNL     1      -4.378  -4.046 -34.345  1.00  0.00     0.001 A 
HETATM   25  C   UNL     1      -5.540  -4.580 -34.898  1.00  0.00     0.000 A 
HETATM   26  C   UNL     1      -6.705  -3.816 -34.945  1.00  0.00     0.001 A 
HETATM   27  C   UNL     1      -6.710  -2.518 -34.430  1.00  0.00     0.015 A 
ENDBRANCH   4  22
TORSDOF 4
ENDMDL
MODEL 4
REMARK VINA RESULT:      -8.3      1.625      2.436
REMARK  4 active torsions:
REMARK  status: ('A' for Active; 'I' for Inactive)
REMARK    1  A    between atoms: C_4  and  C_5 
REMARK    2  A    between atoms: C_14  and  C_15 
REMARK    3  A    between atoms: C_15  and  C_16 
REMARK    4  A    between atoms: C_17  and  O_18 
ROOT
HETATM    1  C   UNL     1      -7.915   2.229 -34.233  1.00  0.00     0.071 C 
HETATM    2  C   UNL     1      -6.946   1.374 -33.458  1.00  0.00     0.045 A 
HETATM    3  N   UNL     1      -6.835   0.100 -33.970  1.00  0.00    -0.234 NA
HETATM    4  C   UNL     1      -6.012  -0.728 -33.411  1.00  0.00     0.141 A 
HETATM    5  N   UNL     1      -5.291  -0.395 -32.296  1.00  0.00    -0.307 N 
HETATM    6  C   UNL     1      -5.344   0.843 -31.745  1.00  0.00     0.255 A 
HETATM    7  O   UNL     1      -4.656   1.151 -30.773  1.00  0.00    -0.268 OA
HETATM    8  C   UNL     1      -6.240   1.823 -32.400  1.00  0.00     0.039 A 
HETATM    9  H   UNL     1      -4.688  -1.052 -31.828  1.00  0.00     0.170 HD
ENDROOT
BRANCH   8  10
HETATM   10  C   UNL     1      -6.262   3.201 -31.791  1.00  0.00     0.088 C 
BRANCH  10  11
HETATM   11  C   UNL     1      -5.013   4.012 -32.078  1.00  0.00    -0.020 A 
HETATM   12  C   UNL     1      -4.231   4.621 -31.070  1.00  0.00     0.074 A 
HETATM   13  C   UNL     1      -3.050   5.302 -31.374  1.00  0.00     0.074 A 
HETATM   14  C   UNL     1      -2.673   5.389 -32.695  1.00  0.00     0.077 A 
HETATM   15  C   UNL     1      -3.439   4.841 -33.707  1.00  0.00    -0.022 A 
HETATM   16  O   UNL     1      -1.550   6.035 -33.143  1.00  0.00    -0.350 OA
HETATM   17  C   UNL     1      -2.835   5.186 -35.012  1.00  0.00     0.068 C 
HETATM   18  C   UNL     1      -4.608   4.156 -33.422  1.00  0.00     0.020 A 
HETATM   19  C   UNL     1      -1.453   5.621 -34.525  1.00  0.00     0.180 C 
BRANCH  12  20
HETATM   20  O   UNL     1      -4.556   4.608 -29.742  1.00  0.00    -0.360 OA
HETATM   21  H   UNL     1      -4.240   5.410 -29.283  1.00  0.00     0.217 HD
ENDBRANCH  12  20
ENDBRANCH  10  11
ENDBRANCH   8  10
BRANCH   4  22
HETATM   22  C   UNL     1      -5.818  -2.101 -33.957  1.00  0.00     0.010 A 
HETATM   23  C   UNL     1      -6.873  -2.827 -34.525  1.00  0.00     0.015 A 
HETATM   24  C   UNL     1      -6.655  -4.119 -35.010  1.00  0.00     0.001 A 
HETATM   25  C   UNL     1      -5.389  -4.696 -34.919  1.00  0.00     0.000 A 
HETATM   26  C   UNL     1      -4.340  -3.986 -34.340  1.00  0.00     0.001 A 
HETATM   27  C   UNL     1      -4.553  -2.694 -33.857  1.00  0.00     0.015 A 
ENDBRANCH   4  22
TORSDOF 4
ENDMDL
MODEL 5
REMARK VINA RESULT:      -8.3      2.533      7.719
REMARK  4 active torsions:
REMARK  status: ('A' for Active; 'I' for Inactive)
REMARK    1  A    between atoms: C_4  and  C_5 
REMARK    2  A    between atoms: C_14  and  C_15 
REMARK    3  A    between atoms: C_15  and  C_16 
REMARK    4  A    between atoms: C_17  and  O_18 
ROOT
HETATM    1  C   UNL     1      -5.429   4.054 -34.596  1.00  0.00     0.071 C 
HETATM    2  C   UNL     1      -4.790   3.790 -33.256  1.00  0.00     0.045 A 
HETATM    3  N   UNL     1      -3.621   4.497 -33.077  1.00  0.00    -0.234 NA
HETATM    4  C   UNL     1      -2.987   4.380 -31.954  1.00  0.00     0.141 A 
HETATM    5  N   UNL     1      -3.412   3.537 -30.964  1.00  0.00    -0.307 N 
HETATM    6  C   UNL     1      -4.559   2.818 -31.069  1.00  0.00     0.255 A 
HETATM    7  O   UNL     1      -4.961   2.100 -30.155  1.00  0.00    -0.268 OA
HETATM    8  C   UNL     1      -5.327   2.977 -32.324  1.00  0.00     0.039 A 
HETATM    9  H   UNL     1      -2.895   3.405 -30.109  1.00  0.00     0.170 HD
ENDROOT
BRANCH   8  10
HETATM   10  C   UNL     1      -6.612   2.194 -32.410  1.00  0.00     0.088 C 
BRANCH  10  11
HETATM   11  C   UNL     1      -6.478   0.889 -33.171  1.00  0.00    -0.020 A 
HETATM   12  C   UNL     1      -7.312   0.530 -34.255  1.00  0.00     0.074 A 
HETATM   13  C   UNL     1      -7.110  -0.652 -34.971  1.00  0.00     0.074 A 
HETATM   14  C   UNL     1      -6.084  -1.481 -34.578  1.00  0.00     0.077 A 
HETATM   15  C   UNL     1      -5.280  -1.179 -33.496  1.00  0.00    -0.022 A 
HETATM   16  O   UNL     1      -5.777  -2.676 -35.176  1.00  0.00    -0.350 OA
HETATM   17  C   UNL     1      -4.346  -2.301 -33.258  1.00  0.00     0.068 C 
HETATM   18  C   UNL     1      -5.461  -0.007 -32.780  1.00  0.00     0.020 A 
HETATM   19  C   UNL     1      -4.496  -3.021 -34.598  1.00  0.00     0.180 C 
BRANCH  12  20
HETATM   20  O   UNL     1      -8.370   1.283 -34.683  1.00  0.00    -0.360 OA
HETATM   21  H   UNL     1      -8.753   1.814 -33.958  1.00  0.00     0.217 HD
ENDBRANCH  12  20
ENDBRANCH  10  11
ENDBRANCH   8  10
BRANCH   4  22
HETATM   22  C   UNL     1      -1.746   5.161 -31.691  1.00  0.00     0.010 A 
HETATM   23  C   UNL     1      -0.837   4.791 -30.691  1.00  0.00     0.015 A 
HETATM   24  C   UNL     1       0.306   5.560 -30.462  1.00  0.00     0.001 A 
HETATM   25  C   UNL     1       0.543   6.706 -31.221  1.00  0.00     0.000 A 
HETATM   26  C   UNL     1      -0.366   7.089 -32.206  1.00  0.00     0.001 A 
HETATM   27  C   UNL     1      -1.509   6.322 -32.439  1.00  0.00     0.015 A 
ENDBRANCH   4  22
TORSDOF 4
ENDMDL
MODEL 6
REMARK VINA RESULT:      -8.2      4.493      9.540
REMARK  4 active torsions:
REMARK  status: ('A' for Active; 'I' for Inactive)
REMARK    1  A    between atoms: C_4  and  C_5 
REMARK    2  A    between atoms: C_14  and  C_15 
REMARK    3  A    between atoms: C_15  and  C_16 
REMARK    4  A    between atoms: C_17  and  O_18 
ROOT
HETATM    1  C   UNL     1      -2.263   8.177 -32.138  1.00  0.00     0.071 C 
HETATM    2  C   UNL     1      -1.251   7.390 -31.345  1.00  0.00     0.045 A 
HETATM    3  N   UNL     1      -0.943   7.983 -30.140  1.00  0.00    -0.234 NA
HETATM    4  C   UNL     1      -0.104   7.392 -29.350  1.00  0.00     0.141 A 
HETATM    5  N   UNL     1       0.524   6.227 -29.698  1.00  0.00    -0.307 N 
HETATM    6  C   UNL     1       0.262   5.584 -30.863  1.00  0.00     0.255 A 
HETATM    7  O   UNL     1       0.794   4.512 -31.147  1.00  0.00    -0.268 OA
HETATM    8  C   UNL     1      -0.733   6.216 -31.759  1.00  0.00     0.039 A 
HETATM    9  H   UNL     1       1.215   5.791 -29.108  1.00  0.00     0.170 HD
ENDROOT
BRANCH   8  10
HETATM   10  C   UNL     1      -1.033   5.472 -33.035  1.00  0.00     0.088 C 
BRANCH  10  11
HETATM   11  C   UNL     1      -2.416   4.849 -33.064  1.00  0.00    -0.020 A 
HETATM   12  C   UNL     1      -3.405   5.195 -34.012  1.00  0.00     0.074 A 
HETATM   13  C   UNL     1      -4.643   4.548 -34.044  1.00  0.00     0.074 A 
HETATM   14  C   UNL     1      -4.889   3.573 -33.105  1.00  0.00     0.077 A 
HETATM   15  C   UNL     1      -3.958   3.243 -32.138  1.00  0.00    -0.022 A 
HETATM   16  O   UNL     1      -6.059   2.865 -33.006  1.00  0.00    -0.350 OA
HETATM   17  C   UNL     1      -4.548   2.246 -31.218  1.00  0.00     0.068 C 
HETATM   18  C   UNL     1      -2.724   3.869 -32.097  1.00  0.00     0.020 A 
HETATM   19  C   UNL     1      -5.734   1.807 -32.075  1.00  0.00     0.180 C 
BRANCH  12  20
HETATM   20  O   UNL     1      -3.249   6.174 -34.954  1.00  0.00    -0.360 OA
HETATM   21  H   UNL     1      -4.097   6.407 -35.378  1.00  0.00     0.217 HD
ENDBRANCH  12  20
ENDBRANCH  10  11
ENDBRANCH   8  10
BRANCH   4  22
HETATM   22  C   UNL     1       0.224   7.966 -28.015  1.00  0.00     0.010 A 
HETATM   23  C   UNL     1      -0.739   8.084 -27.003  1.00  0.00     0.015 A 
HETATM   24  C   UNL     1      -0.396   8.645 -25.771  1.00  0.00     0.001 A 
HETATM   25  C   UNL     1       0.902   9.099 -25.545  1.00  0.00     0.000 A 
HETATM   26  C   UNL     1       1.860   9.000 -26.552  1.00  0.00     0.001 A 
HETATM   27  C   UNL     1       1.522   8.438 -27.785  1.00  0.00     0.015 A 
ENDBRANCH   4  22
TORSDOF 4
ENDMDL
MODEL 7
REMARK VINA RESULT:      -8.1      2.257      3.679
REMARK  4 active torsions:
REMARK  status: ('A' for Active; 'I' for Inactive)
REMARK    1  A    between atoms: C_4  and  C_5 
REMARK    2  A    between atoms: C_14  and  C_15 
REMARK    3  A    between atoms: C_15  and  C_16 
REMARK    4  A    between atoms: C_17  and  O_18 
ROOT
HETATM    1  C   UNL     1      -5.445   4.234 -30.222  1.00  0.00     0.071 C 
HETATM    2  C   UNL     1      -5.426   3.996 -31.710  1.00  0.00     0.045 A 
HETATM    3  N   UNL     1      -5.808   2.716 -32.049  1.00  0.00    -0.234 NA
HETATM    4  C   UNL     1      -5.860   2.392 -33.301  1.00  0.00     0.141 A 
HETATM    5  N   UNL     1      -5.497   3.261 -34.293  1.00  0.00    -0.307 N 
HETATM    6  C   UNL     1      -5.120   4.539 -34.033  1.00  0.00     0.255 A 
HETATM    7  O   UNL     1      -4.842   5.330 -34.933  1.00  0.00    -0.268 OA
HETATM    8  C   UNL     1      -5.103   4.947 -32.610  1.00  0.00     0.039 A 
HETATM    9  H   UNL     1      -5.488   2.997 -35.265  1.00  0.00     0.170 HD
ENDROOT
BRANCH   8  10
HETATM   10  C   UNL     1      -4.711   6.378 -32.343  1.00  0.00     0.088 C 
BRANCH  10  11
HETATM   11  C   UNL     1      -3.229   6.561 -32.076  1.00  0.00    -0.020 A 
HETATM   12  C   UNL     1      -2.284   6.841 -33.089  1.00  0.00     0.074 A 
HETATM   13  C   UNL     1      -0.939   7.070 -32.789  1.00  0.00     0.074 A 
HETATM   14  C   UNL     1      -0.545   6.989 -31.472  1.00  0.00     0.077 A 
HETATM   15  C   UNL     1      -1.438   6.674 -30.465  1.00  0.00    -0.022 A 
HETATM   16  O   UNL     1       0.740   7.175 -31.032  1.00  0.00    -0.350 OA
HETATM   17  C   UNL     1      -0.703   6.560 -29.186  1.00  0.00     0.068 C 
HETATM   18  C   UNL     1      -2.776   6.453 -30.744  1.00  0.00     0.020 A 
HETATM   19  C   UNL     1       0.593   7.259 -29.594  1.00  0.00     0.180 C 
BRANCH  12  20
HETATM   20  O   UNL     1      -2.590   6.905 -34.420  1.00  0.00    -0.360 OA
HETATM   21  H   UNL     1      -2.815   7.815 -34.696  1.00  0.00     0.217 HD
ENDBRANCH  12  20
ENDBRANCH  10  11
ENDBRANCH   8  10
BRANCH   4  22
HETATM   22  C   UNL     1      -6.315   1.037 -33.722  1.00  0.00     0.010 A 
HETATM   23  C   UNL     1      -5.903  -0.123 -33.053  1.00  0.00     0.015 A 
HETATM   24  C   UNL     1      -6.337  -1.377 -33.490  1.00  0.00     0.001 A 
HETATM   25  C   UNL     1      -7.174  -1.480 -34.600  1.00  0.00     0.000 A 
HETATM   26  C   UNL     1      -7.574  -0.332 -35.280  1.00  0.00     0.001 A 
HETATM   27  C   UNL     1      -7.144   0.923 -34.845  1.00  0.00     0.015 A 
ENDBRANCH   4  22
TORSDOF 4
ENDMDL
MODEL 8
REMARK VINA RESULT:      -7.9     15.646     17.879
REMARK  4 active torsions:
REMARK  status: ('A' for Active; 'I' for Inactive)
REMARK    1  A    between atoms: C_4  and  C_5 
REMARK    2  A    between atoms: C_14  and  C_15 
REMARK    3  A    between atoms: C_15  and  C_16 
REMARK    4  A    between atoms: C_17  and  O_18 
ROOT
HETATM    1  C   UNL     1      -5.625 -13.654 -35.952  1.00  0.00     0.071 C 
HETATM    2  C   UNL     1      -5.133 -13.329 -37.339  1.00  0.00     0.045 A 
HETATM    3  N   UNL     1      -3.818 -13.691 -37.535  1.00  0.00    -0.234 NA
HETATM    4  C   UNL     1      -3.282 -13.490 -38.696  1.00  0.00     0.141 A 
HETATM    5  N   UNL     1      -3.963 -12.882 -39.716  1.00  0.00    -0.307 N 
HETATM    6  C   UNL     1      -5.262 -12.508 -39.596  1.00  0.00     0.255 A 
HETATM    7  O   UNL     1      -5.882 -12.007 -40.532  1.00  0.00    -0.268 OA
HETATM    8  C   UNL     1      -5.910 -12.776 -38.292  1.00  0.00     0.039 A 
HETATM    9  H   UNL     1      -3.534 -12.678 -40.604  1.00  0.00     0.170 HD
ENDROOT
BRANCH   8  10
HETATM   10  C   UNL     1      -7.361 -12.381 -38.188  1.00  0.00     0.088 C 
BRANCH  10  11
HETATM   11  C   UNL     1      -8.308 -13.369 -38.844  1.00  0.00    -0.020 A 
HETATM   12  C   UNL     1      -9.110 -13.053 -39.964  1.00  0.00     0.074 A 
HETATM   13  C   UNL     1      -9.917 -14.013 -40.578  1.00  0.00     0.074 A 
HETATM   14  C   UNL     1      -9.933 -15.283 -40.046  1.00  0.00     0.077 A 
HETATM   15  C   UNL     1      -9.193 -15.611 -38.926  1.00  0.00    -0.022 A 
HETATM   16  O   UNL     1     -10.684 -16.321 -40.533  1.00  0.00    -0.350 OA
HETATM   17  C   UNL     1      -9.496 -17.005 -38.536  1.00  0.00     0.068 C 
HETATM   18  C   UNL     1      -8.381 -14.673 -38.310  1.00  0.00     0.020 A 
HETATM   19  C   UNL     1     -10.162 -17.473 -39.830  1.00  0.00     0.180 C 
BRANCH  12  20
HETATM   20  O   UNL     1      -9.174 -11.809 -40.528  1.00  0.00    -0.360 OA
HETATM   21  H   UNL     1      -8.490 -11.687 -41.214  1.00  0.00     0.217 HD
ENDBRANCH  12  20
ENDBRANCH  10  11
ENDBRANCH   8  10
BRANCH   4  22
HETATM   22  C   UNL     1      -1.880 -13.909 -38.975  1.00  0.00     0.010 A 
HETATM   23  C   UNL     1      -0.936 -14.061 -37.950  1.00  0.00     0.015 A 
HETATM   24  C   UNL     1       0.374 -14.438 -38.254  1.00  0.00     0.001 A 
HETATM   25  C   UNL     1       0.751 -14.655 -39.579  1.00  0.00     0.000 A 
HETATM   26  C   UNL     1      -0.178 -14.489 -40.604  1.00  0.00     0.001 A 
HETATM   27  C   UNL     1      -1.489 -14.115 -40.304  1.00  0.00     0.015 A 
ENDBRANCH   4  22
TORSDOF 4
ENDMDL
MODEL 9
REMARK VINA RESULT:      -7.5      3.686      5.580
REMARK  4 active torsions:
REMARK  status: ('A' for Active; 'I' for Inactive)
REMARK    1  A    between atoms: C_4  and  C_5 
REMARK    2  A    between atoms: C_14  and  C_15 
REMARK    3  A    between atoms: C_15  and  C_16 
REMARK    4  A    between atoms: C_17  and  O_18 
ROOT
HETATM    1  C   UNL     1      -9.245   0.864 -31.190  1.00  0.00     0.071 C 
HETATM    2  C   UNL     1      -8.018   0.958 -32.062  1.00  0.00     0.045 A 
HETATM    3  N   UNL     1      -7.600  -0.271 -32.524  1.00  0.00    -0.234 NA
HETATM    4  C   UNL     1      -6.571  -0.325 -33.307  1.00  0.00     0.141 A 
HETATM    5  N   UNL     1      -5.855   0.791 -33.645  1.00  0.00    -0.307 N 
HETATM    6  C   UNL     1      -6.215   2.033 -33.234  1.00  0.00     0.255 A 
HETATM    7  O   UNL     1      -5.596   3.037 -33.582  1.00  0.00    -0.268 OA
HETATM    8  C   UNL     1      -7.420   2.124 -32.380  1.00  0.00     0.039 A 
HETATM    9  H   UNL     1      -5.024   0.747 -34.213  1.00  0.00     0.170 HD
ENDROOT
BRANCH   8  10
HETATM   10  C   UNL     1      -7.822   3.514 -31.957  1.00  0.00     0.088 C 
BRANCH  10  11
HETATM   11  C   UNL     1      -8.847   4.154 -32.874  1.00  0.00    -0.020 A 
HETATM   12  C   UNL     1      -8.505   5.009 -33.947  1.00  0.00     0.074 A 
HETATM   13  C   UNL     1      -9.477   5.523 -34.808  1.00  0.00     0.074 A 
HETATM   14  C   UNL     1     -10.793   5.195 -34.571  1.00  0.00     0.077 A 
HETATM   15  C   UNL     1     -11.162   4.397 -33.504  1.00  0.00    -0.022 A 
HETATM   16  O   UNL     1     -11.852   5.635 -35.322  1.00  0.00    -0.350 OA
HETATM   17  C   UNL     1     -12.638   4.312 -33.451  1.00  0.00     0.068 C 
HETATM   18  C   UNL     1     -10.210   3.873 -32.646  1.00  0.00     0.020 A 
HETATM   19  C   UNL     1     -12.955   4.822 -34.857  1.00  0.00     0.180 C 
BRANCH  12  20
HETATM   20  O   UNL     1      -7.227   5.407 -34.227  1.00  0.00    -0.360 OA
HETATM   21  H   UNL     1      -7.141   6.380 -34.221  1.00  0.00     0.217 HD
ENDBRANCH  12  20
ENDBRANCH  10  11
ENDBRANCH   8  10
BRANCH   4  22
HETATM   22  C   UNL     1      -6.109  -1.623 -33.875  1.00  0.00     0.010 A 
HETATM   23  C   UNL     1      -4.749  -1.951 -33.960  1.00  0.00     0.015 A 
HETATM   24  C   UNL     1      -4.355  -3.171 -34.516  1.00  0.00     0.001 A 
HETATM   25  C   UNL     1      -5.312  -4.062 -34.998  1.00  0.00     0.000 A 
HETATM   26  C   UNL     1      -6.665  -3.735 -34.933  1.00  0.00     0.001 A 
HETATM   27  C   UNL     1      -7.063  -2.518 -34.376  1.00  0.00     0.015 A 
ENDBRANCH   4  22
TORSDOF 4
ENDMDL
MODEL 10
REMARK VINA RESULT:      -7.4      5.036      9.796
REMARK  4 active torsions:
REMARK  status: ('A' for Active; 'I' for Inactive)
REMARK    1  A    between atoms: C_4  and  C_5 
REMARK    2  A    between atoms: C_14  and  C_15 
REMARK    3  A    between atoms: C_15  and  C_16 
REMARK    4  A    between atoms: C_17  and  O_18 
ROOT
HETATM    1  C   UNL     1      -2.308   8.194 -31.973  1.00  0.00     0.071 C 
HETATM    2  C   UNL     1      -1.318   7.410 -31.151  1.00  0.00     0.045 A 
HETATM    3  N   UNL     1      -0.919   8.081 -30.016  1.00  0.00    -0.234 NA
HETATM    4  C   UNL     1      -0.089   7.503 -29.208  1.00  0.00     0.141 A 
HETATM    5  N   UNL     1       0.444   6.271 -29.474  1.00  0.00    -0.307 N 
HETATM    6  C   UNL     1       0.090   5.550 -30.567  1.00  0.00     0.255 A 
HETATM    7  O   UNL     1       0.536   4.422 -30.774  1.00  0.00    -0.268 OA
HETATM    8  C   UNL     1      -0.898   6.170 -31.478  1.00  0.00     0.039 A 
HETATM    9  H   UNL     1       1.129   5.839 -28.874  1.00  0.00     0.170 HD
ENDROOT
BRANCH   8  10
HETATM   10  C   UNL     1      -1.302   5.342 -32.670  1.00  0.00     0.088 C 
BRANCH  10  11
HETATM   11  C   UNL     1      -2.680   4.722 -32.540  1.00  0.00    -0.020 A 
HETATM   12  C   UNL     1      -2.994   3.711 -31.602  1.00  0.00     0.074 A 
HETATM   13  C   UNL     1      -4.293   3.216 -31.469  1.00  0.00     0.074 A 
HETATM   14  C   UNL     1      -5.267   3.722 -32.300  1.00  0.00     0.077 A 
HETATM   15  C   UNL     1      -4.983   4.679 -33.256  1.00  0.00    -0.022 A 
HETATM   16  O   UNL     1      -6.579   3.323 -32.293  1.00  0.00    -0.350 OA
HETATM   17  C   UNL     1      -6.200   4.942 -34.055  1.00  0.00     0.068 C 
HETATM   18  C   UNL     1      -3.702   5.186 -33.394  1.00  0.00     0.020 A 
HETATM   19  C   UNL     1      -7.235   4.310 -33.124  1.00  0.00     0.180 C 
BRANCH  12  20
HETATM   20  O   UNL     1      -2.076   3.136 -30.767  1.00  0.00    -0.360 OA
HETATM   21  H   UNL     1      -2.505   2.667 -30.025  1.00  0.00     0.217 HD
ENDBRANCH  12  20
ENDBRANCH  10  11
ENDBRANCH   8  10
BRANCH   4  22
HETATM   22  C   UNL     1       0.334   8.165 -27.943  1.00  0.00     0.010 A 
HETATM   23  C   UNL     1       1.583   7.914 -27.358  1.00  0.00     0.015 A 
HETATM   24  C   UNL     1       1.935   8.541 -26.161  1.00  0.00     0.001 A 
HETATM   25  C   UNL     1       1.043   9.411 -25.537  1.00  0.00     0.000 A 
HETATM   26  C   UNL     1      -0.207   9.652 -26.103  1.00  0.00     0.001 A 
HETATM   27  C   UNL     1      -0.563   9.029 -27.301  1.00  0.00     0.015 A 
ENDBRANCH   4  22
TORSDOF 4
ENDMDL
