MODEL 1
REMARK VINA RESULT:      -7.6      0.000      0.000
REMARK  6 active torsions:
REMARK  status: ('A' for Active; 'I' for Inactive)
REMARK    1  A    between atoms: C_6  and  O_7 
REMARK    2  A    between atoms: C_8  and  C_9 
REMARK    3  A    between atoms: C_9  and  N_10 
REMARK    4  A    between atoms: N_10  and  C_12 
REMARK    5  A    between atoms: C_12  and  C_13 
REMARK    6  A    between atoms: C_12  and  C_16 
REMARK       I    between atoms: C_13  and  N_14 
ROOT
HETATM    1  N   UNL     1      -6.283   1.148 -32.535  1.00  0.00    -0.054 N 
HETATM    2  H   UNL     1      -5.335   0.974 -32.169  1.00  0.00     0.281 HD
HETATM    3  C   UNL     1      -7.245   0.365 -31.689  1.00  0.00     0.271 C 
ENDROOT
BRANCH   1   4
HETATM    4  C   UNL     1      -6.205   0.608 -33.948  1.00  0.00     0.277 C 
BRANCH   4   5
HETATM    5  C   UNL     1      -5.638  -0.789 -33.998  1.00  0.00     0.001 A 
HETATM    6  C   UNL     1      -4.369  -1.069 -33.486  1.00  0.00     0.074 A 
HETATM    7  C   UNL     1      -3.850  -2.361 -33.510  1.00  0.00     0.044 A 
HETATM    8  C   UNL     1      -4.608  -3.416 -34.043  1.00  0.00    -0.053 A 
HETATM    9  C   UNL     1      -5.883  -3.151 -34.580  1.00  0.00    -0.055 A 
HETATM   10  C   UNL     1      -4.034  -4.809 -34.041  1.00  0.00     0.049 C 
HETATM   11  C   UNL     1      -6.743  -4.252 -35.143  1.00  0.00     0.049 C 
HETATM   12  C   UNL     1      -6.386  -1.839 -34.551  1.00  0.00     0.019 A 
BRANCH   6  13
HETATM   13  O   UNL     1      -3.664  -0.046 -32.912  1.00  0.00    -0.360 OA
HETATM   14  H   UNL     1      -3.431   0.586 -33.622  1.00  0.00     0.217 HD
ENDBRANCH   6  13
ENDBRANCH   4   5
ENDBRANCH   1   4
BRANCH   1  15
HETATM   15  C   UNL     1      -6.516   2.661 -32.431  1.00  0.00     0.312 C 
BRANCH  15  16
HETATM   16  C   UNL     1      -7.932   3.123 -32.878  1.00  0.00     0.251 C 
HETATM   17  N   UNL     1      -8.604   3.967 -32.038  1.00  0.00    -0.368 N 
HETATM   18  H   UNL     1      -8.166   4.481 -31.282  1.00  0.00     0.159 HD
HETATM   19  H   UNL     1      -9.513   4.302 -32.344  1.00  0.00     0.159 HD
HETATM   20  O   UNL     1      -8.470   2.728 -33.910  1.00  0.00    -0.271 OA
ENDBRANCH  15  16
BRANCH  15  21
HETATM   21  C   UNL     1      -5.381   3.465 -33.048  1.00  0.00    -0.016 A 
HETATM   22  C   UNL     1      -4.098   3.387 -32.478  1.00  0.00     0.052 A 
HETATM   23  C   UNL     1      -3.041   4.112 -33.022  1.00  0.00     0.117 A 
HETATM   24  F   UNL     1      -1.830   4.023 -32.457  1.00  0.00    -0.206 F 
HETATM   25  C   UNL     1      -3.224   4.920 -34.133  1.00  0.00     0.042 A 
HETATM   26  C   UNL     1      -4.487   5.000 -34.718  1.00  0.00     0.004 A 
HETATM   27  C   UNL     1      -5.556   4.275 -34.185  1.00  0.00     0.010 A 
ENDBRANCH  15  21
ENDBRANCH   1  15
TORSDOF 6
ENDMDL
MODEL 2
REMARK VINA RESULT:      -7.6      1.368      1.550
REMARK  6 active torsions:
REMARK  status: ('A' for Active; 'I' for Inactive)
REMARK    1  A    between atoms: C_6  and  O_7 
REMARK    2  A    between atoms: C_8  and  C_9 
REMARK    3  A    between atoms: C_9  and  N_10 
REMARK    4  A    between atoms: N_10  and  C_12 
REMARK    5  A    between atoms: C_12  and  C_13 
REMARK    6  A    between atoms: C_12  and  C_16 
REMARK       I    between atoms: C_13  and  N_14 
ROOT
HETATM    1  N   UNL     1      -6.482   0.930 -32.467  1.00  0.00    -0.054 N 
HETATM    2  H   UNL     1      -6.456   0.027 -31.969  1.00  0.00     0.281 HD
HETATM    3  C   UNL     1      -7.910   1.393 -32.492  1.00  0.00     0.271 C 
ENDROOT
BRANCH   1   4
HETATM    4  C   UNL     1      -5.982   0.566 -33.850  1.00  0.00     0.277 C 
BRANCH   4   5
HETATM    5  C   UNL     1      -5.504  -0.862 -33.931  1.00  0.00     0.001 A 
HETATM    6  C   UNL     1      -4.268  -1.239 -33.401  1.00  0.00     0.074 A 
HETATM    7  C   UNL     1      -3.832  -2.560 -33.453  1.00  0.00     0.044 A 
HETATM    8  C   UNL     1      -4.643  -3.548 -34.033  1.00  0.00    -0.053 A 
HETATM    9  C   UNL     1      -5.887  -3.186 -34.588  1.00  0.00    -0.055 A 
HETATM   10  C   UNL     1      -4.160  -4.975 -34.061  1.00  0.00     0.049 C 
HETATM   11  C   UNL     1      -6.801  -4.213 -35.203  1.00  0.00     0.049 C 
HETATM   12  C   UNL     1      -6.305  -1.845 -34.530  1.00  0.00     0.019 A 
BRANCH   6  13
HETATM   13  O   UNL     1      -3.512  -0.280 -32.781  1.00  0.00    -0.360 OA
HETATM   14  H   UNL     1      -2.770  -0.735 -32.334  1.00  0.00     0.217 HD
ENDBRANCH   6  13
ENDBRANCH   4   5
ENDBRANCH   1   4
BRANCH   1  15
HETATM   15  C   UNL     1      -5.575   1.885 -31.680  1.00  0.00     0.312 C 
BRANCH  15  16
HETATM   16  C   UNL     1      -6.188   2.396 -30.346  1.00  0.00     0.251 C 
HETATM   17  N   UNL     1      -6.365   1.475 -29.351  1.00  0.00    -0.368 N 
HETATM   18  H   UNL     1      -5.924   0.562 -29.339  1.00  0.00     0.159 HD
HETATM   19  H   UNL     1      -6.729   1.812 -28.464  1.00  0.00     0.159 HD
HETATM   20  O   UNL     1      -6.552   3.557 -30.178  1.00  0.00    -0.271 OA
ENDBRANCH  15  16
BRANCH  15  21
HETATM   21  C   UNL     1      -4.996   2.987 -32.556  1.00  0.00    -0.016 A 
HETATM   22  C   UNL     1      -3.613   3.237 -32.517  1.00  0.00     0.052 A 
HETATM   23  C   UNL     1      -3.056   4.239 -33.307  1.00  0.00     0.117 A 
HETATM   24  F   UNL     1      -1.738   4.460 -33.247  1.00  0.00    -0.206 F 
HETATM   25  C   UNL     1      -3.845   5.006 -34.150  1.00  0.00     0.042 A 
HETATM   26  C   UNL     1      -5.216   4.764 -34.211  1.00  0.00     0.004 A 
HETATM   27  C   UNL     1      -5.788   3.758 -33.426  1.00  0.00     0.010 A 
ENDBRANCH  15  21
ENDBRANCH   1  15
TORSDOF 6
ENDMDL
MODEL 3
REMARK VINA RESULT:      -7.6      2.634      4.209
REMARK  6 active torsions:
REMARK  status: ('A' for Active; 'I' for Inactive)
REMARK    1  A    between atoms: C_6  and  O_7 
REMARK    2  A    between atoms: C_8  and  C_9 
REMARK    3  A    between atoms: C_9  and  N_10 
REMARK    4  A    between atoms: N_10  and  C_12 
REMARK    5  A    between atoms: C_12  and  C_13 
REMARK    6  A    between atoms: C_12  and  C_16 
REMARK       I    between atoms: C_13  and  N_14 
ROOT
HETATM    1  N   UNL     1      -4.923   2.327 -32.590  1.00  0.00    -0.054 N 
HETATM    2  H   UNL     1      -5.195   1.709 -33.369  1.00  0.00     0.281 HD
HETATM    3  C   UNL     1      -4.538   3.654 -33.175  1.00  0.00     0.271 C 
ENDROOT
BRANCH   1   4
HETATM    4  C   UNL     1      -3.732   1.608 -31.989  1.00  0.00     0.277 C 
BRANCH   4   5
HETATM    5  C   UNL     1      -3.713   0.140 -32.336  1.00  0.00     0.001 A 
HETATM    6  C   UNL     1      -2.821  -0.735 -31.713  1.00  0.00     0.074 A 
HETATM    7  C   UNL     1      -2.815  -2.095 -32.013  1.00  0.00     0.044 A 
HETATM    8  C   UNL     1      -3.724  -2.616 -32.947  1.00  0.00    -0.053 A 
HETATM    9  C   UNL     1      -4.622  -1.746 -33.598  1.00  0.00    -0.055 A 
HETATM   10  C   UNL     1      -3.713  -4.093 -33.241  1.00  0.00     0.049 C 
HETATM   11  C   UNL     1      -5.631  -2.260 -34.592  1.00  0.00     0.049 C 
HETATM   12  C   UNL     1      -4.607  -0.377 -33.285  1.00  0.00     0.019 A 
BRANCH   6  13
HETATM   13  O   UNL     1      -1.980  -0.229 -30.758  1.00  0.00    -0.360 OA
HETATM   14  H   UNL     1      -1.777  -0.953 -30.131  1.00  0.00     0.217 HD
ENDBRANCH   6  13
ENDBRANCH   4   5
ENDBRANCH   1   4
BRANCH   1  15
HETATM   15  C   UNL     1      -6.148   2.430 -31.672  1.00  0.00     0.312 C 
BRANCH  15  16
HETATM   16  C   UNL     1      -5.855   2.121 -30.177  1.00  0.00     0.251 C 
HETATM   17  N   UNL     1      -5.465   3.170 -29.391  1.00  0.00    -0.368 N 
HETATM   18  H   UNL     1      -5.575   4.144 -29.650  1.00  0.00     0.159 HD
HETATM   19  H   UNL     1      -5.310   2.980 -28.405  1.00  0.00     0.159 HD
HETATM   20  O   UNL     1      -5.915   0.989 -29.702  1.00  0.00    -0.271 OA
ENDBRANCH  15  16
BRANCH  15  21
HETATM   21  C   UNL     1      -7.354   1.689 -32.230  1.00  0.00    -0.016 A 
HETATM   22  C   UNL     1      -7.302   1.186 -33.543  1.00  0.00     0.052 A 
HETATM   23  C   UNL     1      -8.390   0.504 -34.079  1.00  0.00     0.117 A 
HETATM   24  F   UNL     1      -8.316   0.040 -35.333  1.00  0.00    -0.206 F 
HETATM   25  C   UNL     1      -9.543   0.300 -33.337  1.00  0.00     0.042 A 
HETATM   26  C   UNL     1      -9.608   0.780 -32.031  1.00  0.00     0.004 A 
HETATM   27  C   UNL     1      -8.521   1.464 -31.477  1.00  0.00     0.010 A 
ENDBRANCH  15  21
ENDBRANCH   1  15
TORSDOF 6
ENDMDL
MODEL 4
REMARK VINA RESULT:      -7.6      2.578      6.073
REMARK  6 active torsions:
REMARK  status: ('A' for Active; 'I' for Inactive)
REMARK    1  A    between atoms: C_6  and  O_7 
REMARK    2  A    between atoms: C_8  and  C_9 
REMARK    3  A    between atoms: C_9  and  N_10 
REMARK    4  A    between atoms: N_10  and  C_12 
REMARK    5  A    between atoms: C_12  and  C_13 
REMARK    6  A    between atoms: C_12  and  C_16 
REMARK       I    between atoms: C_13  and  N_14 
ROOT
HETATM    1  N   UNL     1      -7.308   1.913 -33.428  1.00  0.00    -0.054 N 
HETATM    2  H   UNL     1      -6.446   1.879 -33.993  1.00  0.00     0.281 HD
HETATM    3  C   UNL     1      -8.415   2.400 -34.317  1.00  0.00     0.271 C 
ENDROOT
BRANCH   1   4
HETATM    4  C   UNL     1      -6.965   2.919 -32.349  1.00  0.00     0.277 C 
BRANCH   4   5
HETATM    5  C   UNL     1      -5.549   3.425 -32.464  1.00  0.00     0.001 A 
HETATM    6  C   UNL     1      -4.606   3.157 -31.469  1.00  0.00     0.074 A 
HETATM    7  C   UNL     1      -3.291   3.601 -31.581  1.00  0.00     0.044 A 
HETATM    8  C   UNL     1      -2.885   4.323 -32.714  1.00  0.00    -0.053 A 
HETATM    9  C   UNL     1      -3.825   4.618 -33.722  1.00  0.00    -0.055 A 
HETATM   10  C   UNL     1      -1.453   4.777 -32.824  1.00  0.00     0.049 C 
HETATM   11  C   UNL     1      -3.433   5.370 -34.967  1.00  0.00     0.049 C 
HETATM   12  C   UNL     1      -5.148   4.164 -33.586  1.00  0.00     0.019 A 
BRANCH   6  13
HETATM   13  O   UNL     1      -4.996   2.399 -30.398  1.00  0.00    -0.360 OA
HETATM   14  H   UNL     1      -4.218   1.879 -30.106  1.00  0.00     0.217 HD
ENDBRANCH   6  13
ENDBRANCH   4   5
ENDBRANCH   1   4
BRANCH   1  15
HETATM   15  C   UNL     1      -7.552   0.483 -32.926  1.00  0.00     0.312 C 
BRANCH  15  16
HETATM   16  C   UNL     1      -7.879   0.384 -31.410  1.00  0.00     0.251 C 
HETATM   17  N   UNL     1      -9.186   0.552 -31.044  1.00  0.00    -0.368 N 
HETATM   18  H   UNL     1      -9.967   0.505 -31.691  1.00  0.00     0.159 HD
HETATM   19  H   UNL     1      -9.411   0.450 -30.058  1.00  0.00     0.159 HD
HETATM   20  O   UNL     1      -7.020   0.212 -30.548  1.00  0.00    -0.271 OA
ENDBRANCH  15  16
BRANCH  15  21
HETATM   21  C   UNL     1      -6.474  -0.485 -33.389  1.00  0.00    -0.016 A 
HETATM   22  C   UNL     1      -6.850  -1.648 -34.086  1.00  0.00     0.052 A 
HETATM   23  C   UNL     1      -5.884  -2.551 -34.521  1.00  0.00     0.117 A 
HETATM   24  F   UNL     1      -6.270  -3.652 -35.177  1.00  0.00    -0.206 F 
HETATM   25  C   UNL     1      -4.537  -2.327 -34.285  1.00  0.00     0.042 A 
HETATM   26  C   UNL     1      -4.145  -1.174 -33.607  1.00  0.00     0.004 A 
HETATM   27  C   UNL     1      -5.103  -0.256 -33.168  1.00  0.00     0.010 A 
ENDBRANCH  15  21
ENDBRANCH   1  15
TORSDOF 6
ENDMDL
MODEL 5
REMARK VINA RESULT:      -7.5      3.744      5.217
REMARK  6 active torsions:
REMARK  status: ('A' for Active; 'I' for Inactive)
REMARK    1  A    between atoms: C_6  and  O_7 
REMARK    2  A    between atoms: C_8  and  C_9 
REMARK    3  A    between atoms: C_9  and  N_10 
REMARK    4  A    between atoms: N_10  and  C_12 
REMARK    5  A    between atoms: C_12  and  C_13 
REMARK    6  A    between atoms: C_12  and  C_16 
REMARK       I    between atoms: C_13  and  N_14 
ROOT
HETATM    1  N   UNL     1      -8.259   0.686 -34.255  1.00  0.00    -0.054 N 
HETATM    2  H   UNL     1      -8.895   0.028 -34.731  1.00  0.00     0.281 HD
HETATM    3  C   UNL     1      -7.137   0.997 -35.203  1.00  0.00     0.271 C 
ENDROOT
BRANCH   1   4
HETATM    4  C   UNL     1      -7.782  -0.113 -33.059  1.00  0.00     0.277 C 
BRANCH   4   5
HETATM    5  C   UNL     1      -6.747  -1.144 -33.433  1.00  0.00     0.001 A 
HETATM    6  C   UNL     1      -5.424  -1.025 -33.000  1.00  0.00     0.074 A 
HETATM    7  C   UNL     1      -4.470  -1.986 -33.322  1.00  0.00     0.044 A 
HETATM    8  C   UNL     1      -4.828  -3.108 -34.086  1.00  0.00    -0.053 A 
HETATM    9  C   UNL     1      -6.154  -3.238 -34.546  1.00  0.00    -0.055 A 
HETATM   10  C   UNL     1      -3.784  -4.145 -34.407  1.00  0.00     0.049 C 
HETATM   11  C   UNL     1      -6.593  -4.434 -35.350  1.00  0.00     0.049 C 
HETATM   12  C   UNL     1      -7.100  -2.254 -34.214  1.00  0.00     0.019 A 
BRANCH   6  13
HETATM   13  O   UNL     1      -5.099   0.039 -32.203  1.00  0.00    -0.360 OA
HETATM   14  H   UNL     1      -5.541  -0.093 -31.340  1.00  0.00     0.217 HD
ENDBRANCH   6  13
ENDBRANCH   4   5
ENDBRANCH   1   4
BRANCH   1  15
HETATM   15  C   UNL     1      -9.094   1.927 -33.915  1.00  0.00     0.312 C 
BRANCH  15  16
HETATM   16  C   UNL     1      -8.762   2.563 -32.536  1.00  0.00     0.251 C 
HETATM   17  N   UNL     1      -7.640   3.341 -32.465  1.00  0.00    -0.368 N 
HETATM   18  H   UNL     1      -7.154   3.711 -33.276  1.00  0.00     0.159 HD
HETATM   19  H   UNL     1      -7.440   3.791 -31.577  1.00  0.00     0.159 HD
HETATM   20  O   UNL     1      -9.429   2.358 -31.525  1.00  0.00    -0.271 OA
ENDBRANCH  15  16
BRANCH  15  21
HETATM   21  C   UNL     1     -10.581   1.707 -34.151  1.00  0.00    -0.016 A 
HETATM   22  C   UNL     1     -11.203   0.573 -33.597  1.00  0.00     0.052 A 
HETATM   23  C   UNL     1     -12.562   0.347 -33.797  1.00  0.00     0.117 A 
HETATM   24  F   UNL     1     -13.127  -0.742 -33.262  1.00  0.00    -0.206 F 
HETATM   25  C   UNL     1     -13.332   1.229 -34.538  1.00  0.00     0.042 A 
HETATM   26  C   UNL     1     -12.736   2.364 -35.084  1.00  0.00     0.004 A 
HETATM   27  C   UNL     1     -11.373   2.606 -34.888  1.00  0.00     0.010 A 
ENDBRANCH  15  21
ENDBRANCH   1  15
TORSDOF 6
ENDMDL
MODEL 6
REMARK VINA RESULT:      -7.5      3.322      4.310
REMARK  6 active torsions:
REMARK  status: ('A' for Active; 'I' for Inactive)
REMARK    1  A    between atoms: C_6  and  O_7 
REMARK    2  A    between atoms: C_8  and  C_9 
REMARK    3  A    between atoms: C_9  and  N_10 
REMARK    4  A    between atoms: N_10  and  C_12 
REMARK    5  A    between atoms: C_12  and  C_13 
REMARK    6  A    between atoms: C_12  and  C_16 
REMARK       I    between atoms: C_13  and  N_14 
ROOT
HETATM    1  N   UNL     1      -7.142   1.023 -32.521  1.00  0.00    -0.054 N 
HETATM    2  H   UNL     1      -6.195   1.360 -32.292  1.00  0.00     0.281 HD
HETATM    3  C   UNL     1      -7.465  -0.098 -31.576  1.00  0.00     0.271 C 
ENDROOT
BRANCH   1   4
HETATM    4  C   UNL     1      -6.989   0.533 -33.947  1.00  0.00     0.277 C 
BRANCH   4   5
HETATM    5  C   UNL     1      -6.175  -0.733 -34.035  1.00  0.00     0.001 A 
HETATM    6  C   UNL     1      -4.860  -0.778 -33.569  1.00  0.00     0.074 A 
HETATM    7  C   UNL     1      -4.112  -1.950 -33.627  1.00  0.00     0.044 A 
HETATM    8  C   UNL     1      -4.678  -3.123 -34.151  1.00  0.00    -0.053 A 
HETATM    9  C   UNL     1      -5.999  -3.095 -34.643  1.00  0.00    -0.055 A 
HETATM   10  C   UNL     1      -3.857  -4.386 -34.187  1.00  0.00     0.049 C 
HETATM   11  C   UNL     1      -6.658  -4.332 -35.194  1.00  0.00     0.049 C 
HETATM   12  C   UNL     1      -6.734  -1.899 -34.578  1.00  0.00     0.019 A 
BRANCH   6  13
HETATM   13  O   UNL     1      -4.337   0.354 -33.002  1.00  0.00    -0.360 OA
HETATM   14  H   UNL     1      -3.445   0.130 -32.667  1.00  0.00     0.217 HD
ENDBRANCH   6  13
ENDBRANCH   4   5
ENDBRANCH   1   4
BRANCH   1  15
HETATM   15  C   UNL     1      -8.083   2.221 -32.344  1.00  0.00     0.312 C 
BRANCH  15  16
HETATM   16  C   UNL     1      -8.325   2.632 -30.864  1.00  0.00     0.251 C 
HETATM   17  N   UNL     1      -9.617   2.606 -30.417  1.00  0.00    -0.368 N 
HETATM   18  H   UNL     1     -10.374   2.130 -30.896  1.00  0.00     0.159 HD
HETATM   19  H   UNL     1      -9.776   2.836 -29.440  1.00  0.00     0.159 HD
HETATM   20  O   UNL     1      -7.426   3.013 -30.119  1.00  0.00    -0.271 OA
ENDBRANCH  15  16
BRANCH  15  21
HETATM   21  C   UNL     1      -9.358   2.082 -33.162  1.00  0.00    -0.016 A 
HETATM   22  C   UNL     1      -9.695   3.091 -34.083  1.00  0.00     0.052 A 
HETATM   23  C   UNL     1     -10.856   2.989 -34.844  1.00  0.00     0.117 A 
HETATM   24  F   UNL     1     -11.156   3.965 -35.710  1.00  0.00    -0.206 F 
HETATM   25  C   UNL     1     -11.700   1.897 -34.720  1.00  0.00     0.042 A 
HETATM   26  C   UNL     1     -11.376   0.882 -33.821  1.00  0.00     0.004 A 
HETATM   27  C   UNL     1     -10.211   0.969 -33.053  1.00  0.00     0.010 A 
ENDBRANCH  15  21
ENDBRANCH   1  15
TORSDOF 6
ENDMDL
MODEL 7
REMARK VINA RESULT:      -7.5      1.984      3.298
REMARK  6 active torsions:
REMARK  status: ('A' for Active; 'I' for Inactive)
REMARK    1  A    between atoms: C_6  and  O_7 
REMARK    2  A    between atoms: C_8  and  C_9 
REMARK    3  A    between atoms: C_9  and  N_10 
REMARK    4  A    between atoms: N_10  and  C_12 
REMARK    5  A    between atoms: C_12  and  C_13 
REMARK    6  A    between atoms: C_12  and  C_16 
REMARK       I    between atoms: C_13  and  N_14 
ROOT
HETATM    1  N   UNL     1      -4.397   3.290 -32.387  1.00  0.00    -0.054 N 
HETATM    2  H   UNL     1      -4.114   2.901 -33.299  1.00  0.00     0.281 HD
HETATM    3  C   UNL     1      -3.276   3.044 -31.421  1.00  0.00     0.271 C 
ENDROOT
BRANCH   1   4
HETATM    4  C   UNL     1      -5.629   2.479 -32.042  1.00  0.00     0.277 C 
BRANCH   4   5
HETATM    5  C   UNL     1      -5.664   1.154 -32.761  1.00  0.00     0.001 A 
HETATM    6  C   UNL     1      -6.554   0.930 -33.814  1.00  0.00     0.074 A 
HETATM    7  C   UNL     1      -6.575  -0.284 -34.496  1.00  0.00     0.044 A 
HETATM    8  C   UNL     1      -5.683  -1.308 -34.142  1.00  0.00    -0.053 A 
HETATM    9  C   UNL     1      -4.788  -1.107 -33.072  1.00  0.00    -0.055 A 
HETATM   10  C   UNL     1      -5.710  -2.606 -34.906  1.00  0.00     0.049 C 
HETATM   11  C   UNL     1      -3.797  -2.167 -32.668  1.00  0.00     0.049 C 
HETATM   12  C   UNL     1      -4.788   0.123 -32.393  1.00  0.00     0.019 A 
BRANCH   6  13
HETATM   13  O   UNL     1      -7.377   1.956 -34.193  1.00  0.00    -0.360 OA
HETATM   14  H   UNL     1      -8.175   1.559 -34.599  1.00  0.00     0.217 HD
ENDBRANCH   6  13
ENDBRANCH   4   5
ENDBRANCH   1   4
BRANCH   1  15
HETATM   15  C   UNL     1      -4.650   4.786 -32.616  1.00  0.00     0.312 C 
BRANCH  15  16
HETATM   16  C   UNL     1      -5.839   5.097 -33.568  1.00  0.00     0.251 C 
HETATM   17  N   UNL     1      -6.741   6.035 -33.148  1.00  0.00    -0.368 N 
HETATM   18  H   UNL     1      -6.569   6.689 -32.392  1.00  0.00     0.159 HD
HETATM   19  H   UNL     1      -7.498   6.270 -33.784  1.00  0.00     0.159 HD
HETATM   20  O   UNL     1      -6.015   4.510 -34.633  1.00  0.00    -0.271 OA
ENDBRANCH  15  16
BRANCH  15  21
HETATM   21  C   UNL     1      -3.374   5.544 -32.954  1.00  0.00    -0.016 A 
HETATM   22  C   UNL     1      -2.584   5.108 -34.033  1.00  0.00     0.052 A 
HETATM   23  C   UNL     1      -1.413   5.782 -34.366  1.00  0.00     0.117 A 
HETATM   24  F   UNL     1      -0.677   5.343 -35.394  1.00  0.00    -0.206 F 
HETATM   25  C   UNL     1      -1.000   6.895 -33.650  1.00  0.00     0.042 A 
HETATM   26  C   UNL     1      -1.776   7.349 -32.585  1.00  0.00     0.004 A 
HETATM   27  C   UNL     1      -2.958   6.684 -32.243  1.00  0.00     0.010 A 
ENDBRANCH  15  21
ENDBRANCH   1  15
TORSDOF 6
ENDMDL
MODEL 8
REMARK VINA RESULT:      -7.3      2.835      5.914
REMARK  6 active torsions:
REMARK  status: ('A' for Active; 'I' for Inactive)
REMARK    1  A    between atoms: C_6  and  O_7 
REMARK    2  A    between atoms: C_8  and  C_9 
REMARK    3  A    between atoms: C_9  and  N_10 
REMARK    4  A    between atoms: N_10  and  C_12 
REMARK    5  A    between atoms: C_12  and  C_13 
REMARK    6  A    between atoms: C_12  and  C_16 
REMARK       I    between atoms: C_13  and  N_14 
ROOT
HETATM    1  N   UNL     1      -6.856   1.550 -31.360  1.00  0.00    -0.054 N 
HETATM    2  H   UNL     1      -7.463   0.730 -31.507  1.00  0.00     0.281 HD
HETATM    3  C   UNL     1      -6.318   1.470 -29.961  1.00  0.00     0.271 C 
ENDROOT
BRANCH   1   4
HETATM    4  C   UNL     1      -7.811   2.713 -31.532  1.00  0.00     0.277 C 
BRANCH   4   5
HETATM    5  C   UNL     1      -8.952   2.387 -32.463  1.00  0.00     0.001 A 
HETATM    6  C   UNL     1      -9.700   1.218 -32.303  1.00  0.00     0.074 A 
HETATM    7  C   UNL     1     -10.768   0.923 -33.145  1.00  0.00     0.044 A 
HETATM    8  C   UNL     1     -11.122   1.811 -34.173  1.00  0.00    -0.053 A 
HETATM    9  C   UNL     1     -10.370   2.988 -34.362  1.00  0.00    -0.055 A 
HETATM   10  C   UNL     1     -12.294   1.481 -35.061  1.00  0.00     0.049 C 
HETATM   11  C   UNL     1     -10.724   3.982 -35.436  1.00  0.00     0.049 C 
HETATM   12  C   UNL     1      -9.292   3.263 -33.503  1.00  0.00     0.019 A 
BRANCH   6  13
HETATM   13  O   UNL     1      -9.386   0.389 -31.259  1.00  0.00    -0.360 OA
HETATM   14  H   UNL     1      -8.486   0.625 -30.956  1.00  0.00     0.217 HD
ENDBRANCH   6  13
ENDBRANCH   4   5
ENDBRANCH   1   4
BRANCH   1  15
HETATM   15  C   UNL     1      -5.746   1.462 -32.415  1.00  0.00     0.312 C 
BRANCH  15  16
HETATM   16  C   UNL     1      -5.544   2.763 -33.242  1.00  0.00     0.251 C 
HETATM   17  N   UNL     1      -4.773   3.743 -32.679  1.00  0.00    -0.368 N 
HETATM   18  H   UNL     1      -4.153   3.593 -31.890  1.00  0.00     0.159 HD
HETATM   19  H   UNL     1      -4.606   4.579 -33.231  1.00  0.00     0.159 HD
HETATM   20  O   UNL     1      -6.077   2.954 -34.332  1.00  0.00    -0.271 OA
ENDBRANCH  15  16
BRANCH  15  21
HETATM   21  C   UNL     1      -5.852   0.203 -33.263  1.00  0.00    -0.016 A 
HETATM   22  C   UNL     1      -4.824  -0.755 -33.199  1.00  0.00     0.052 A 
HETATM   23  C   UNL     1      -4.894  -1.916 -33.963  1.00  0.00     0.117 A 
HETATM   24  F   UNL     1      -3.900  -2.809 -33.887  1.00  0.00    -0.206 F 
HETATM   25  C   UNL     1      -5.975  -2.158 -34.797  1.00  0.00     0.042 A 
HETATM   26  C   UNL     1      -7.009  -1.227 -34.865  1.00  0.00     0.004 A 
HETATM   27  C   UNL     1      -6.953  -0.058 -34.099  1.00  0.00     0.010 A 
ENDBRANCH  15  21
ENDBRANCH   1  15
TORSDOF 6
ENDMDL
MODEL 9
REMARK VINA RESULT:      -7.2     14.866     16.264
REMARK  6 active torsions:
REMARK  status: ('A' for Active; 'I' for Inactive)
REMARK    1  A    between atoms: C_6  and  O_7 
REMARK    2  A    between atoms: C_8  and  C_9 
REMARK    3  A    between atoms: C_9  and  N_10 
REMARK    4  A    between atoms: N_10  and  C_12 
REMARK    5  A    between atoms: C_12  and  C_13 
REMARK    6  A    between atoms: C_12  and  C_16 
REMARK       I    between atoms: C_13  and  N_14 
ROOT
HETATM    1  N   UNL     1      -6.055 -13.102 -39.780  1.00  0.00    -0.054 N 
HETATM    2  H   UNL     1      -5.639 -14.036 -39.652  1.00  0.00     0.281 HD
HETATM    3  C   UNL     1      -6.579 -13.027 -41.185  1.00  0.00     0.271 C 
ENDROOT
BRANCH   1   4
HETATM    4  C   UNL     1      -4.876 -12.174 -39.568  1.00  0.00     0.277 C 
BRANCH   4   5
HETATM    5  C   UNL     1      -3.661 -12.901 -39.047  1.00  0.00     0.001 A 
HETATM    6  C   UNL     1      -3.308 -12.838 -37.697  1.00  0.00     0.074 A 
HETATM    7  C   UNL     1      -2.201 -13.525 -37.207  1.00  0.00     0.044 A 
HETATM    8  C   UNL     1      -1.420 -14.310 -38.069  1.00  0.00    -0.053 A 
HETATM    9  C   UNL     1      -1.749 -14.374 -39.438  1.00  0.00    -0.055 A 
HETATM   10  C   UNL     1      -0.237 -15.061 -37.514  1.00  0.00     0.049 C 
HETATM   11  C   UNL     1      -0.955 -15.220 -40.399  1.00  0.00     0.049 C 
HETATM   12  C   UNL     1      -2.868 -13.668 -39.912  1.00  0.00     0.019 A 
BRANCH   6  13
HETATM   13  O   UNL     1      -4.112 -12.120 -36.853  1.00  0.00    -0.360 OA
HETATM   14  H   UNL     1      -5.023 -12.160 -37.208  1.00  0.00     0.217 HD
ENDBRANCH   6  13
ENDBRANCH   4   5
ENDBRANCH   1   4
BRANCH   1  15
HETATM   15  C   UNL     1      -7.172 -12.979 -38.736  1.00  0.00     0.312 C 
BRANCH  15  16
HETATM   16  C   UNL     1      -6.928 -13.799 -37.438  1.00  0.00     0.251 C 
HETATM   17  N   UNL     1      -7.099 -13.145 -36.249  1.00  0.00    -0.368 N 
HETATM   18  H   UNL     1      -7.586 -12.259 -36.154  1.00  0.00     0.159 HD
HETATM   19  H   UNL     1      -6.979 -13.686 -35.398  1.00  0.00     0.159 HD
HETATM   20  O   UNL     1      -6.550 -14.968 -37.445  1.00  0.00    -0.271 OA
ENDBRANCH  15  16
BRANCH  15  21
HETATM   21  C   UNL     1      -8.555 -13.179 -39.341  1.00  0.00    -0.016 A 
HETATM   22  C   UNL     1      -9.332 -12.052 -39.662  1.00  0.00     0.052 A 
HETATM   23  C   UNL     1     -10.599 -12.206 -40.217  1.00  0.00     0.117 A 
HETATM   24  F   UNL     1     -11.320 -11.116 -40.509  1.00  0.00    -0.206 F 
HETATM   25  C   UNL     1     -11.122 -13.464 -40.468  1.00  0.00     0.042 A 
HETATM   26  C   UNL     1     -10.362 -14.593 -40.167  1.00  0.00     0.004 A 
HETATM   27  C   UNL     1      -9.085 -14.453 -39.614  1.00  0.00     0.010 A 
ENDBRANCH  15  21
ENDBRANCH   1  15
TORSDOF 6
ENDMDL
MODEL 10
REMARK VINA RESULT:      -7.1      1.629      2.118
REMARK  6 active torsions:
REMARK  status: ('A' for Active; 'I' for Inactive)
REMARK    1  A    between atoms: C_6  and  O_7 
REMARK    2  A    between atoms: C_8  and  C_9 
REMARK    3  A    between atoms: C_9  and  N_10 
REMARK    4  A    between atoms: N_10  and  C_12 
REMARK    5  A    between atoms: C_12  and  C_13 
REMARK    6  A    between atoms: C_12  and  C_16 
REMARK       I    between atoms: C_13  and  N_14 
ROOT
HETATM    1  N   UNL     1      -5.373   0.778 -31.715  1.00  0.00    -0.054 N 
HETATM    2  H   UNL     1      -4.403   0.464 -31.563  1.00  0.00     0.281 HD
HETATM    3  C   UNL     1      -6.280  -0.208 -31.037  1.00  0.00     0.271 C 
ENDROOT
BRANCH   1   4
HETATM    4  C   UNL     1      -5.511   0.729 -33.223  1.00  0.00     0.277 C 
BRANCH   4   5
HETATM    5  C   UNL     1      -5.728  -0.673 -33.734  1.00  0.00     0.001 A 
HETATM    6  C   UNL     1      -6.945  -1.051 -34.305  1.00  0.00     0.074 A 
HETATM    7  C   UNL     1      -7.143  -2.337 -34.799  1.00  0.00     0.044 A 
HETATM    8  C   UNL     1      -6.105  -3.282 -34.744  1.00  0.00    -0.053 A 
HETATM    9  C   UNL     1      -4.874  -2.925 -34.157  1.00  0.00    -0.055 A 
HETATM   10  C   UNL     1      -6.334  -4.662 -35.303  1.00  0.00     0.049 C 
HETATM   11  C   UNL     1      -3.724  -3.895 -34.094  1.00  0.00     0.049 C 
HETATM   12  C   UNL     1      -4.699  -1.623 -33.659  1.00  0.00     0.019 A 
BRANCH   6  13
HETATM   13  O   UNL     1      -7.930  -0.106 -34.411  1.00  0.00    -0.360 OA
HETATM   14  H   UNL     1      -7.976   0.369 -33.556  1.00  0.00     0.217 HD
ENDBRANCH   6  13
ENDBRANCH   4   5
ENDBRANCH   1   4
BRANCH   1  15
HETATM   15  C   UNL     1      -5.475   2.180 -31.099  1.00  0.00     0.312 C 
BRANCH  15  16
HETATM   16  C   UNL     1      -6.915   2.592 -30.682  1.00  0.00     0.251 C 
HETATM   17  N   UNL     1      -7.131   2.832 -29.353  1.00  0.00    -0.368 N 
HETATM   18  H   UNL     1      -6.391   2.984 -28.677  1.00  0.00     0.159 HD
HETATM   19  H   UNL     1      -8.060   3.140 -29.081  1.00  0.00     0.159 HD
HETATM   20  O   UNL     1      -7.849   2.661 -31.477  1.00  0.00    -0.271 OA
ENDBRANCH  15  16
BRANCH  15  21
HETATM   21  C   UNL     1      -4.748   3.230 -31.927  1.00  0.00    -0.016 A 
HETATM   22  C   UNL     1      -3.349   3.335 -31.824  1.00  0.00     0.052 A 
HETATM   23  C   UNL     1      -2.659   4.286 -32.570  1.00  0.00     0.117 A 
HETATM   24  F   UNL     1      -1.328   4.369 -32.449  1.00  0.00    -0.206 F 
HETATM   25  C   UNL     1      -3.326   5.144 -33.429  1.00  0.00     0.042 A 
HETATM   26  C   UNL     1      -4.711   5.046 -33.553  1.00  0.00     0.004 A 
HETATM   27  C   UNL     1      -5.417   4.093 -32.814  1.00  0.00     0.010 A 
ENDBRANCH  15  21
ENDBRANCH   1  15
TORSDOF 6
ENDMDL
