MODEL 1
REMARK VINA RESULT:      -9.5      0.000      0.000
REMARK  5 active torsions:
REMARK  status: ('A' for Active; 'I' for Inactive)
REMARK    1  A    between atoms: C_6  and  N_7 
REMARK       I    between atoms: N_7  and  C_8 
REMARK    2  A    between atoms: C_8  and  C_9 
REMARK    3  A    between atoms: C_9  and  C_10 
REMARK    4  A    between atoms: C_12  and  N_13 
REMARK       I    between atoms: N_13  and  C_14 
REMARK       I    between atoms: C_14  and  N_15 
REMARK    5  A    between atoms: N_15  and  C_16 
ROOT
HETATM    1  C   UNL     1      -3.741   3.168 -32.331  1.00  0.00     0.052 A 
HETATM    2  N   UNL     1      -5.091   3.463 -32.513  1.00  0.00    -0.228 NA
HETATM    3  C   UNL     1      -5.206   4.488 -33.325  1.00  0.00     0.174 A 
HETATM    4  S   UNL     1      -3.763   5.160 -33.925  1.00  0.00    -0.062 SA
HETATM    5  C   UNL     1      -2.878   4.000 -33.027  1.00  0.00     0.081 A 
ENDROOT
BRANCH   1   6
HETATM    6  C   UNL     1      -3.306   2.052 -31.429  1.00  0.00     0.163 C 
BRANCH   6   7
HETATM    7  C   UNL     1      -3.789   0.641 -31.740  1.00  0.00     0.227 C 
HETATM    8  N   UNL     1      -4.374   0.451 -32.975  1.00  0.00    -0.327 N 
HETATM    9  H   UNL     1      -4.598   1.296 -33.494  1.00  0.00     0.169 HD
HETATM   10  O   UNL     1      -3.577  -0.246 -30.913  1.00  0.00    -0.273 OA
BRANCH   8  11
HETATM   11  C   UNL     1      -4.847  -0.757 -33.531  1.00  0.00     0.036 A 
HETATM   12  C   UNL     1      -4.108  -1.938 -33.582  1.00  0.00     0.053 A 
HETATM   13  C   UNL     1      -4.670  -3.106 -34.116  1.00  0.00     0.042 A 
HETATM   14  C   UNL     1      -5.983  -3.114 -34.607  1.00  0.00    -0.040 A 
HETATM   15 CL   UNL     1      -3.693  -4.534 -34.141  1.00  0.00    -0.084 Cl
HETATM   16  C   UNL     1      -6.617  -4.358 -35.163  1.00  0.00     0.050 C 
HETATM   17  C   UNL     1      -6.711  -1.920 -34.576  1.00  0.00     0.011 A 
HETATM   18  C   UNL     1      -6.145  -0.753 -34.051  1.00  0.00     0.030 A 
ENDBRANCH   8  11
ENDBRANCH   6   7
ENDBRANCH   1   6
BRANCH   3  19
HETATM   19  N   UNL     1      -6.341   5.088 -33.776  1.00  0.00    -0.287 N 
HETATM   20  C   UNL     1      -7.582   4.528 -33.872  1.00  0.00     0.326 C 
HETATM   21  N   UNL     1      -7.743   3.278 -33.340  1.00  0.00    -0.309 N 
HETATM   22  O   UNL     1      -8.458   5.196 -34.419  1.00  0.00    -0.247 OA
HETATM   23  H   UNL     1      -6.962   2.938 -32.788  1.00  0.00     0.170 HD
HETATM   24  H   UNL     1      -6.266   6.027 -34.137  1.00  0.00     0.172 HD
BRANCH  21  25
HETATM   25  C   UNL     1      -8.887   2.456 -33.392  1.00  0.00     0.036 A 
HETATM   26  C   UNL     1     -10.013   2.742 -34.170  1.00  0.00     0.032 A 
HETATM   27  C   UNL     1     -11.093   1.853 -34.205  1.00  0.00     0.044 A 
HETATM   28  C   UNL     1     -11.045   0.682 -33.460  1.00  0.00     0.116 A 
HETATM   29  F   UNL     1     -12.077  -0.171 -33.504  1.00  0.00    -0.206 F 
HETATM   30  C   UNL     1      -9.939   0.383 -32.678  1.00  0.00     0.044 A 
HETATM   31  C   UNL     1      -8.861   1.270 -32.643  1.00  0.00     0.032 A 
ENDBRANCH  21  25
ENDBRANCH   3  19
TORSDOF 5
ENDMDL
MODEL 2
REMARK VINA RESULT:      -9.5      4.625      8.092
REMARK  5 active torsions:
REMARK  status: ('A' for Active; 'I' for Inactive)
REMARK    1  A    between atoms: C_6  and  N_7 
REMARK       I    between atoms: N_7  and  C_8 
REMARK    2  A    between atoms: C_8  and  C_9 
REMARK    3  A    between atoms: C_9  and  C_10 
REMARK    4  A    between atoms: C_12  and  N_13 
REMARK       I    between atoms: N_13  and  C_14 
REMARK       I    between atoms: C_14  and  N_15 
REMARK    5  A    between atoms: N_15  and  C_16 
ROOT
HETATM    1  C   UNL     1      -4.278   4.691 -33.883  1.00  0.00     0.052 A 
HETATM    2  N   UNL     1      -4.034   3.686 -32.948  1.00  0.00    -0.228 NA
HETATM    3  C   UNL     1      -5.177   3.191 -32.535  1.00  0.00     0.174 A 
HETATM    4  S   UNL     1      -6.592   3.855 -33.207  1.00  0.00    -0.062 SA
HETATM    5  C   UNL     1      -5.621   4.916 -34.139  1.00  0.00     0.081 A 
ENDROOT
BRANCH   1   6
HETATM    6  C   UNL     1      -3.151   5.453 -34.512  1.00  0.00     0.163 C 
BRANCH   6   7
HETATM    7  C   UNL     1      -2.301   6.351 -33.623  1.00  0.00     0.227 C 
HETATM    8  N   UNL     1      -2.203   5.987 -32.295  1.00  0.00    -0.327 N 
HETATM    9  H   UNL     1      -2.848   5.263 -31.987  1.00  0.00     0.169 HD
HETATM   10  O   UNL     1      -1.708   7.298 -34.142  1.00  0.00    -0.273 OA
BRANCH   8  11
HETATM   11  C   UNL     1      -1.439   6.605 -31.283  1.00  0.00     0.036 A 
HETATM   12  C   UNL     1      -1.913   7.617 -30.451  1.00  0.00     0.053 A 
HETATM   13  C   UNL     1      -1.098   8.148 -29.442  1.00  0.00     0.042 A 
HETATM   14  C   UNL     1       0.207   7.676 -29.246  1.00  0.00    -0.040 A 
HETATM   15 CL   UNL     1      -1.758   9.399 -28.445  1.00  0.00    -0.084 Cl
HETATM   16  C   UNL     1       1.094   8.212 -28.158  1.00  0.00     0.050 C 
HETATM   17  C   UNL     1       0.687   6.676 -30.101  1.00  0.00     0.011 A 
HETATM   18  C   UNL     1      -0.125   6.154 -31.113  1.00  0.00     0.030 A 
ENDBRANCH   8  11
ENDBRANCH   6   7
ENDBRANCH   1   6
BRANCH   3  19
HETATM   19  N   UNL     1      -5.392   2.189 -31.639  1.00  0.00    -0.287 N 
HETATM   20  C   UNL     1      -5.498   0.855 -31.910  1.00  0.00     0.326 C 
HETATM   21  N   UNL     1      -5.232   0.458 -33.192  1.00  0.00    -0.309 N 
HETATM   22  O   UNL     1      -5.814   0.118 -30.978  1.00  0.00    -0.247 OA
HETATM   23  H   UNL     1      -4.834   1.173 -33.793  1.00  0.00     0.170 HD
HETATM   24  H   UNL     1      -5.550   2.444 -30.675  1.00  0.00     0.172 HD
BRANCH  21  25
HETATM   25  C   UNL     1      -5.360  -0.834 -33.742  1.00  0.00     0.036 A 
HETATM   26  C   UNL     1      -4.309  -1.752 -33.818  1.00  0.00     0.032 A 
HETATM   27  C   UNL     1      -4.525  -3.033 -34.337  1.00  0.00     0.044 A 
HETATM   28  C   UNL     1      -5.792  -3.393 -34.778  1.00  0.00     0.116 A 
HETATM   29  F   UNL     1      -5.997  -4.624 -35.264  1.00  0.00    -0.206 F 
HETATM   30  C   UNL     1      -6.848  -2.494 -34.715  1.00  0.00     0.044 A 
HETATM   31  C   UNL     1      -6.631  -1.214 -34.198  1.00  0.00     0.032 A 
ENDBRANCH  21  25
ENDBRANCH   3  19
TORSDOF 5
ENDMDL
MODEL 3
REMARK VINA RESULT:      -9.3      4.852      7.143
REMARK  5 active torsions:
REMARK  status: ('A' for Active; 'I' for Inactive)
REMARK    1  A    between atoms: C_6  and  N_7 
REMARK       I    between atoms: N_7  and  C_8 
REMARK    2  A    between atoms: C_8  and  C_9 
REMARK    3  A    between atoms: C_9  and  C_10 
REMARK    4  A    between atoms: C_12  and  N_13 
REMARK       I    between atoms: N_13  and  C_14 
REMARK       I    between atoms: C_14  and  N_15 
REMARK    5  A    between atoms: N_15  and  C_16 
ROOT
HETATM    1  C   UNL     1      -3.789   3.259 -32.245  1.00  0.00     0.052 A 
HETATM    2  N   UNL     1      -2.843   4.282 -32.297  1.00  0.00    -0.228 NA
HETATM    3  C   UNL     1      -3.313   5.272 -33.021  1.00  0.00     0.174 A 
HETATM    4  S   UNL     1      -4.872   5.075 -33.673  1.00  0.00    -0.062 SA
HETATM    5  C   UNL     1      -4.954   3.526 -32.946  1.00  0.00     0.081 A 
ENDROOT
BRANCH   1   6
HETATM    6  C   UNL     1      -3.512   1.987 -31.503  1.00  0.00     0.163 C 
BRANCH   6   7
HETATM    7  C   UNL     1      -4.328   0.751 -31.858  1.00  0.00     0.227 C 
HETATM    8  N   UNL     1      -4.072   0.178 -33.087  1.00  0.00    -0.327 N 
HETATM    9  H   UNL     1      -3.500   0.729 -33.722  1.00  0.00     0.169 HD
HETATM   10  O   UNL     1      -5.110   0.304 -31.018  1.00  0.00    -0.273 OA
BRANCH   8  11
HETATM   11  C   UNL     1      -4.639  -0.995 -33.629  1.00  0.00     0.036 A 
HETATM   12  C   UNL     1      -4.017  -2.243 -33.619  1.00  0.00     0.053 A 
HETATM   13  C   UNL     1      -4.670  -3.366 -34.144  1.00  0.00     0.042 A 
HETATM   14  C   UNL     1      -5.958  -3.263 -34.687  1.00  0.00    -0.040 A 
HETATM   15 CL   UNL     1      -3.837  -4.882 -34.092  1.00  0.00    -0.084 Cl
HETATM   16  C   UNL     1      -6.690  -4.457 -35.235  1.00  0.00     0.050 C 
HETATM   17  C   UNL     1      -6.568  -2.004 -34.716  1.00  0.00     0.011 A 
HETATM   18  C   UNL     1      -5.911  -0.882 -34.200  1.00  0.00     0.030 A 
ENDBRANCH   8  11
ENDBRANCH   6   7
ENDBRANCH   1   6
BRANCH   3  19
HETATM   19  N   UNL     1      -2.723   6.463 -33.312  1.00  0.00    -0.287 N 
HETATM   20  C   UNL     1      -2.003   7.251 -32.463  1.00  0.00     0.326 C 
HETATM   21  N   UNL     1      -1.727   6.740 -31.223  1.00  0.00    -0.309 N 
HETATM   22  O   UNL     1      -1.651   8.353 -32.882  1.00  0.00    -0.247 OA
HETATM   23  H   UNL     1      -1.955   5.759 -31.099  1.00  0.00     0.170 HD
HETATM   24  H   UNL     1      -2.870   6.849 -34.233  1.00  0.00     0.172 HD
BRANCH  21  25
HETATM   25  C   UNL     1      -1.088   7.384 -30.145  1.00  0.00     0.036 A 
HETATM   26  C   UNL     1       0.239   7.148 -29.775  1.00  0.00     0.032 A 
HETATM   27  C   UNL     1       0.817   7.861 -28.719  1.00  0.00     0.044 A 
HETATM   28  C   UNL     1       0.066   8.808 -28.035  1.00  0.00     0.116 A 
HETATM   29  F   UNL     1       0.627   9.495 -27.032  1.00  0.00    -0.206 F 
HETATM   30  C   UNL     1      -1.255   9.053 -28.383  1.00  0.00     0.044 A 
HETATM   31  C   UNL     1      -1.832   8.341 -29.437  1.00  0.00     0.032 A 
ENDBRANCH  21  25
ENDBRANCH   3  19
TORSDOF 5
ENDMDL
MODEL 4
REMARK VINA RESULT:      -9.2      1.852      2.049
REMARK  5 active torsions:
REMARK  status: ('A' for Active; 'I' for Inactive)
REMARK    1  A    between atoms: C_6  and  N_7 
REMARK       I    between atoms: N_7  and  C_8 
REMARK    2  A    between atoms: C_8  and  C_9 
REMARK    3  A    between atoms: C_9  and  C_10 
REMARK    4  A    between atoms: C_12  and  N_13 
REMARK       I    between atoms: N_13  and  C_14 
REMARK       I    between atoms: C_14  and  N_15 
REMARK    5  A    between atoms: N_15  and  C_16 
ROOT
HETATM    1  C   UNL     1      -4.437   3.066 -31.152  1.00  0.00     0.052 A 
HETATM    2  N   UNL     1      -5.677   2.586 -30.735  1.00  0.00    -0.228 NA
HETATM    3  C   UNL     1      -6.427   3.592 -30.351  1.00  0.00     0.174 A 
HETATM    4  S   UNL     1      -5.741   5.146 -30.456  1.00  0.00    -0.062 SA
HETATM    5  C   UNL     1      -4.301   4.443 -31.061  1.00  0.00     0.081 A 
ENDROOT
BRANCH   1   6
HETATM    6  C   UNL     1      -3.364   2.133 -31.624  1.00  0.00     0.163 C 
BRANCH   6   7
HETATM    7  C   UNL     1      -3.744   0.690 -31.931  1.00  0.00     0.227 C 
HETATM    8  N   UNL     1      -4.509   0.483 -33.061  1.00  0.00    -0.327 N 
HETATM    9  H   UNL     1      -4.906   1.318 -33.485  1.00  0.00     0.169 HD
HETATM   10  O   UNL     1      -3.301  -0.200 -31.203  1.00  0.00    -0.273 OA
BRANCH   8  11
HETATM   11  C   UNL     1      -4.942  -0.748 -33.598  1.00  0.00     0.036 A 
HETATM   12  C   UNL     1      -4.177  -1.913 -33.603  1.00  0.00     0.053 A 
HETATM   13  C   UNL     1      -4.701  -3.105 -34.122  1.00  0.00     0.042 A 
HETATM   14  C   UNL     1      -6.001  -3.154 -34.644  1.00  0.00    -0.040 A 
HETATM   15 CL   UNL     1      -3.694  -4.511 -34.089  1.00  0.00    -0.084 Cl
HETATM   16  C   UNL     1      -6.595  -4.424 -35.185  1.00  0.00     0.050 C 
HETATM   17  C   UNL     1      -6.755  -1.975 -34.659  1.00  0.00     0.011 A 
HETATM   18  C   UNL     1      -6.227  -0.784 -34.149  1.00  0.00     0.030 A 
ENDBRANCH   8  11
ENDBRANCH   6   7
ENDBRANCH   1   6
BRANCH   3  19
HETATM   19  N   UNL     1      -7.706   3.568 -29.889  1.00  0.00    -0.287 N 
HETATM   20  C   UNL     1      -8.829   3.247 -30.597  1.00  0.00     0.326 C 
HETATM   21  N   UNL     1      -8.647   2.773 -31.868  1.00  0.00    -0.309 N 
HETATM   22  O   UNL     1      -9.910   3.401 -30.033  1.00  0.00    -0.247 OA
HETATM   23  H   UNL     1      -7.687   2.560 -32.118  1.00  0.00     0.170 HD
HETATM   24  H   UNL     1      -7.871   3.871 -28.941  1.00  0.00     0.172 HD
BRANCH  21  25
HETATM   25  C   UNL     1      -9.635   2.463 -32.824  1.00  0.00     0.036 A 
HETATM   26  C   UNL     1     -10.127   3.381 -33.758  1.00  0.00     0.032 A 
HETATM   27  C   UNL     1     -11.077   2.985 -34.706  1.00  0.00     0.044 A 
HETATM   28  C   UNL     1     -11.532   1.673 -34.718  1.00  0.00     0.116 A 
HETATM   29  F   UNL     1     -12.433   1.296 -35.635  1.00  0.00    -0.206 F 
HETATM   30  C   UNL     1     -11.060   0.749 -33.797  1.00  0.00     0.044 A 
HETATM   31  C   UNL     1     -10.113   1.144 -32.850  1.00  0.00     0.032 A 
ENDBRANCH  21  25
ENDBRANCH   3  19
TORSDOF 5
ENDMDL
MODEL 5
REMARK VINA RESULT:      -9.1      5.396      7.997
REMARK  5 active torsions:
REMARK  status: ('A' for Active; 'I' for Inactive)
REMARK    1  A    between atoms: C_6  and  N_7 
REMARK       I    between atoms: N_7  and  C_8 
REMARK    2  A    between atoms: C_8  and  C_9 
REMARK    3  A    between atoms: C_9  and  C_10 
REMARK    4  A    between atoms: C_12  and  N_13 
REMARK       I    between atoms: N_13  and  C_14 
REMARK       I    between atoms: C_14  and  N_15 
REMARK    5  A    between atoms: N_15  and  C_16 
ROOT
HETATM    1  C   UNL     1      -4.709   4.926 -31.712  1.00  0.00     0.052 A 
HETATM    2  N   UNL     1      -3.516   4.284 -31.385  1.00  0.00    -0.228 NA
HETATM    3  C   UNL     1      -2.507   4.963 -31.879  1.00  0.00     0.174 A 
HETATM    4  S   UNL     1      -2.883   6.380 -32.743  1.00  0.00    -0.062 SA
HETATM    5  C   UNL     1      -4.546   6.084 -32.455  1.00  0.00     0.081 A 
ENDROOT
BRANCH   1   6
HETATM    6  C   UNL     1      -6.033   4.360 -31.295  1.00  0.00     0.163 C 
BRANCH   6   7
HETATM    7  C   UNL     1      -6.345   2.913 -31.654  1.00  0.00     0.227 C 
HETATM    8  N   UNL     1      -5.687   2.396 -32.751  1.00  0.00    -0.327 N 
HETATM    9  H   UNL     1      -5.195   3.072 -33.331  1.00  0.00     0.169 HD
HETATM   10  O   UNL     1      -7.105   2.278 -30.921  1.00  0.00    -0.273 OA
BRANCH   8  11
HETATM   11  C   UNL     1      -5.750   1.080 -33.256  1.00  0.00     0.036 A 
HETATM   12  C   UNL     1      -4.860   0.064 -32.909  1.00  0.00     0.053 A 
HETATM   13  C   UNL     1      -5.020  -1.228 -33.428  1.00  0.00     0.042 A 
HETATM   14  C   UNL     1      -6.073  -1.529 -34.302  1.00  0.00    -0.040 A 
HETATM   15 CL   UNL     1      -3.880  -2.437 -32.947  1.00  0.00    -0.084 Cl
HETATM   16  C   UNL     1      -6.280  -2.911 -34.854  1.00  0.00     0.050 C 
HETATM   17  C   UNL     1      -6.948  -0.499 -34.667  1.00  0.00     0.011 A 
HETATM   18  C   UNL     1      -6.782   0.792 -34.155  1.00  0.00     0.030 A 
ENDBRANCH   8  11
ENDBRANCH   6   7
ENDBRANCH   1   6
BRANCH   3  19
HETATM   19  N   UNL     1      -1.177   4.696 -31.781  1.00  0.00    -0.287 N 
HETATM   20  C   UNL     1      -0.312   5.170 -30.838  1.00  0.00     0.326 C 
HETATM   21  N   UNL     1      -0.852   5.884 -29.803  1.00  0.00    -0.309 N 
HETATM   22  O   UNL     1       0.881   4.911 -30.989  1.00  0.00    -0.247 OA
HETATM   23  H   UNL     1      -1.865   5.870 -29.749  1.00  0.00     0.170 HD
HETATM   24  H   UNL     1      -0.753   4.136 -32.506  1.00  0.00     0.172 HD
BRANCH  21  25
HETATM   25  C   UNL     1      -0.171   6.552 -28.764  1.00  0.00     0.036 A 
HETATM   26  C   UNL     1      -0.197   6.140 -27.429  1.00  0.00     0.032 A 
HETATM   27  C   UNL     1       0.543   6.829 -26.461  1.00  0.00     0.044 A 
HETATM   28  C   UNL     1       1.305   7.929 -26.832  1.00  0.00     0.116 A 
HETATM   29  F   UNL     1       2.019   8.580 -25.905  1.00  0.00    -0.206 F 
HETATM   30  C   UNL     1       1.340   8.357 -28.152  1.00  0.00     0.044 A 
HETATM   31  C   UNL     1       0.601   7.669 -29.117  1.00  0.00     0.032 A 
ENDBRANCH  21  25
ENDBRANCH   3  19
TORSDOF 5
ENDMDL
MODEL 6
REMARK VINA RESULT:      -8.9      1.943      2.403
REMARK  5 active torsions:
REMARK  status: ('A' for Active; 'I' for Inactive)
REMARK    1  A    between atoms: C_6  and  N_7 
REMARK       I    between atoms: N_7  and  C_8 
REMARK    2  A    between atoms: C_8  and  C_9 
REMARK    3  A    between atoms: C_9  and  C_10 
REMARK    4  A    between atoms: C_12  and  N_13 
REMARK       I    between atoms: N_13  and  C_14 
REMARK       I    between atoms: C_14  and  N_15 
REMARK    5  A    between atoms: N_15  and  C_16 
ROOT
HETATM    1  C   UNL     1      -6.213   3.280 -31.515  1.00  0.00     0.052 A 
HETATM    2  N   UNL     1      -6.921   3.185 -32.712  1.00  0.00    -0.228 NA
HETATM    3  C   UNL     1      -7.615   4.284 -32.896  1.00  0.00     0.174 A 
HETATM    4  S   UNL     1      -7.483   5.486 -31.700  1.00  0.00    -0.062 SA
HETATM    5  C   UNL     1      -6.409   4.471 -30.832  1.00  0.00     0.081 A 
ENDROOT
BRANCH   1   6
HETATM    6  C   UNL     1      -5.348   2.155 -31.035  1.00  0.00     0.163 C 
BRANCH   6   7
HETATM    7  C   UNL     1      -5.676   0.742 -31.498  1.00  0.00     0.227 C 
HETATM    8  N   UNL     1      -5.334   0.426 -32.798  1.00  0.00    -0.327 N 
HETATM    9  H   UNL     1      -5.063   1.210 -33.387  1.00  0.00     0.169 HD
HETATM   10  O   UNL     1      -6.162  -0.044 -30.684  1.00  0.00    -0.273 OA
BRANCH   8  11
HETATM   11  C   UNL     1      -5.471  -0.817 -33.450  1.00  0.00     0.036 A 
HETATM   12  C   UNL     1      -4.527  -1.842 -33.392  1.00  0.00     0.053 A 
HETATM   13  C   UNL     1      -4.762  -3.062 -34.038  1.00  0.00     0.042 A 
HETATM   14  C   UNL     1      -5.948  -3.283 -34.753  1.00  0.00    -0.040 A 
HETATM   15 CL   UNL     1      -3.547  -4.288 -33.917  1.00  0.00    -0.084 Cl
HETATM   16  C   UNL     1      -6.235  -4.591 -35.436  1.00  0.00     0.050 C 
HETATM   17  C   UNL     1      -6.881  -2.242 -34.829  1.00  0.00     0.011 A 
HETATM   18  C   UNL     1      -6.640  -1.021 -34.191  1.00  0.00     0.030 A 
ENDBRANCH   8  11
ENDBRANCH   6   7
ENDBRANCH   1   6
BRANCH   3  19
HETATM   19  N   UNL     1      -8.427   4.609 -33.938  1.00  0.00    -0.287 N 
HETATM   20  C   UNL     1      -9.669   4.106 -34.198  1.00  0.00     0.326 C 
HETATM   21  N   UNL     1     -10.219   3.286 -33.250  1.00  0.00    -0.309 N 
HETATM   22  O   UNL     1     -10.197   4.436 -35.259  1.00  0.00    -0.247 OA
HETATM   23  H   UNL     1      -9.717   3.246 -32.368  1.00  0.00     0.170 HD
HETATM   24  H   UNL     1      -8.069   5.245 -34.635  1.00  0.00     0.172 HD
BRANCH  21  25
HETATM   25  C   UNL     1     -11.433   2.574 -33.321  1.00  0.00     0.036 A 
HETATM   26  C   UNL     1     -11.531   1.246 -33.745  1.00  0.00     0.032 A 
HETATM   27  C   UNL     1     -12.768   0.592 -33.745  1.00  0.00     0.044 A 
HETATM   28  C   UNL     1     -13.904   1.269 -33.322  1.00  0.00     0.116 A 
HETATM   29  F   UNL     1     -15.085   0.636 -33.314  1.00  0.00    -0.206 F 
HETATM   30  C   UNL     1     -13.829   2.590 -32.903  1.00  0.00     0.044 A 
HETATM   31  C   UNL     1     -12.594   3.242 -32.903  1.00  0.00     0.032 A 
ENDBRANCH  21  25
ENDBRANCH   3  19
TORSDOF 5
ENDMDL
MODEL 7
REMARK VINA RESULT:      -8.3      3.647      5.727
REMARK  5 active torsions:
REMARK  status: ('A' for Active; 'I' for Inactive)
REMARK    1  A    between atoms: C_6  and  N_7 
REMARK       I    between atoms: N_7  and  C_8 
REMARK    2  A    between atoms: C_8  and  C_9 
REMARK    3  A    between atoms: C_9  and  C_10 
REMARK    4  A    between atoms: C_12  and  N_13 
REMARK       I    between atoms: N_13  and  C_14 
REMARK       I    between atoms: C_14  and  N_15 
REMARK    5  A    between atoms: N_15  and  C_16 
ROOT
HETATM    1  C   UNL     1      -9.201   3.607 -31.336  1.00  0.00     0.052 A 
HETATM    2  N   UNL     1      -7.829   3.775 -31.159  1.00  0.00    -0.228 NA
HETATM    3  C   UNL     1      -7.614   4.810 -30.382  1.00  0.00     0.174 A 
HETATM    4  S   UNL     1      -8.984   5.641 -29.810  1.00  0.00    -0.062 SA
HETATM    5  C   UNL     1      -9.978   4.543 -30.672  1.00  0.00     0.081 A 
ENDROOT
BRANCH   1   6
HETATM    6  C   UNL     1      -9.742   2.509 -32.201  1.00  0.00     0.163 C 
BRANCH   6   7
HETATM    7  C   UNL     1      -8.949   1.213 -32.305  1.00  0.00     0.227 C 
HETATM    8  N   UNL     1      -7.880   1.215 -33.177  1.00  0.00    -0.327 N 
HETATM    9  H   UNL     1      -7.824   2.012 -33.807  1.00  0.00     0.169 HD
HETATM   10  O   UNL     1      -9.262   0.274 -31.571  1.00  0.00    -0.273 OA
BRANCH   8  11
HETATM   11  C   UNL     1      -6.956   0.176 -33.414  1.00  0.00     0.036 A 
HETATM   12  C   UNL     1      -5.838  -0.076 -32.620  1.00  0.00     0.053 A 
HETATM   13  C   UNL     1      -4.993  -1.157 -32.904  1.00  0.00     0.042 A 
HETATM   14  C   UNL     1      -5.250  -2.008 -33.988  1.00  0.00    -0.040 A 
HETATM   15 CL   UNL     1      -3.629  -1.409 -31.870  1.00  0.00    -0.084 Cl
HETATM   16  C   UNL     1      -4.372  -3.187 -34.301  1.00  0.00     0.050 C 
HETATM   17  C   UNL     1      -6.359  -1.735 -34.797  1.00  0.00     0.011 A 
HETATM   18  C   UNL     1      -7.197  -0.651 -34.517  1.00  0.00     0.030 A 
ENDBRANCH   8  11
ENDBRANCH   6   7
ENDBRANCH   1   6
BRANCH   3  19
HETATM   19  N   UNL     1      -6.426   5.311 -29.947  1.00  0.00    -0.287 N 
HETATM   20  C   UNL     1      -5.270   5.422 -30.664  1.00  0.00     0.326 C 
HETATM   21  N   UNL     1      -5.336   5.124 -31.998  1.00  0.00    -0.309 N 
HETATM   22  O   UNL     1      -4.266   5.790 -30.057  1.00  0.00    -0.247 OA
HETATM   23  H   UNL     1      -6.272   4.991 -32.367  1.00  0.00     0.170 HD
HETATM   24  H   UNL     1      -6.354   5.581 -28.977  1.00  0.00     0.172 HD
BRANCH  21  25
HETATM   25  C   UNL     1      -4.276   5.071 -32.926  1.00  0.00     0.036 A 
HETATM   26  C   UNL     1      -4.418   5.368 -34.285  1.00  0.00     0.032 A 
HETATM   27  C   UNL     1      -3.307   5.337 -35.136  1.00  0.00     0.044 A 
HETATM   28  C   UNL     1      -2.058   5.009 -34.626  1.00  0.00     0.116 A 
HETATM   29  F   UNL     1      -0.996   4.991 -35.441  1.00  0.00    -0.206 F 
HETATM   30  C   UNL     1      -1.897   4.706 -33.281  1.00  0.00     0.044 A 
HETATM   31  C   UNL     1      -3.006   4.737 -32.432  1.00  0.00     0.032 A 
ENDBRANCH  21  25
ENDBRANCH   3  19
TORSDOF 5
ENDMDL
MODEL 8
REMARK VINA RESULT:      -8.3      5.791      9.012
REMARK  5 active torsions:
REMARK  status: ('A' for Active; 'I' for Inactive)
REMARK    1  A    between atoms: C_6  and  N_7 
REMARK       I    between atoms: N_7  and  C_8 
REMARK    2  A    between atoms: C_8  and  C_9 
REMARK    3  A    between atoms: C_9  and  C_10 
REMARK    4  A    between atoms: C_12  and  N_13 
REMARK       I    between atoms: N_13  and  C_14 
REMARK       I    between atoms: C_14  and  N_15 
REMARK    5  A    between atoms: N_15  and  C_16 
ROOT
HETATM    1  C   UNL     1      -2.416   4.724 -32.306  1.00  0.00     0.052 A 
HETATM    2  N   UNL     1      -3.295   3.801 -31.741  1.00  0.00    -0.228 NA
HETATM    3  C   UNL     1      -4.388   3.741 -32.464  1.00  0.00     0.174 A 
HETATM    4  S   UNL     1      -4.458   4.742 -33.838  1.00  0.00    -0.062 SA
HETATM    5  C   UNL     1      -2.895   5.333 -33.456  1.00  0.00     0.081 A 
ENDROOT
BRANCH   1   6
HETATM    6  C   UNL     1      -1.089   5.017 -31.676  1.00  0.00     0.163 C 
BRANCH   6   7
HETATM    7  C   UNL     1      -0.998   6.174 -30.689  1.00  0.00     0.227 C 
HETATM    8  N   UNL     1      -0.580   5.860 -29.411  1.00  0.00    -0.327 N 
HETATM    9  H   UNL     1      -0.548   4.868 -29.188  1.00  0.00     0.169 HD
HETATM   10  O   UNL     1      -1.235   7.312 -31.096  1.00  0.00    -0.273 OA
BRANCH   8  11
HETATM   11  C   UNL     1      -0.355   6.743 -28.334  1.00  0.00     0.036 A 
HETATM   12  C   UNL     1      -1.280   6.999 -27.324  1.00  0.00     0.053 A 
HETATM   13  C   UNL     1      -0.959   7.861 -26.267  1.00  0.00     0.042 A 
HETATM   14  C   UNL     1       0.296   8.482 -26.200  1.00  0.00    -0.040 A 
HETATM   15 CL   UNL     1      -2.157   8.127 -25.048  1.00  0.00    -0.084 Cl
HETATM   16  C   UNL     1       0.675   9.393 -25.066  1.00  0.00     0.050 C 
HETATM   17  C   UNL     1       1.213   8.241 -27.230  1.00  0.00     0.011 A 
HETATM   18  C   UNL     1       0.886   7.387 -28.289  1.00  0.00     0.030 A 
ENDBRANCH   8  11
ENDBRANCH   6   7
ENDBRANCH   1   6
BRANCH   3  19
HETATM   19  N   UNL     1      -5.488   2.962 -32.275  1.00  0.00    -0.287 N 
HETATM   20  C   UNL     1      -5.552   1.601 -32.351  1.00  0.00     0.326 C 
HETATM   21  N   UNL     1      -4.369   0.931 -32.503  1.00  0.00    -0.309 N 
HETATM   22  O   UNL     1      -6.666   1.087 -32.267  1.00  0.00    -0.247 OA
HETATM   23  H   UNL     1      -3.533   1.497 -32.395  1.00  0.00     0.170 HD
HETATM   24  H   UNL     1      -6.371   3.424 -32.117  1.00  0.00     0.172 HD
BRANCH  21  25
HETATM   25  C   UNL     1      -4.177  -0.452 -32.698  1.00  0.00     0.036 A 
HETATM   26  C   UNL     1      -4.715  -1.167 -33.772  1.00  0.00     0.032 A 
HETATM   27  C   UNL     1      -4.442  -2.531 -33.922  1.00  0.00     0.044 A 
HETATM   28  C   UNL     1      -3.634  -3.178 -32.996  1.00  0.00     0.116 A 
HETATM   29  F   UNL     1      -3.367  -4.481 -33.148  1.00  0.00    -0.206 F 
HETATM   30  C   UNL     1      -3.095  -2.487 -31.919  1.00  0.00     0.044 A 
HETATM   31  C   UNL     1      -3.368  -1.125 -31.770  1.00  0.00     0.032 A 
ENDBRANCH  21  25
ENDBRANCH   3  19
TORSDOF 5
ENDMDL
MODEL 9
REMARK VINA RESULT:      -8.2      6.309      8.761
REMARK  5 active torsions:
REMARK  status: ('A' for Active; 'I' for Inactive)
REMARK    1  A    between atoms: C_6  and  N_7 
REMARK       I    between atoms: N_7  and  C_8 
REMARK    2  A    between atoms: C_8  and  C_9 
REMARK    3  A    between atoms: C_9  and  C_10 
REMARK    4  A    between atoms: C_12  and  N_13 
REMARK       I    between atoms: N_13  and  C_14 
REMARK       I    between atoms: C_14  and  N_15 
REMARK    5  A    between atoms: N_15  and  C_16 
ROOT
HETATM    1  C   UNL     1      -1.872   7.331 -26.671  1.00  0.00     0.052 A 
HETATM    2  N   UNL     1      -1.472   6.435 -27.661  1.00  0.00    -0.228 NA
HETATM    3  C   UNL     1      -0.162   6.353 -27.670  1.00  0.00     0.174 A 
HETATM    4  S   UNL     1       0.676   7.303 -26.535  1.00  0.00    -0.062 SA
HETATM    5  C   UNL     1      -0.825   7.900 -25.963  1.00  0.00     0.081 A 
ENDROOT
BRANCH   1   6
HETATM    6  C   UNL     1      -3.321   7.641 -26.446  1.00  0.00     0.163 C 
BRANCH   6   7
HETATM    7  C   UNL     1      -4.331   7.168 -27.484  1.00  0.00     0.227 C 
HETATM    8  N   UNL     1      -3.831   6.865 -28.734  1.00  0.00    -0.327 N 
HETATM    9  H   UNL     1      -2.872   7.157 -28.910  1.00  0.00     0.169 HD
HETATM   10  O   UNL     1      -5.503   7.024 -27.136  1.00  0.00    -0.273 OA
BRANCH   8  11
HETATM   11  C   UNL     1      -4.534   6.354 -29.845  1.00  0.00     0.036 A 
HETATM   12  C   UNL     1      -5.301   5.190 -29.820  1.00  0.00     0.053 A 
HETATM   13  C   UNL     1      -6.002   4.776 -30.960  1.00  0.00     0.042 A 
HETATM   14  C   UNL     1      -5.949   5.518 -32.148  1.00  0.00    -0.040 A 
HETATM   15 CL   UNL     1      -6.936   3.324 -30.850  1.00  0.00    -0.084 Cl
HETATM   16  C   UNL     1      -6.709   5.108 -33.379  1.00  0.00     0.050 C 
HETATM   17  C   UNL     1      -5.158   6.672 -32.176  1.00  0.00     0.011 A 
HETATM   18  C   UNL     1      -4.452   7.079 -31.039  1.00  0.00     0.030 A 
ENDBRANCH   8  11
ENDBRANCH   6   7
ENDBRANCH   1   6
BRANCH   3  19
HETATM   19  N   UNL     1       0.634   5.588 -28.465  1.00  0.00    -0.287 N 
HETATM   20  C   UNL     1       0.399   5.232 -29.762  1.00  0.00     0.326 C 
HETATM   21  N   UNL     1      -0.679   5.806 -30.378  1.00  0.00    -0.309 N 
HETATM   22  O   UNL     1       1.180   4.433 -30.274  1.00  0.00    -0.247 OA
HETATM   23  H   UNL     1      -1.122   6.561 -29.863  1.00  0.00     0.170 HD
HETATM   24  H   UNL     1       1.462   5.182 -28.054  1.00  0.00     0.172 HD
BRANCH  21  25
HETATM   25  C   UNL     1      -1.183   5.538 -31.667  1.00  0.00     0.036 A 
HETATM   26  C   UNL     1      -1.973   4.426 -31.977  1.00  0.00     0.032 A 
HETATM   27  C   UNL     1      -2.473   4.253 -33.271  1.00  0.00     0.044 A 
HETATM   28  C   UNL     1      -2.183   5.190 -34.254  1.00  0.00     0.116 A 
HETATM   29  F   UNL     1      -2.673   5.025 -35.489  1.00  0.00    -0.206 F 
HETATM   30  C   UNL     1      -1.397   6.298 -33.968  1.00  0.00     0.044 A 
HETATM   31  C   UNL     1      -0.896   6.471 -32.675  1.00  0.00     0.032 A 
ENDBRANCH  21  25
ENDBRANCH   3  19
TORSDOF 5
ENDMDL
MODEL 10
REMARK VINA RESULT:      -8.2      3.904      7.123
REMARK  5 active torsions:
REMARK  status: ('A' for Active; 'I' for Inactive)
REMARK    1  A    between atoms: C_6  and  N_7 
REMARK       I    between atoms: N_7  and  C_8 
REMARK    2  A    between atoms: C_8  and  C_9 
REMARK    3  A    between atoms: C_9  and  C_10 
REMARK    4  A    between atoms: C_12  and  N_13 
REMARK       I    between atoms: N_13  and  C_14 
REMARK       I    between atoms: C_14  and  N_15 
REMARK    5  A    between atoms: N_15  and  C_16 
ROOT
HETATM    1  C   UNL     1      -8.162   4.927 -31.664  1.00  0.00     0.052 A 
HETATM    2  N   UNL     1      -7.791   3.592 -31.514  1.00  0.00    -0.228 NA
HETATM    3  C   UNL     1      -7.337   3.400 -30.298  1.00  0.00     0.174 A 
HETATM    4  S   UNL     1      -7.320   4.748 -29.261  1.00  0.00    -0.062 SA
HETATM    5  C   UNL     1      -7.967   5.701 -30.530  1.00  0.00     0.081 A 
ENDROOT
BRANCH   1   6
HETATM    6  C   UNL     1      -8.697   5.442 -32.966  1.00  0.00     0.163 C 
BRANCH   6   7
HETATM    7  C   UNL     1      -9.978   4.827 -33.515  1.00  0.00     0.227 C 
HETATM    8  N   UNL     1     -10.405   3.660 -32.916  1.00  0.00    -0.327 N 
HETATM    9  H   UNL     1      -9.738   3.214 -32.290  1.00  0.00     0.169 HD
HETATM   10  O   UNL     1     -10.583   5.430 -34.402  1.00  0.00    -0.273 OA
BRANCH   8  11
HETATM   11  C   UNL     1     -11.579   2.927 -33.190  1.00  0.00     0.036 A 
HETATM   12  C   UNL     1     -12.780   3.085 -32.500  1.00  0.00     0.053 A 
HETATM   13  C   UNL     1     -13.912   2.344 -32.865  1.00  0.00     0.042 A 
HETATM   14  C   UNL     1     -13.864   1.431 -33.928  1.00  0.00    -0.040 A 
HETATM   15 CL   UNL     1     -15.368   2.598 -31.967  1.00  0.00    -0.084 Cl
HETATM   16  C   UNL     1     -15.069   0.640 -34.355  1.00  0.00     0.050 C 
HETATM   17  C   UNL     1     -12.649   1.258 -34.601  1.00  0.00     0.011 A 
HETATM   18  C   UNL     1     -11.518   1.993 -34.229  1.00  0.00     0.030 A 
ENDBRANCH   8  11
ENDBRANCH   6   7
ENDBRANCH   1   6
BRANCH   3  19
HETATM   19  N   UNL     1      -6.887   2.246 -29.734  1.00  0.00    -0.287 N 
HETATM   20  C   UNL     1      -6.475   1.120 -30.386  1.00  0.00     0.326 C 
HETATM   21  N   UNL     1      -6.377   1.192 -31.749  1.00  0.00    -0.309 N 
HETATM   22  O   UNL     1      -6.216   0.136 -29.696  1.00  0.00    -0.247 OA
HETATM   23  H   UNL     1      -6.475   2.123 -32.142  1.00  0.00     0.170 HD
HETATM   24  H   UNL     1      -6.904   2.175 -28.727  1.00  0.00     0.172 HD
BRANCH  21  25
HETATM   25  C   UNL     1      -6.068   0.153 -32.650  1.00  0.00     0.036 A 
HETATM   26  C   UNL     1      -4.769  -0.299 -32.899  1.00  0.00     0.032 A 
HETATM   27  C   UNL     1      -4.547  -1.367 -33.774  1.00  0.00     0.044 A 
HETATM   28  C   UNL     1      -5.624  -1.980 -34.400  1.00  0.00     0.116 A 
HETATM   29  F   UNL     1      -5.408  -3.009 -35.230  1.00  0.00    -0.206 F 
HETATM   30  C   UNL     1      -6.921  -1.543 -34.171  1.00  0.00     0.044 A 
HETATM   31  C   UNL     1      -7.143  -0.476 -33.297  1.00  0.00     0.032 A 
ENDBRANCH  21  25
ENDBRANCH   3  19
TORSDOF 5
ENDMDL
