MODEL 1
REMARK VINA RESULT:     -10.1      0.000      0.000
REMARK  4 active torsions:
REMARK  status: ('A' for Active; 'I' for Inactive)
REMARK    1  A    between atoms: C_9  and  C_10 
REMARK    2  A    between atoms: C_20  and  C_21 
REMARK       I    between atoms: C_21  and  N_22 
REMARK    3  A    between atoms: N_22  and  C_23 
REMARK    4  A    between atoms: C_24  and  O_25 
ROOT
HETATM    1  C   UNL     1      -9.528   0.152 -32.826  1.00  0.00     0.070 C 
HETATM    2  C   UNL     1      -8.764   1.442 -32.987  1.00  0.00     0.037 C 
HETATM    3  N   UNL     1      -9.361   2.574 -32.436  1.00  0.00    -0.192 N 
HETATM    4  C   UNL     1      -8.991   3.825 -32.783  1.00  0.00     0.725 A 
HETATM    5  N   UNL     1      -7.841   4.010 -33.504  1.00  0.00    -0.084 N 
HETATM    6  N   UNL     1      -7.683   5.304 -33.851  1.00  0.00    -0.149 NA
HETATM    7  C   UNL     1      -8.750   5.850 -33.256  1.00  0.00     0.275 A 
HETATM    8  N   UNL     1      -9.575   4.979 -32.588  1.00  0.00    -0.054 NA
HETATM    9  C   UNL     1      -6.933   2.921 -33.893  1.00  0.00     0.203 C 
HETATM   10  C   UNL     1      -7.607   1.570 -33.687  1.00  0.00     0.062 C 
HETATM   11  H   UNL     1     -10.284   2.456 -32.026  1.00  0.00     0.184 HD
ENDROOT
BRANCH  10  12
HETATM   12  C   UNL     1      -7.019   0.452 -34.462  1.00  0.00     0.256 C 
HETATM   13  N   UNL     1      -6.456  -0.524 -33.680  1.00  0.00    -0.321 N 
HETATM   14  H   UNL     1      -6.313  -0.338 -32.692  1.00  0.00     0.169 HD
HETATM   15  O   UNL     1      -7.069   0.494 -35.685  1.00  0.00    -0.267 OA
BRANCH  13  16
HETATM   16  C   UNL     1      -6.073  -1.826 -34.077  1.00  0.00     0.068 A 
HETATM   17  C   UNL     1      -4.717  -2.180 -33.915  1.00  0.00     0.095 A 
HETATM   18  C   UNL     1      -4.295  -3.480 -34.213  1.00  0.00     0.039 A 
HETATM   19  C   UNL     1      -5.210  -4.422 -34.686  1.00  0.00     0.003 A 
HETATM   20  C   UNL     1      -6.545  -4.069 -34.865  1.00  0.00     0.002 A 
HETATM   21  C   UNL     1      -6.976  -2.776 -34.562  1.00  0.00     0.032 A 
BRANCH  17  22
HETATM   22  O   UNL     1      -3.894  -1.189 -33.427  1.00  0.00    -0.354 OA
HETATM   23  C   UNL     1      -3.304  -1.441 -32.156  1.00  0.00     0.210 C 
ENDBRANCH  17  22
ENDBRANCH  13  16
ENDBRANCH  10  12
BRANCH   9  24
HETATM   24  C   UNL     1      -5.621   3.042 -33.101  1.00  0.00    -0.017 A 
HETATM   25  C   UNL     1      -4.522   3.840 -33.545  1.00  0.00    -0.017 A 
HETATM   26  C   UNL     1      -3.379   3.946 -32.706  1.00  0.00    -0.025 A 
HETATM   27  C   UNL     1      -4.482   4.552 -34.770  1.00  0.00     0.013 A 
HETATM   28  C   UNL     1      -2.287   4.743 -33.085  1.00  0.00     0.012 A 
HETATM   29  C   UNL     1      -3.329   3.260 -31.486  1.00  0.00     0.012 A 
HETATM   30  C   UNL     1      -2.289   5.438 -34.290  1.00  0.00     0.001 A 
HETATM   31  C   UNL     1      -3.384   5.338 -35.135  1.00  0.00     0.001 A 
HETATM   32  C   UNL     1      -4.388   2.464 -31.069  1.00  0.00     0.002 A 
HETATM   33  C   UNL     1      -5.519   2.355 -31.868  1.00  0.00     0.010 A 
ENDBRANCH   9  24
TORSDOF 4
ENDMDL
MODEL 2
REMARK VINA RESULT:      -9.5      2.605      5.982
REMARK  4 active torsions:
REMARK  status: ('A' for Active; 'I' for Inactive)
REMARK    1  A    between atoms: C_9  and  C_10 
REMARK    2  A    between atoms: C_20  and  C_21 
REMARK       I    between atoms: C_21  and  N_22 
REMARK    3  A    between atoms: N_22  and  C_23 
REMARK    4  A    between atoms: C_24  and  O_25 
ROOT
HETATM    1  C   UNL     1      -7.104   3.760 -29.316  1.00  0.00     0.070 C 
HETATM    2  C   UNL     1      -6.068   3.403 -30.351  1.00  0.00     0.037 C 
HETATM    3  N   UNL     1      -4.834   4.037 -30.217  1.00  0.00    -0.192 N 
HETATM    4  C   UNL     1      -3.939   4.094 -31.226  1.00  0.00     0.725 A 
HETATM    5  N   UNL     1      -4.124   3.307 -32.333  1.00  0.00    -0.084 N 
HETATM    6  N   UNL     1      -3.199   3.569 -33.280  1.00  0.00    -0.149 NA
HETATM    7  C   UNL     1      -2.456   4.487 -32.651  1.00  0.00     0.275 A 
HETATM    8  N   UNL     1      -2.873   4.834 -31.390  1.00  0.00    -0.054 NA
HETATM    9  C   UNL     1      -5.226   2.346 -32.481  1.00  0.00     0.203 C 
HETATM   10  C   UNL     1      -6.289   2.590 -31.417  1.00  0.00     0.062 C 
HETATM   11  H   UNL     1      -4.748   4.729 -29.477  1.00  0.00     0.184 HD
ENDROOT
BRANCH  10  12
HETATM   12  C   UNL     1      -7.628   2.040 -31.731  1.00  0.00     0.256 C 
HETATM   13  N   UNL     1      -8.374   2.842 -32.556  1.00  0.00    -0.321 N 
HETATM   14  H   UNL     1      -8.059   3.792 -32.731  1.00  0.00     0.169 HD
HETATM   15  O   UNL     1      -7.953   0.965 -31.239  1.00  0.00    -0.267 OA
BRANCH  13  16
HETATM   16  C   UNL     1      -9.550   2.493 -33.259  1.00  0.00     0.068 A 
HETATM   17  C   UNL     1     -10.078   3.447 -34.153  1.00  0.00     0.095 A 
HETATM   18  C   UNL     1     -11.192   3.126 -34.937  1.00  0.00     0.039 A 
HETATM   19  C   UNL     1     -11.791   1.871 -34.823  1.00  0.00     0.003 A 
HETATM   20  C   UNL     1     -11.282   0.934 -33.927  1.00  0.00     0.002 A 
HETATM   21  C   UNL     1     -10.166   1.242 -33.147  1.00  0.00     0.032 A 
BRANCH  17  22
HETATM   22  O   UNL     1      -9.410   4.650 -34.208  1.00  0.00    -0.354 OA
HETATM   23  C   UNL     1      -9.978   5.637 -35.062  1.00  0.00     0.210 C 
ENDBRANCH  17  22
ENDBRANCH  13  16
ENDBRANCH  10  12
BRANCH   9  24
HETATM   24  C   UNL     1      -4.667   0.915 -32.424  1.00  0.00    -0.017 A 
HETATM   25  C   UNL     1      -5.156  -0.139 -33.257  1.00  0.00    -0.017 A 
HETATM   26  C   UNL     1      -4.525  -1.411 -33.181  1.00  0.00    -0.025 A 
HETATM   27  C   UNL     1      -6.233  -0.015 -34.170  1.00  0.00     0.013 A 
HETATM   28  C   UNL     1      -4.950  -2.468 -34.001  1.00  0.00     0.012 A 
HETATM   29  C   UNL     1      -3.464  -1.624 -32.291  1.00  0.00     0.012 A 
HETATM   30  C   UNL     1      -6.003  -2.305 -34.896  1.00  0.00     0.001 A 
HETATM   31  C   UNL     1      -6.647  -1.080 -34.977  1.00  0.00     0.001 A 
HETATM   32  C   UNL     1      -3.009  -0.606 -31.465  1.00  0.00     0.002 A 
HETATM   33  C   UNL     1      -3.603   0.648 -31.530  1.00  0.00     0.010 A 
ENDBRANCH   9  24
TORSDOF 4
ENDMDL
MODEL 3
REMARK VINA RESULT:      -9.3      2.091      5.270
REMARK  4 active torsions:
REMARK  status: ('A' for Active; 'I' for Inactive)
REMARK    1  A    between atoms: C_9  and  C_10 
REMARK    2  A    between atoms: C_20  and  C_21 
REMARK       I    between atoms: C_21  and  N_22 
REMARK    3  A    between atoms: N_22  and  C_23 
REMARK    4  A    between atoms: C_24  and  O_25 
ROOT
HETATM    1  C   UNL     1      -4.817   3.563 -33.472  1.00  0.00     0.070 C 
HETATM    2  C   UNL     1      -6.244   3.499 -32.986  1.00  0.00     0.037 C 
HETATM    3  N   UNL     1      -6.606   4.458 -32.043  1.00  0.00    -0.192 N 
HETATM    4  C   UNL     1      -7.706   4.331 -31.272  1.00  0.00     0.725 A 
HETATM    5  N   UNL     1      -8.633   3.369 -31.577  1.00  0.00    -0.084 N 
HETATM    6  N   UNL     1      -9.608   3.314 -30.645  1.00  0.00    -0.149 NA
HETATM    7  C   UNL     1      -9.231   4.312 -29.837  1.00  0.00     0.275 A 
HETATM    8  N   UNL     1      -8.074   4.962 -30.186  1.00  0.00    -0.054 NA
HETATM    9  C   UNL     1      -8.536   2.478 -32.742  1.00  0.00     0.203 C 
HETATM   10  C   UNL     1      -7.138   2.542 -33.344  1.00  0.00     0.062 C 
HETATM   11  H   UNL     1      -5.873   5.083 -31.713  1.00  0.00     0.184 HD
ENDROOT
BRANCH  10  12
HETATM   12  C   UNL     1      -6.765   1.381 -34.186  1.00  0.00     0.256 C 
HETATM   13  N   UNL     1      -6.208   0.345 -33.482  1.00  0.00    -0.321 N 
HETATM   14  H   UNL     1      -5.924   0.504 -32.519  1.00  0.00     0.169 HD
HETATM   15  O   UNL     1      -6.963   1.443 -35.394  1.00  0.00    -0.267 OA
BRANCH  13  16
HETATM   16  C   UNL     1      -6.007  -0.983 -33.924  1.00  0.00     0.068 A 
HETATM   17  C   UNL     1      -4.700  -1.505 -33.835  1.00  0.00     0.095 A 
HETATM   18  C   UNL     1      -4.457  -2.839 -34.181  1.00  0.00     0.039 A 
HETATM   19  C   UNL     1      -5.501  -3.648 -34.628  1.00  0.00     0.003 A 
HETATM   20  C   UNL     1      -6.790  -3.130 -34.734  1.00  0.00     0.002 A 
HETATM   21  C   UNL     1      -7.043  -1.802 -34.384  1.00  0.00     0.032 A 
BRANCH  17  22
HETATM   22  O   UNL     1      -3.739  -0.636 -33.368  1.00  0.00    -0.354 OA
HETATM   23  C   UNL     1      -3.055  -1.043 -32.187  1.00  0.00     0.210 C 
ENDBRANCH  17  22
ENDBRANCH  13  16
ENDBRANCH  10  12
BRANCH   9  24
HETATM   24  C   UNL     1      -9.624   2.852 -33.763  1.00  0.00    -0.017 A 
HETATM   25  C   UNL     1     -10.792   2.056 -33.972  1.00  0.00    -0.017 A 
HETATM   26  C   UNL     1     -11.775   2.524 -34.887  1.00  0.00    -0.025 A 
HETATM   27  C   UNL     1     -11.057   0.823 -33.327  1.00  0.00     0.013 A 
HETATM   28  C   UNL     1     -12.955   1.792 -35.102  1.00  0.00     0.012 A 
HETATM   29  C   UNL     1     -11.584   3.725 -35.580  1.00  0.00     0.012 A 
HETATM   30  C   UNL     1     -13.186   0.591 -34.440  1.00  0.00     0.001 A 
HETATM   31  C   UNL     1     -12.235   0.104 -33.556  1.00  0.00     0.001 A 
HETATM   32  C   UNL     1     -10.436   4.483 -35.395  1.00  0.00     0.002 A 
HETATM   33  C   UNL     1      -9.467   4.051 -34.498  1.00  0.00     0.010 A 
ENDBRANCH   9  24
TORSDOF 4
ENDMDL
MODEL 4
REMARK VINA RESULT:      -8.8      2.632      6.230
REMARK  4 active torsions:
REMARK  status: ('A' for Active; 'I' for Inactive)
REMARK    1  A    between atoms: C_9  and  C_10 
REMARK    2  A    between atoms: C_20  and  C_21 
REMARK       I    between atoms: C_21  and  N_22 
REMARK    3  A    between atoms: N_22  and  C_23 
REMARK    4  A    between atoms: C_24  and  O_25 
ROOT
HETATM    1  C   UNL     1      -9.805   5.654 -34.956  1.00  0.00     0.070 C 
HETATM    2  C   UNL     1     -10.029   4.204 -34.609  1.00  0.00     0.037 C 
HETATM    3  N   UNL     1     -11.028   3.555 -35.332  1.00  0.00    -0.192 N 
HETATM    4  C   UNL     1     -11.576   2.392 -34.920  1.00  0.00     0.725 A 
HETATM    5  N   UNL     1     -10.982   1.692 -33.903  1.00  0.00    -0.084 N 
HETATM    6  N   UNL     1     -11.717   0.617 -33.552  1.00  0.00    -0.149 NA
HETATM    7  C   UNL     1     -12.715   0.702 -34.440  1.00  0.00     0.275 A 
HETATM    8  N   UNL     1     -12.665   1.772 -35.298  1.00  0.00    -0.054 NA
HETATM    9  C   UNL     1      -9.731   2.103 -33.247  1.00  0.00     0.203 C 
HETATM   10  C   UNL     1      -9.390   3.542 -33.609  1.00  0.00     0.062 C 
HETATM   11  H   UNL     1     -11.565   4.118 -35.988  1.00  0.00     0.184 HD
ENDROOT
BRANCH  10  12
HETATM   12  C   UNL     1      -8.462   4.221 -32.675  1.00  0.00     0.256 C 
HETATM   13  N   UNL     1      -7.160   4.240 -33.109  1.00  0.00    -0.321 N 
HETATM   14  H   UNL     1      -6.898   3.655 -33.897  1.00  0.00     0.169 HD
HETATM   15  O   UNL     1      -8.908   4.678 -31.630  1.00  0.00    -0.267 OA
BRANCH  13  16
HETATM   16  C   UNL     1      -6.101   5.031 -32.608  1.00  0.00     0.068 A 
HETATM   17  C   UNL     1      -4.855   4.398 -32.414  1.00  0.00     0.095 A 
HETATM   18  C   UNL     1      -3.750   5.149 -31.999  1.00  0.00     0.039 A 
HETATM   19  C   UNL     1      -3.881   6.518 -31.762  1.00  0.00     0.003 A 
HETATM   20  C   UNL     1      -5.114   7.141 -31.936  1.00  0.00     0.002 A 
HETATM   21  C   UNL     1      -6.221   6.401 -32.357  1.00  0.00     0.032 A 
BRANCH  17  22
HETATM   22  O   UNL     1      -4.820   3.050 -32.689  1.00  0.00    -0.354 OA
HETATM   23  C   UNL     1      -3.657   2.356 -32.247  1.00  0.00     0.210 C 
ENDBRANCH  17  22
ENDBRANCH  13  16
ENDBRANCH  10  12
BRANCH   9  24
HETATM   24  C   UNL     1      -8.608   1.126 -33.631  1.00  0.00    -0.017 A 
HETATM   25  C   UNL     1      -7.639   0.655 -32.693  1.00  0.00    -0.017 A 
HETATM   26  C   UNL     1      -6.683  -0.303 -33.128  1.00  0.00    -0.025 A 
HETATM   27  C   UNL     1      -7.557   1.069 -31.340  1.00  0.00     0.013 A 
HETATM   28  C   UNL     1      -5.730  -0.818 -32.235  1.00  0.00     0.012 A 
HETATM   29  C   UNL     1      -6.683  -0.752 -34.455  1.00  0.00     0.012 A 
HETATM   30  C   UNL     1      -5.688  -0.398 -30.909  1.00  0.00     0.001 A 
HETATM   31  C   UNL     1      -6.598   0.549 -30.463  1.00  0.00     0.001 A 
HETATM   32  C   UNL     1      -7.609  -0.273 -35.372  1.00  0.00     0.002 A 
HETATM   33  C   UNL     1      -8.560   0.655 -34.966  1.00  0.00     0.010 A 
ENDBRANCH   9  24
TORSDOF 4
ENDMDL
MODEL 5
REMARK VINA RESULT:      -8.7      3.582      7.021
REMARK  4 active torsions:
REMARK  status: ('A' for Active; 'I' for Inactive)
REMARK    1  A    between atoms: C_9  and  C_10 
REMARK    2  A    between atoms: C_20  and  C_21 
REMARK       I    between atoms: C_21  and  N_22 
REMARK    3  A    between atoms: N_22  and  C_23 
REMARK    4  A    between atoms: C_24  and  O_25 
ROOT
HETATM    1  C   UNL     1     -10.136   5.505 -35.265  1.00  0.00     0.070 C 
HETATM    2  C   UNL     1     -10.273   4.075 -34.804  1.00  0.00     0.037 C 
HETATM    3  N   UNL     1     -11.261   3.326 -35.439  1.00  0.00    -0.192 N 
HETATM    4  C   UNL     1     -11.734   2.172 -34.922  1.00  0.00     0.725 A 
HETATM    5  N   UNL     1     -11.069   1.580 -33.881  1.00  0.00    -0.084 N 
HETATM    6  N   UNL     1     -11.736   0.499 -33.424  1.00  0.00    -0.149 NA
HETATM    7  C   UNL     1     -12.767   0.469 -34.277  1.00  0.00     0.275 A 
HETATM    8  N   UNL     1     -12.801   1.473 -35.212  1.00  0.00    -0.054 NA
HETATM    9  C   UNL     1      -9.820   2.099 -33.304  1.00  0.00     0.203 C 
HETATM   10  C   UNL     1      -9.566   3.523 -33.784  1.00  0.00     0.062 C 
HETATM   11  H   UNL     1     -11.848   3.811 -36.113  1.00  0.00     0.184 HD
ENDROOT
BRANCH  10  12
HETATM   12  C   UNL     1      -8.642   4.314 -32.938  1.00  0.00     0.256 C 
HETATM   13  N   UNL     1      -9.075   4.468 -31.645  1.00  0.00    -0.321 N 
HETATM   14  H   UNL     1     -10.031   4.213 -31.415  1.00  0.00     0.169 HD
HETATM   15  O   UNL     1      -7.618   4.759 -33.442  1.00  0.00    -0.267 OA
BRANCH  13  16
HETATM   16  C   UNL     1      -8.319   4.912 -30.535  1.00  0.00     0.068 A 
HETATM   17  C   UNL     1      -8.908   5.881 -29.697  1.00  0.00     0.095 A 
HETATM   18  C   UNL     1      -8.243   6.298 -28.539  1.00  0.00     0.039 A 
HETATM   19  C   UNL     1      -6.992   5.769 -28.221  1.00  0.00     0.003 A 
HETATM   20  C   UNL     1      -6.400   4.824 -29.057  1.00  0.00     0.002 A 
HETATM   21  C   UNL     1      -7.061   4.397 -30.210  1.00  0.00     0.032 A 
BRANCH  17  22
HETATM   22  O   UNL     1     -10.150   6.332 -30.085  1.00  0.00    -0.354 OA
HETATM   23  C   UNL     1     -10.244   7.723 -30.375  1.00  0.00     0.210 C 
ENDBRANCH  17  22
ENDBRANCH  13  16
ENDBRANCH  10  12
BRANCH   9  24
HETATM   24  C   UNL     1      -8.662   1.153 -33.659  1.00  0.00    -0.017 A 
HETATM   25  C   UNL     1      -7.703   0.711 -32.696  1.00  0.00    -0.017 A 
HETATM   26  C   UNL     1      -6.711  -0.222 -33.106  1.00  0.00    -0.025 A 
HETATM   27  C   UNL     1      -7.664   1.130 -31.343  1.00  0.00     0.013 A 
HETATM   28  C   UNL     1      -5.766  -0.708 -32.188  1.00  0.00     0.012 A 
HETATM   29  C   UNL     1      -6.667  -0.674 -34.431  1.00  0.00     0.012 A 
HETATM   30  C   UNL     1      -5.767  -0.284 -30.863  1.00  0.00     0.001 A 
HETATM   31  C   UNL     1      -6.713   0.638 -30.442  1.00  0.00     0.001 A 
HETATM   32  C   UNL     1      -7.584  -0.223 -35.371  1.00  0.00     0.002 A 
HETATM   33  C   UNL     1      -8.569   0.680 -34.990  1.00  0.00     0.010 A 
ENDBRANCH   9  24
TORSDOF 4
ENDMDL
MODEL 6
REMARK VINA RESULT:      -8.5      2.727      5.860
REMARK  4 active torsions:
REMARK  status: ('A' for Active; 'I' for Inactive)
REMARK    1  A    between atoms: C_9  and  C_10 
REMARK    2  A    between atoms: C_20  and  C_21 
REMARK       I    between atoms: C_21  and  N_22 
REMARK    3  A    between atoms: N_22  and  C_23 
REMARK    4  A    between atoms: C_24  and  O_25 
ROOT
HETATM    1  C   UNL     1      -7.548  -1.461 -34.427  1.00  0.00     0.070 C 
HETATM    2  C   UNL     1      -6.679  -0.567 -33.578  1.00  0.00     0.037 C 
HETATM    3  N   UNL     1      -5.317  -0.863 -33.584  1.00  0.00    -0.192 N 
HETATM    4  C   UNL     1      -4.474  -0.395 -32.639  1.00  0.00     0.725 A 
HETATM    5  N   UNL     1      -4.899   0.592 -31.789  1.00  0.00    -0.084 N 
HETATM    6  N   UNL     1      -3.970   0.861 -30.848  1.00  0.00    -0.149 NA
HETATM    7  C   UNL     1      -2.989   0.035 -31.227  1.00  0.00     0.275 A 
HETATM    8  N   UNL     1      -3.255  -0.749 -32.322  1.00  0.00    -0.054 NA
HETATM    9  C   UNL     1      -6.222   1.228 -31.868  1.00  0.00     0.203 C 
HETATM   10  C   UNL     1      -7.145   0.423 -32.774  1.00  0.00     0.062 C 
HETATM   11  H   UNL     1      -5.025  -1.686 -34.105  1.00  0.00     0.184 HD
ENDROOT
BRANCH  10  12
HETATM   12  C   UNL     1      -8.592   0.664 -32.568  1.00  0.00     0.256 C 
HETATM   13  N   UNL     1      -9.209   1.258 -33.639  1.00  0.00    -0.321 N 
HETATM   14  H   UNL     1      -8.635   1.648 -34.381  1.00  0.00     0.169 HD
HETATM   15  O   UNL     1      -9.097   0.340 -31.500  1.00  0.00    -0.267 OA
BRANCH  13  16
HETATM   16  C   UNL     1     -10.599   1.366 -33.877  1.00  0.00     0.068 A 
HETATM   17  C   UNL     1     -11.051   2.509 -34.568  1.00  0.00     0.095 A 
HETATM   18  C   UNL     1     -12.404   2.630 -34.904  1.00  0.00     0.039 A 
HETATM   19  C   UNL     1     -13.308   1.631 -34.543  1.00  0.00     0.003 A 
HETATM   20  C   UNL     1     -12.866   0.509 -33.845  1.00  0.00     0.002 A 
HETATM   21  C   UNL     1     -11.517   0.377 -33.512  1.00  0.00     0.032 A 
BRANCH  17  22
HETATM   22  O   UNL     1     -10.083   3.432 -34.896  1.00  0.00    -0.354 OA
HETATM   23  C   UNL     1     -10.541   4.764 -35.105  1.00  0.00     0.210 C 
ENDBRANCH  17  22
ENDBRANCH  13  16
ENDBRANCH  10  12
BRANCH   9  24
HETATM   24  C   UNL     1      -6.063   2.681 -32.346  1.00  0.00    -0.017 A 
HETATM   25  C   UNL     1      -6.011   3.789 -31.445  1.00  0.00    -0.017 A 
HETATM   26  C   UNL     1      -5.789   5.088 -31.980  1.00  0.00    -0.025 A 
HETATM   27  C   UNL     1      -6.160   3.696 -30.039  1.00  0.00     0.013 A 
HETATM   28  C   UNL     1      -5.700   6.203 -31.132  1.00  0.00     0.012 A 
HETATM   29  C   UNL     1      -5.649   5.271 -33.362  1.00  0.00     0.012 A 
HETATM   30  C   UNL     1      -5.839   6.071 -29.754  1.00  0.00     0.001 A 
HETATM   31  C   UNL     1      -6.073   4.818 -29.208  1.00  0.00     0.001 A 
HETATM   32  C   UNL     1      -5.725   4.196 -34.237  1.00  0.00     0.002 A 
HETATM   33  C   UNL     1      -5.931   2.916 -33.735  1.00  0.00     0.010 A 
ENDBRANCH   9  24
TORSDOF 4
ENDMDL
MODEL 7
REMARK VINA RESULT:      -8.3      2.326      3.199
REMARK  4 active torsions:
REMARK  status: ('A' for Active; 'I' for Inactive)
REMARK    1  A    between atoms: C_9  and  C_10 
REMARK    2  A    between atoms: C_20  and  C_21 
REMARK       I    between atoms: C_21  and  N_22 
REMARK    3  A    between atoms: N_22  and  C_23 
REMARK    4  A    between atoms: C_24  and  O_25 
ROOT
HETATM    1  C   UNL     1     -12.117   0.717 -33.656  1.00  0.00     0.070 C 
HETATM    2  C   UNL     1     -11.306   1.983 -33.780  1.00  0.00     0.037 C 
HETATM    3  N   UNL     1     -12.013   3.121 -34.164  1.00  0.00    -0.192 N 
HETATM    4  C   UNL     1     -11.399   4.223 -34.643  1.00  0.00     0.725 A 
HETATM    5  N   UNL     1     -10.039   4.339 -34.526  1.00  0.00    -0.084 N 
HETATM    6  N   UNL     1      -9.585   5.446 -35.149  1.00  0.00    -0.149 NA
HETATM    7  C   UNL     1     -10.738   5.979 -35.572  1.00  0.00     0.275 A 
HETATM    8  N   UNL     1     -11.872   5.263 -35.280  1.00  0.00    -0.054 NA
HETATM    9  C   UNL     1      -9.186   3.346 -33.855  1.00  0.00     0.203 C 
HETATM   10  C   UNL     1      -9.959   2.054 -33.622  1.00  0.00     0.062 C 
HETATM   11  H   UNL     1     -12.998   2.999 -34.388  1.00  0.00     0.184 HD
ENDROOT
BRANCH  10  12
HETATM   12  C   UNL     1      -9.120   0.852 -33.408  1.00  0.00     0.256 C 
HETATM   13  N   UNL     1      -8.140   0.688 -34.354  1.00  0.00    -0.321 N 
HETATM   14  H   UNL     1      -8.172   1.256 -35.196  1.00  0.00     0.169 HD
HETATM   15  O   UNL     1      -9.366   0.125 -32.453  1.00  0.00    -0.267 OA
BRANCH  13  16
HETATM   16  C   UNL     1      -7.019  -0.172 -34.288  1.00  0.00     0.068 A 
HETATM   17  C   UNL     1      -5.902   0.276 -33.552  1.00  0.00     0.095 A 
HETATM   18  C   UNL     1      -4.797  -0.566 -33.383  1.00  0.00     0.039 A 
HETATM   19  C   UNL     1      -4.791  -1.839 -33.954  1.00  0.00     0.003 A 
HETATM   20  C   UNL     1      -5.886  -2.275 -34.696  1.00  0.00     0.002 A 
HETATM   21  C   UNL     1      -6.996  -1.445 -34.864  1.00  0.00     0.032 A 
BRANCH  17  22
HETATM   22  O   UNL     1      -6.007   1.538 -33.014  1.00  0.00    -0.354 OA
HETATM   23  C   UNL     1      -5.844   1.627 -31.602  1.00  0.00     0.210 C 
ENDBRANCH  17  22
ENDBRANCH  13  16
ENDBRANCH  10  12
BRANCH   9  24
HETATM   24  C   UNL     1      -8.643   3.941 -32.546  1.00  0.00    -0.017 A 
HETATM   25  C   UNL     1      -7.427   4.689 -32.483  1.00  0.00    -0.017 A 
HETATM   26  C   UNL     1      -7.046   5.260 -31.237  1.00  0.00    -0.025 A 
HETATM   27  C   UNL     1      -6.561   4.917 -33.580  1.00  0.00     0.013 A 
HETATM   28  C   UNL     1      -5.876   6.029 -31.133  1.00  0.00     0.012 A 
HETATM   29  C   UNL     1      -7.838   5.069 -30.098  1.00  0.00     0.012 A 
HETATM   30  C   UNL     1      -5.056   6.242 -32.236  1.00  0.00     0.001 A 
HETATM   31  C   UNL     1      -5.396   5.682 -33.458  1.00  0.00     0.001 A 
HETATM   32  C   UNL     1      -9.005   4.319 -30.156  1.00  0.00     0.002 A 
HETATM   33  C   UNL     1      -9.403   3.761 -31.364  1.00  0.00     0.010 A 
ENDBRANCH   9  24
TORSDOF 4
ENDMDL
MODEL 8
REMARK VINA RESULT:      -8.1      5.281      9.038
REMARK  4 active torsions:
REMARK  status: ('A' for Active; 'I' for Inactive)
REMARK    1  A    between atoms: C_9  and  C_10 
REMARK    2  A    between atoms: C_20  and  C_21 
REMARK       I    between atoms: C_21  and  N_22 
REMARK    3  A    between atoms: N_22  and  C_23 
REMARK    4  A    between atoms: C_24  and  O_25 
ROOT
HETATM    1  C   UNL     1       0.192   6.686 -30.999  1.00  0.00     0.070 C 
HETATM    2  C   UNL     1      -1.103   6.274 -31.653  1.00  0.00     0.037 C 
HETATM    3  N   UNL     1      -0.981   5.592 -32.861  1.00  0.00    -0.192 N 
HETATM    4  C   UNL     1      -2.012   5.461 -33.723  1.00  0.00     0.725 A 
HETATM    5  N   UNL     1      -3.278   5.785 -33.309  1.00  0.00    -0.084 N 
HETATM    6  N   UNL     1      -4.163   5.696 -34.324  1.00  0.00    -0.149 NA
HETATM    7  C   UNL     1      -3.367   5.259 -35.306  1.00  0.00     0.275 A 
HETATM    8  N   UNL     1      -2.043   5.099 -34.979  1.00  0.00    -0.054 NA
HETATM    9  C   UNL     1      -3.607   6.227 -31.946  1.00  0.00     0.203 C 
HETATM   10  C   UNL     1      -2.338   6.592 -31.186  1.00  0.00     0.062 C 
HETATM   11  H   UNL     1      -0.042   5.479 -33.236  1.00  0.00     0.184 HD
ENDROOT
BRANCH  10  12
HETATM   12  C   UNL     1      -2.541   7.480 -30.017  1.00  0.00     0.256 C 
HETATM   13  N   UNL     1      -2.447   6.834 -28.811  1.00  0.00    -0.321 N 
HETATM   14  H   UNL     1      -2.439   5.818 -28.800  1.00  0.00     0.169 HD
HETATM   15  O   UNL     1      -2.779   8.666 -30.213  1.00  0.00    -0.267 OA
BRANCH  13  16
HETATM   16  C   UNL     1      -2.311   7.420 -27.532  1.00  0.00     0.068 A 
HETATM   17  C   UNL     1      -3.469   7.505 -26.732  1.00  0.00     0.095 A 
HETATM   18  C   UNL     1      -3.379   8.000 -25.426  1.00  0.00     0.039 A 
HETATM   19  C   UNL     1      -2.150   8.425 -24.921  1.00  0.00     0.003 A 
HETATM   20  C   UNL     1      -1.008   8.359 -25.716  1.00  0.00     0.002 A 
HETATM   21  C   UNL     1      -1.087   7.859 -27.017  1.00  0.00     0.032 A 
BRANCH  17  22
HETATM   22  O   UNL     1      -4.631   7.047 -27.311  1.00  0.00    -0.354 OA
HETATM   23  C   UNL     1      -5.094   5.779 -26.856  1.00  0.00     0.210 C 
ENDBRANCH  17  22
ENDBRANCH  13  16
ENDBRANCH  10  12
BRANCH   9  24
HETATM   24  C   UNL     1      -4.414   5.129 -31.234  1.00  0.00    -0.017 A 
HETATM   25  C   UNL     1      -5.645   5.391 -30.557  1.00  0.00    -0.017 A 
HETATM   26  C   UNL     1      -6.353   4.296 -29.990  1.00  0.00    -0.025 A 
HETATM   27  C   UNL     1      -6.228   6.674 -30.407  1.00  0.00     0.013 A 
HETATM   28  C   UNL     1      -7.582   4.500 -29.342  1.00  0.00     0.012 A 
HETATM   29  C   UNL     1      -5.838   2.997 -30.077  1.00  0.00     0.012 A 
HETATM   30  C   UNL     1      -8.130   5.774 -29.227  1.00  0.00     0.001 A 
HETATM   31  C   UNL     1      -7.451   6.861 -29.755  1.00  0.00     0.001 A 
HETATM   32  C   UNL     1      -4.628   2.749 -30.713  1.00  0.00     0.002 A 
HETATM   33  C   UNL     1      -3.924   3.802 -31.283  1.00  0.00     0.010 A 
ENDBRANCH   9  24
TORSDOF 4
ENDMDL
MODEL 9
REMARK VINA RESULT:      -8.1      2.317      3.647
REMARK  4 active torsions:
REMARK  status: ('A' for Active; 'I' for Inactive)
REMARK    1  A    between atoms: C_9  and  C_10 
REMARK    2  A    between atoms: C_20  and  C_21 
REMARK       I    between atoms: C_21  and  N_22 
REMARK    3  A    between atoms: N_22  and  C_23 
REMARK    4  A    between atoms: C_24  and  O_25 
ROOT
HETATM    1  C   UNL     1     -10.757   0.318 -33.159  1.00  0.00     0.070 C 
HETATM    2  C   UNL     1     -10.252   1.733 -33.294  1.00  0.00     0.037 C 
HETATM    3  N   UNL     1     -11.111   2.624 -33.934  1.00  0.00    -0.192 N 
HETATM    4  C   UNL     1     -10.685   3.804 -34.431  1.00  0.00     0.725 A 
HETATM    5  N   UNL     1      -9.440   4.266 -34.093  1.00  0.00    -0.084 N 
HETATM    6  N   UNL     1      -9.139   5.400 -34.760  1.00  0.00    -0.149 NA
HETATM    7  C   UNL     1     -10.275   5.592 -35.441  1.00  0.00     0.275 A 
HETATM    8  N   UNL     1     -11.248   4.640 -35.265  1.00  0.00    -0.054 NA
HETATM    9  C   UNL     1      -8.533   3.574 -33.165  1.00  0.00     0.203 C 
HETATM   10  C   UNL     1      -9.017   2.151 -32.913  1.00  0.00     0.062 C 
HETATM   11  H   UNL     1     -11.976   2.243 -34.311  1.00  0.00     0.184 HD
ENDROOT
BRANCH  10  12
HETATM   12  C   UNL     1      -7.984   1.218 -32.407  1.00  0.00     0.256 C 
HETATM   13  N   UNL     1      -7.025   0.902 -33.336  1.00  0.00    -0.321 N 
HETATM   14  H   UNL     1      -7.181   1.156 -34.307  1.00  0.00     0.169 HD
HETATM   15  O   UNL     1      -8.071   0.811 -31.255  1.00  0.00    -0.267 OA
BRANCH  13  16
HETATM   16  C   UNL     1      -5.776   0.281 -33.102  1.00  0.00     0.068 A 
HETATM   17  C   UNL     1      -5.634  -1.062 -33.509  1.00  0.00     0.095 A 
HETATM   18  C   UNL     1      -4.397  -1.702 -33.378  1.00  0.00     0.039 A 
HETATM   19  C   UNL     1      -3.309  -1.020 -32.832  1.00  0.00     0.003 A 
HETATM   20  C   UNL     1      -3.452   0.300 -32.413  1.00  0.00     0.002 A 
HETATM   21  C   UNL     1      -4.681   0.949 -32.546  1.00  0.00     0.032 A 
BRANCH  17  22
HETATM   22  O   UNL     1      -6.757  -1.645 -34.051  1.00  0.00    -0.354 OA
HETATM   23  C   UNL     1      -6.561  -2.910 -34.674  1.00  0.00     0.210 C 
ENDBRANCH  17  22
ENDBRANCH  13  16
ENDBRANCH  10  12
BRANCH   9  24
HETATM   24  C   UNL     1      -8.416   4.385 -31.865  1.00  0.00    -0.017 A 
HETATM   25  C   UNL     1      -7.159   4.780 -31.311  1.00  0.00    -0.017 A 
HETATM   26  C   UNL     1      -7.158   5.591 -30.143  1.00  0.00    -0.025 A 
HETATM   27  C   UNL     1      -5.895   4.428 -31.844  1.00  0.00     0.013 A 
HETATM   28  C   UNL     1      -5.948   6.030 -29.580  1.00  0.00     0.012 A 
HETATM   29  C   UNL     1      -8.365   5.971 -29.542  1.00  0.00     0.012 A 
HETATM   30  C   UNL     1      -4.725   5.674 -30.140  1.00  0.00     0.001 A 
HETATM   31  C   UNL     1      -4.698   4.869 -31.268  1.00  0.00     0.001 A 
HETATM   32  C   UNL     1      -9.584   5.564 -30.066  1.00  0.00     0.002 A 
HETATM   33  C   UNL     1      -9.610   4.780 -31.213  1.00  0.00     0.010 A 
ENDBRANCH   9  24
TORSDOF 4
ENDMDL
MODEL 10
REMARK VINA RESULT:      -7.9     15.730     17.498
REMARK  4 active torsions:
REMARK  status: ('A' for Active; 'I' for Inactive)
REMARK    1  A    between atoms: C_9  and  C_10 
REMARK    2  A    between atoms: C_20  and  C_21 
REMARK       I    between atoms: C_21  and  N_22 
REMARK    3  A    between atoms: N_22  and  C_23 
REMARK    4  A    between atoms: C_24  and  O_25 
ROOT
HETATM    1  C   UNL     1      -5.261 -13.911 -42.148  1.00  0.00     0.070 C 
HETATM    2  C   UNL     1      -6.239 -13.931 -41.000  1.00  0.00     0.037 C 
HETATM    3  N   UNL     1      -7.578 -14.095 -41.347  1.00  0.00    -0.192 N 
HETATM    4  C   UNL     1      -8.585 -13.796 -40.499  1.00  0.00     0.725 A 
HETATM    5  N   UNL     1      -8.303 -13.559 -39.179  1.00  0.00    -0.084 N 
HETATM    6  N   UNL     1      -9.406 -13.174 -38.504  1.00  0.00    -0.149 NA
HETATM    7  C   UNL     1     -10.327 -13.256 -39.471  1.00  0.00     0.275 A 
HETATM    8  N   UNL     1      -9.866 -13.637 -40.707  1.00  0.00    -0.054 NA
HETATM    9  C   UNL     1      -6.956 -13.658 -38.598  1.00  0.00     0.203 C 
HETATM   10  C   UNL     1      -5.906 -13.721 -39.700  1.00  0.00     0.062 C 
HETATM   11  H   UNL     1      -7.798 -14.128 -42.340  1.00  0.00     0.184 HD
ENDROOT
BRANCH  10  12
HETATM   12  C   UNL     1      -4.535 -13.346 -39.281  1.00  0.00     0.256 C 
HETATM   13  N   UNL     1      -3.687 -14.416 -39.150  1.00  0.00    -0.321 N 
HETATM   14  H   UNL     1      -4.077 -15.354 -39.156  1.00  0.00     0.169 HD
HETATM   15  O   UNL     1      -4.283 -12.164 -39.082  1.00  0.00    -0.267 OA
BRANCH  13  16
HETATM   16  C   UNL     1      -2.277 -14.385 -39.044  1.00  0.00     0.068 A 
HETATM   17  C   UNL     1      -1.720 -14.562 -37.761  1.00  0.00     0.095 A 
HETATM   18  C   UNL     1      -0.330 -14.623 -37.607  1.00  0.00     0.039 A 
HETATM   19  C   UNL     1       0.504 -14.493 -38.718  1.00  0.00     0.003 A 
HETATM   20  C   UNL     1      -0.044 -14.299 -39.984  1.00  0.00     0.002 A 
HETATM   21  C   UNL     1      -1.429 -14.245 -40.147  1.00  0.00     0.032 A 
BRANCH  17  22
HETATM   22  O   UNL     1      -2.622 -14.698 -36.730  1.00  0.00    -0.354 OA
HETATM   23  C   UNL     1      -2.180 -15.466 -35.615  1.00  0.00     0.210 C 
ENDBRANCH  17  22
ENDBRANCH  13  16
ENDBRANCH  10  12
BRANCH   9  24
HETATM   24  C   UNL     1      -6.891 -14.878 -37.664  1.00  0.00    -0.017 A 
HETATM   25  C   UNL     1      -6.950 -14.765 -36.241  1.00  0.00    -0.017 A 
HETATM   26  C   UNL     1      -6.955 -15.958 -35.466  1.00  0.00    -0.025 A 
HETATM   27  C   UNL     1      -7.009 -13.542 -35.528  1.00  0.00     0.013 A 
HETATM   28  C   UNL     1      -7.042 -15.899 -34.066  1.00  0.00     0.012 A 
HETATM   29  C   UNL     1      -6.881 -17.210 -36.091  1.00  0.00     0.012 A 
HETATM   30  C   UNL     1      -7.113 -14.679 -33.402  1.00  0.00     0.001 A 
HETATM   31  C   UNL     1      -7.092 -13.501 -34.132  1.00  0.00     0.001 A 
HETATM   32  C   UNL     1      -6.797 -17.315 -37.473  1.00  0.00     0.002 A 
HETATM   33  C   UNL     1      -6.802 -16.164 -38.250  1.00  0.00     0.010 A 
ENDBRANCH   9  24
TORSDOF 4
ENDMDL
