MODEL 1
REMARK VINA RESULT:      -7.8      0.000      0.000
REMARK  8 active torsions:
REMARK  status: ('A' for Active; 'I' for Inactive)
REMARK    1  A    between atoms: C_2  and  N_3 
REMARK    2  A    between atoms: N_3  and  C_5 
REMARK    3  A    between atoms: N_3  and  C_29 
REMARK    4  A    between atoms: C_5  and  C_6 
REMARK    5  A    between atoms: C_6  and  N_7 
REMARK       I    between atoms: N_7  and  C_8 
REMARK    6  A    between atoms: C_8  and  C_9 
REMARK    7  A    between atoms: C_9  and  O_10 
REMARK    8  A    between atoms: N_11  and  C_12 
ROOT
HETATM    1  C   UNL     1      -6.262   0.980 -33.300  1.00  0.00     0.256 C 
HETATM    2  N   UNL     1      -5.248   1.589 -32.412  1.00  0.00    -0.254 N 
HETATM    3  C   UNL     1      -4.003   0.987 -32.256  1.00  0.00     0.330 C 
HETATM    4  O   UNL     1      -3.026   1.494 -31.710  1.00  0.00    -0.246 OA
HETATM    5  N   UNL     1      -3.841  -0.281 -32.718  1.00  0.00    -0.308 N 
HETATM    6  C   UNL     1      -4.776  -1.028 -33.410  1.00  0.00     0.048 A 
HETATM    7  C   UNL     1      -5.989  -0.446 -33.732  1.00  0.00     0.034 A 
HETATM    8  C   UNL     1      -4.469  -2.332 -33.801  1.00  0.00     0.030 A 
HETATM    9  C   UNL     1      -5.395  -3.070 -34.536  1.00  0.00     0.002 A 
HETATM   10  C   UNL     1      -6.610  -2.493 -34.896  1.00  0.00     0.001 A 
HETATM   11  C   UNL     1      -6.902  -1.184 -34.508  1.00  0.00     0.015 A 
HETATM   12  H   UNL     1      -2.914  -0.659 -32.559  1.00  0.00     0.170 HD
ENDROOT
BRANCH   1  13
HETATM   13  C   UNL     1      -7.658   0.949 -32.502  1.00  0.00     0.279 C 
HETATM   14  N   UNL     1      -8.670   1.768 -33.005  1.00  0.00    -0.355 N 
HETATM   15  H   UNL     1      -8.523   2.056 -33.970  1.00  0.00     0.162 HD
HETATM   16  O   UNL     1      -7.826   0.333 -31.449  1.00  0.00    -0.268 OA
BRANCH  14  17
HETATM   17  C   UNL     1     -10.054   1.543 -32.607  1.00  0.00     0.150 C 
BRANCH  17  18
HETATM   18  C   UNL     1     -11.023   0.962 -33.663  1.00  0.00     0.254 C 
BRANCH  18  19
HETATM   19  N   UNL     1     -12.505   1.264 -33.430  1.00  0.00    -0.070 N 
HETATM   20  H   UNL     1     -12.558   1.473 -32.426  1.00  0.00     0.279 HD
BRANCH  19  21
HETATM   21  C   UNL     1     -13.449   0.107 -33.677  1.00  0.00     0.230 C 
HETATM   22  C   UNL     1     -14.795   0.598 -34.178  1.00  0.00     0.034 C 
ENDBRANCH  19  21
BRANCH  19  23
HETATM   23  C   UNL     1     -12.946   2.544 -34.118  1.00  0.00     0.230 C 
HETATM   24  C   UNL     1     -12.224   2.718 -35.444  1.00  0.00     0.034 C 
ENDBRANCH  19  23
ENDBRANCH  18  19
ENDBRANCH  17  18
ENDBRANCH  14  17
ENDBRANCH   1  13
BRANCH   1  25
HETATM   25  O   UNL     1      -6.278   1.721 -34.505  1.00  0.00    -0.359 OA
HETATM   26  H   UNL     1      -7.129   1.516 -34.926  1.00  0.00     0.213 HD
ENDBRANCH   1  25
BRANCH   2  27
HETATM   27  C   UNL     1      -5.539   2.865 -31.764  1.00  0.00     0.043 A 
HETATM   28  C   UNL     1      -5.753   2.969 -30.376  1.00  0.00     0.031 A 
HETATM   29  C   UNL     1      -5.973   4.207 -29.754  1.00  0.00     0.026 A 
HETATM   30  C   UNL     1      -5.981   5.373 -30.508  1.00  0.00     0.034 A 
HETATM   31 CL   UNL     1      -6.228   6.890 -29.744  1.00  0.00    -0.084 Cl
HETATM   32  C   UNL     1      -5.774   5.306 -31.879  1.00  0.00     0.026 A 
HETATM   33  C   UNL     1      -5.553   4.067 -32.495  1.00  0.00     0.031 A 
ENDBRANCH   2  27
TORSDOF 8
ENDMDL
MODEL 2
REMARK VINA RESULT:      -7.8      2.590      5.478
REMARK  8 active torsions:
REMARK  status: ('A' for Active; 'I' for Inactive)
REMARK    1  A    between atoms: C_2  and  N_3 
REMARK    2  A    between atoms: N_3  and  C_5 
REMARK    3  A    between atoms: N_3  and  C_29 
REMARK    4  A    between atoms: C_5  and  C_6 
REMARK    5  A    between atoms: C_6  and  N_7 
REMARK       I    between atoms: N_7  and  C_8 
REMARK    6  A    between atoms: C_8  and  C_9 
REMARK    7  A    between atoms: C_9  and  O_10 
REMARK    8  A    between atoms: N_11  and  C_12 
ROOT
HETATM    1  C   UNL     1      -6.361   2.584 -31.766  1.00  0.00     0.256 C 
HETATM    2  N   UNL     1      -5.791   3.672 -32.589  1.00  0.00    -0.254 N 
HETATM    3  C   UNL     1      -6.562   4.283 -33.573  1.00  0.00     0.330 C 
HETATM    4  O   UNL     1      -6.268   5.313 -34.176  1.00  0.00    -0.246 OA
HETATM    5  N   UNL     1      -7.732   3.692 -33.930  1.00  0.00    -0.308 N 
HETATM    6  C   UNL     1      -8.291   2.566 -33.356  1.00  0.00     0.048 A 
HETATM    7  C   UNL     1      -7.656   1.984 -32.274  1.00  0.00     0.034 A 
HETATM    8  C   UNL     1      -9.495   2.061 -33.851  1.00  0.00     0.030 A 
HETATM    9  C   UNL     1     -10.079   0.951 -33.245  1.00  0.00     0.002 A 
HETATM   10  C   UNL     1      -9.473   0.367 -32.136  1.00  0.00     0.001 A 
HETATM   11  C   UNL     1      -8.274   0.887 -31.644  1.00  0.00     0.015 A 
HETATM   12  H   UNL     1      -8.234   4.186 -34.660  1.00  0.00     0.170 HD
ENDROOT
BRANCH   1  13
HETATM   13  C   UNL     1      -5.292   1.384 -31.728  1.00  0.00     0.279 C 
HETATM   14  N   UNL     1      -5.186   0.620 -32.891  1.00  0.00    -0.355 N 
HETATM   15  H   UNL     1      -5.563   1.079 -33.719  1.00  0.00     0.162 HD
HETATM   16  O   UNL     1      -4.665   1.063 -30.718  1.00  0.00    -0.268 OA
BRANCH  14  17
HETATM   17  C   UNL     1      -4.019  -0.226 -33.103  1.00  0.00     0.150 C 
BRANCH  17  18
HETATM   18  C   UNL     1      -4.245  -1.752 -33.221  1.00  0.00     0.254 C 
BRANCH  18  19
HETATM   19  N   UNL     1      -5.223  -2.189 -34.314  1.00  0.00    -0.070 N 
HETATM   20  H   UNL     1      -4.970  -1.601 -35.117  1.00  0.00     0.279 HD
BRANCH  19  21
HETATM   21  C   UNL     1      -6.683  -1.915 -34.024  1.00  0.00     0.230 C 
HETATM   22  C   UNL     1      -7.239  -0.866 -34.970  1.00  0.00     0.034 C 
ENDBRANCH  19  21
BRANCH  19  23
HETATM   23  C   UNL     1      -4.968  -3.612 -34.777  1.00  0.00     0.230 C 
HETATM   24  C   UNL     1      -6.273  -4.301 -35.141  1.00  0.00     0.034 C 
ENDBRANCH  19  23
ENDBRANCH  18  19
ENDBRANCH  17  18
ENDBRANCH  14  17
ENDBRANCH   1  13
BRANCH   1  25
HETATM   25  O   UNL     1      -6.693   3.130 -30.503  1.00  0.00    -0.359 OA
HETATM   26  H   UNL     1      -5.957   2.890 -29.915  1.00  0.00     0.213 HD
ENDBRANCH   1  25
BRANCH   2  27
HETATM   27  C   UNL     1      -4.440   4.149 -32.305  1.00  0.00     0.043 A 
HETATM   28  C   UNL     1      -3.343   3.827 -33.129  1.00  0.00     0.031 A 
HETATM   29  C   UNL     1      -2.060   4.339 -32.883  1.00  0.00     0.026 A 
HETATM   30  C   UNL     1      -1.845   5.187 -31.805  1.00  0.00     0.034 A 
HETATM   31 CL   UNL     1      -0.279   5.831 -31.516  1.00  0.00    -0.084 Cl
HETATM   32  C   UNL     1      -2.902   5.525 -30.973  1.00  0.00     0.026 A 
HETATM   33  C   UNL     1      -4.183   5.013 -31.225  1.00  0.00     0.031 A 
ENDBRANCH   2  27
TORSDOF 8
ENDMDL
MODEL 3
REMARK VINA RESULT:      -7.8      2.209      6.140
REMARK  8 active torsions:
REMARK  status: ('A' for Active; 'I' for Inactive)
REMARK    1  A    between atoms: C_2  and  N_3 
REMARK    2  A    between atoms: N_3  and  C_5 
REMARK    3  A    between atoms: N_3  and  C_29 
REMARK    4  A    between atoms: C_5  and  C_6 
REMARK    5  A    between atoms: C_6  and  N_7 
REMARK       I    between atoms: N_7  and  C_8 
REMARK    6  A    between atoms: C_8  and  C_9 
REMARK    7  A    between atoms: C_9  and  O_10 
REMARK    8  A    between atoms: N_11  and  C_12 
ROOT
HETATM    1  C   UNL     1      -9.608   1.954 -32.985  1.00  0.00     0.256 C 
HETATM    2  N   UNL     1      -8.809   3.156 -33.310  1.00  0.00    -0.254 N 
HETATM    3  C   UNL     1      -9.408   4.247 -33.931  1.00  0.00     0.330 C 
HETATM    4  O   UNL     1      -8.902   5.359 -34.070  1.00  0.00    -0.246 OA
HETATM    5  N   UNL     1     -10.650   4.083 -34.459  1.00  0.00    -0.308 N 
HETATM    6  C   UNL     1     -11.433   2.947 -34.378  1.00  0.00     0.048 A 
HETATM    7  C   UNL     1     -10.966   1.867 -33.650  1.00  0.00     0.034 A 
HETATM    8  C   UNL     1     -12.684   2.922 -34.995  1.00  0.00     0.030 A 
HETATM    9  C   UNL     1     -13.491   1.792 -34.876  1.00  0.00     0.002 A 
HETATM   10  C   UNL     1     -13.054   0.705 -34.124  1.00  0.00     0.001 A 
HETATM   11  C   UNL     1     -11.804   0.746 -33.503  1.00  0.00     0.015 A 
HETATM   12  H   UNL     1     -11.018   4.916 -34.906  1.00  0.00     0.170 HD
ENDROOT
BRANCH   1  13
HETATM   13  C   UNL     1      -8.781   0.666 -33.478  1.00  0.00     0.279 C 
HETATM   14  N   UNL     1      -8.526   0.588 -34.848  1.00  0.00    -0.355 N 
HETATM   15  H   UNL     1      -8.620   1.478 -35.333  1.00  0.00     0.162 HD
HETATM   16  O   UNL     1      -8.468  -0.266 -32.736  1.00  0.00    -0.268 OA
BRANCH  14  17
HETATM   17  C   UNL     1      -7.491  -0.308 -35.346  1.00  0.00     0.150 C 
BRANCH  17  18
HETATM   18  C   UNL     1      -6.139  -0.337 -34.596  1.00  0.00     0.254 C 
BRANCH  18  19
HETATM   19  N   UNL     1      -5.806  -1.654 -33.892  1.00  0.00    -0.070 N 
HETATM   20  H   UNL     1      -6.700  -1.941 -33.474  1.00  0.00     0.279 HD
BRANCH  19  21
HETATM   21  C   UNL     1      -4.816  -1.548 -32.754  1.00  0.00     0.230 C 
HETATM   22  C   UNL     1      -4.980  -0.236 -32.008  1.00  0.00     0.034 C 
ENDBRANCH  19  21
BRANCH  19  23
HETATM   23  C   UNL     1      -5.464  -2.761 -34.874  1.00  0.00     0.230 C 
HETATM   24  C   UNL     1      -6.544  -3.829 -34.878  1.00  0.00     0.034 C 
ENDBRANCH  19  23
ENDBRANCH  18  19
ENDBRANCH  17  18
ENDBRANCH  14  17
ENDBRANCH   1  13
BRANCH   1  25
HETATM   25  O   UNL     1      -9.891   1.990 -31.600  1.00  0.00    -0.359 OA
HETATM   26  H   UNL     1     -10.699   1.461 -31.485  1.00  0.00     0.213 HD
ENDBRANCH   1  25
BRANCH   2  27
HETATM   27  C   UNL     1      -7.408   3.214 -32.903  1.00  0.00     0.043 A 
HETATM   28  C   UNL     1      -6.356   3.240 -33.838  1.00  0.00     0.031 A 
HETATM   29  C   UNL     1      -5.016   3.356 -33.439  1.00  0.00     0.026 A 
HETATM   30  C   UNL     1      -4.697   3.451 -32.091  1.00  0.00     0.034 A 
HETATM   31 CL   UNL     1      -3.059   3.615 -31.603  1.00  0.00    -0.084 Cl
HETATM   32  C   UNL     1      -5.709   3.428 -31.142  1.00  0.00     0.026 A 
HETATM   33  C   UNL     1      -7.047   3.315 -31.547  1.00  0.00     0.031 A 
ENDBRANCH   2  27
TORSDOF 8
ENDMDL
MODEL 4
REMARK VINA RESULT:      -7.7      2.787      6.424
REMARK  8 active torsions:
REMARK  status: ('A' for Active; 'I' for Inactive)
REMARK    1  A    between atoms: C_2  and  N_3 
REMARK    2  A    between atoms: N_3  and  C_5 
REMARK    3  A    between atoms: N_3  and  C_29 
REMARK    4  A    between atoms: C_5  and  C_6 
REMARK    5  A    between atoms: C_6  and  N_7 
REMARK       I    between atoms: N_7  and  C_8 
REMARK    6  A    between atoms: C_8  and  C_9 
REMARK    7  A    between atoms: C_9  and  O_10 
REMARK    8  A    between atoms: N_11  and  C_12 
ROOT
HETATM    1  C   UNL     1      -6.919   0.789 -32.103  1.00  0.00     0.256 C 
HETATM    2  N   UNL     1      -7.631   0.512 -33.369  1.00  0.00    -0.254 N 
HETATM    3  C   UNL     1      -7.098  -0.385 -34.289  1.00  0.00     0.330 C 
HETATM    4  O   UNL     1      -7.685  -0.838 -35.270  1.00  0.00    -0.246 OA
HETATM    5  N   UNL     1      -5.811  -0.788 -34.121  1.00  0.00    -0.308 N 
HETATM    6  C   UNL     1      -4.978  -0.457 -33.069  1.00  0.00     0.048 A 
HETATM    7  C   UNL     1      -5.482   0.315 -32.038  1.00  0.00     0.034 A 
HETATM    8  C   UNL     1      -3.666  -0.933 -33.048  1.00  0.00     0.030 A 
HETATM    9  C   UNL     1      -2.840  -0.634 -31.966  1.00  0.00     0.002 A 
HETATM   10  C   UNL     1      -3.335   0.117 -30.903  1.00  0.00     0.001 A 
HETATM   11  C   UNL     1      -4.653   0.579 -30.931  1.00  0.00     0.015 A 
HETATM   12  H   UNL     1      -5.488  -1.431 -34.835  1.00  0.00     0.170 HD
ENDROOT
BRANCH   1  13
HETATM   13  C   UNL     1      -6.877   2.384 -31.901  1.00  0.00     0.279 C 
HETATM   14  N   UNL     1      -6.004   3.085 -32.734  1.00  0.00    -0.355 N 
HETATM   15  H   UNL     1      -5.723   2.565 -33.563  1.00  0.00     0.162 HD
HETATM   16  O   UNL     1      -7.484   2.972 -31.005  1.00  0.00    -0.268 OA
BRANCH  14  17
HETATM   17  C   UNL     1      -6.155   4.525 -32.901  1.00  0.00     0.150 C 
BRANCH  17  18
HETATM   18  C   UNL     1      -5.191   5.244 -33.873  1.00  0.00     0.254 C 
BRANCH  18  19
HETATM   19  N   UNL     1      -3.701   5.076 -33.565  1.00  0.00    -0.070 N 
HETATM   20  H   UNL     1      -3.504   4.105 -33.837  1.00  0.00     0.279 HD
BRANCH  19  21
HETATM   21  C   UNL     1      -3.323   5.198 -32.106  1.00  0.00     0.230 C 
HETATM   22  C   UNL     1      -2.706   3.910 -31.592  1.00  0.00     0.034 C 
ENDBRANCH  19  21
BRANCH  19  23
HETATM   23  C   UNL     1      -2.828   5.920 -34.476  1.00  0.00     0.230 C 
HETATM   24  C   UNL     1      -1.597   5.143 -34.912  1.00  0.00     0.034 C 
ENDBRANCH  19  23
ENDBRANCH  18  19
ENDBRANCH  17  18
ENDBRANCH  14  17
ENDBRANCH   1  13
BRANCH   1  25
HETATM   25  O   UNL     1      -7.577   0.073 -31.075  1.00  0.00    -0.359 OA
HETATM   26  H   UNL     1      -7.388   0.560 -30.256  1.00  0.00     0.213 HD
ENDBRANCH   1  25
BRANCH   2  27
HETATM   27  C   UNL     1      -8.932   1.131 -33.607  1.00  0.00     0.043 A 
HETATM   28  C   UNL     1      -9.067   2.355 -34.289  1.00  0.00     0.031 A 
HETATM   29  C   UNL     1     -10.325   2.912 -34.565  1.00  0.00     0.026 A 
HETATM   30  C   UNL     1     -11.480   2.253 -34.166  1.00  0.00     0.034 A 
HETATM   31 CL   UNL     1     -13.020   2.923 -34.523  1.00  0.00    -0.084 Cl
HETATM   32  C   UNL     1     -11.384   1.044 -33.492  1.00  0.00     0.026 A 
HETATM   33  C   UNL     1     -10.124   0.492 -33.220  1.00  0.00     0.031 A 
ENDBRANCH   2  27
TORSDOF 8
ENDMDL
MODEL 5
REMARK VINA RESULT:      -7.5      2.877      6.431
REMARK  8 active torsions:
REMARK  status: ('A' for Active; 'I' for Inactive)
REMARK    1  A    between atoms: C_2  and  N_3 
REMARK    2  A    between atoms: N_3  and  C_5 
REMARK    3  A    between atoms: N_3  and  C_29 
REMARK    4  A    between atoms: C_5  and  C_6 
REMARK    5  A    between atoms: C_6  and  N_7 
REMARK       I    between atoms: N_7  and  C_8 
REMARK    6  A    between atoms: C_8  and  C_9 
REMARK    7  A    between atoms: C_9  and  O_10 
REMARK    8  A    between atoms: N_11  and  C_12 
ROOT
HETATM    1  C   UNL     1      -6.662   0.736 -31.829  1.00  0.00     0.256 C 
HETATM    2  N   UNL     1      -7.812   1.291 -32.574  1.00  0.00    -0.254 N 
HETATM    3  C   UNL     1      -8.301   0.633 -33.699  1.00  0.00     0.330 C 
HETATM    4  O   UNL     1      -9.357   0.887 -34.275  1.00  0.00    -0.246 OA
HETATM    5  N   UNL     1      -7.549  -0.364 -34.236  1.00  0.00    -0.308 N 
HETATM    6  C   UNL     1      -6.361  -0.858 -33.732  1.00  0.00     0.048 A 
HETATM    7  C   UNL     1      -5.882  -0.353 -32.537  1.00  0.00     0.034 A 
HETATM    8  C   UNL     1      -5.688  -1.874 -34.414  1.00  0.00     0.030 A 
HETATM    9  C   UNL     1      -4.513  -2.401 -33.883  1.00  0.00     0.002 A 
HETATM   10  C   UNL     1      -4.029  -1.928 -32.666  1.00  0.00     0.001 A 
HETATM   11  C   UNL     1      -4.715  -0.919 -31.989  1.00  0.00     0.015 A 
HETATM   12  H   UNL     1      -7.962  -0.789 -35.059  1.00  0.00     0.170 HD
ENDROOT
BRANCH   1  13
HETATM   13  C   UNL     1      -5.622   1.934 -31.565  1.00  0.00     0.279 C 
HETATM   14  N   UNL     1      -4.954   2.426 -32.686  1.00  0.00    -0.355 N 
HETATM   15  H   UNL     1      -5.406   2.190 -33.568  1.00  0.00     0.162 HD
HETATM   16  O   UNL     1      -5.331   2.347 -30.441  1.00  0.00    -0.268 OA
BRANCH  14  17
HETATM   17  C   UNL     1      -4.294   3.723 -32.631  1.00  0.00     0.150 C 
BRANCH  17  18
HETATM   18  C   UNL     1      -2.759   3.762 -32.817  1.00  0.00     0.254 C 
BRANCH  18  19
HETATM   19  N   UNL     1      -2.085   5.083 -32.444  1.00  0.00    -0.070 N 
HETATM   20  H   UNL     1      -2.870   5.696 -32.191  1.00  0.00     0.279 HD
BRANCH  19  21
HETATM   21  C   UNL     1      -1.346   5.775 -33.569  1.00  0.00     0.230 C 
HETATM   22  C   UNL     1      -1.662   5.130 -34.906  1.00  0.00     0.034 C 
ENDBRANCH  19  21
BRANCH  19  23
HETATM   23  C   UNL     1      -1.258   4.968 -31.175  1.00  0.00     0.230 C 
HETATM   24  C   UNL     1       0.041   5.746 -31.308  1.00  0.00     0.034 C 
ENDBRANCH  19  23
ENDBRANCH  18  19
ENDBRANCH  17  18
ENDBRANCH  14  17
ENDBRANCH   1  13
BRANCH   1  25
HETATM   25  O   UNL     1      -7.166   0.113 -30.663  1.00  0.00    -0.359 OA
HETATM   26  H   UNL     1      -8.109   0.351 -30.629  1.00  0.00     0.213 HD
ENDBRANCH   1  25
BRANCH   2  27
HETATM   27  C   UNL     1      -8.475   2.493 -32.075  1.00  0.00     0.043 A 
HETATM   28  C   UNL     1      -9.289   2.477 -30.926  1.00  0.00     0.031 A 
HETATM   29  C   UNL     1      -9.873   3.647 -30.419  1.00  0.00     0.026 A 
HETATM   30  C   UNL     1      -9.654   4.864 -31.050  1.00  0.00     0.034 A 
HETATM   31 CL   UNL     1     -10.350   6.300 -30.417  1.00  0.00    -0.084 Cl
HETATM   32  C   UNL     1      -8.857   4.916 -32.185  1.00  0.00     0.026 A 
HETATM   33  C   UNL     1      -8.273   3.744 -32.686  1.00  0.00     0.031 A 
ENDBRANCH   2  27
TORSDOF 8
ENDMDL
MODEL 6
REMARK VINA RESULT:      -7.5      2.870      7.271
REMARK  8 active torsions:
REMARK  status: ('A' for Active; 'I' for Inactive)
REMARK    1  A    between atoms: C_2  and  N_3 
REMARK    2  A    between atoms: N_3  and  C_5 
REMARK    3  A    between atoms: N_3  and  C_29 
REMARK    4  A    between atoms: C_5  and  C_6 
REMARK    5  A    between atoms: C_6  and  N_7 
REMARK       I    between atoms: N_7  and  C_8 
REMARK    6  A    between atoms: C_8  and  C_9 
REMARK    7  A    between atoms: C_9  and  O_10 
REMARK    8  A    between atoms: N_11  and  C_12 
ROOT
HETATM    1  C   UNL     1      -8.838   2.052 -33.989  1.00  0.00     0.256 C 
HETATM    2  N   UNL     1      -8.836   0.814 -33.182  1.00  0.00    -0.254 N 
HETATM    3  C   UNL     1     -10.036   0.189 -32.856  1.00  0.00     0.330 C 
HETATM    4  O   UNL     1     -10.150  -0.933 -32.366  1.00  0.00    -0.246 OA
HETATM    5  N   UNL     1     -11.192   0.873 -33.065  1.00  0.00    -0.308 N 
HETATM    6  C   UNL     1     -11.315   2.118 -33.651  1.00  0.00     0.048 A 
HETATM    7  C   UNL     1     -10.179   2.742 -34.134  1.00  0.00     0.034 A 
HETATM    8  C   UNL     1     -12.575   2.705 -33.776  1.00  0.00     0.030 A 
HETATM    9  C   UNL     1     -12.703   3.941 -34.405  1.00  0.00     0.002 A 
HETATM   10  C   UNL     1     -11.577   4.573 -34.926  1.00  0.00     0.001 A 
HETATM   11  C   UNL     1     -10.322   3.972 -34.803  1.00  0.00     0.015 A 
HETATM   12  H   UNL     1     -12.025   0.361 -32.793  1.00  0.00     0.170 HD
ENDROOT
BRANCH   1  13
HETATM   13  C   UNL     1      -7.863   3.110 -33.270  1.00  0.00     0.279 C 
HETATM   14  N   UNL     1      -6.729   3.488 -33.990  1.00  0.00    -0.355 N 
HETATM   15  H   UNL     1      -6.796   3.296 -34.988  1.00  0.00     0.162 HD
HETATM   16  O   UNL     1      -8.021   3.502 -32.113  1.00  0.00    -0.268 OA
BRANCH  14  17
HETATM   17  C   UNL     1      -5.995   4.689 -33.615  1.00  0.00     0.150 C 
BRANCH  17  18
HETATM   18  C   UNL     1      -4.513   4.793 -34.042  1.00  0.00     0.254 C 
BRANCH  18  19
HETATM   19  N   UNL     1      -3.505   4.910 -32.896  1.00  0.00    -0.070 N 
HETATM   20  H   UNL     1      -3.725   5.818 -32.470  1.00  0.00     0.279 HD
BRANCH  19  21
HETATM   21  C   UNL     1      -2.052   4.974 -33.315  1.00  0.00     0.230 C 
HETATM   22  C   UNL     1      -1.923   5.061 -34.825  1.00  0.00     0.034 C 
ENDBRANCH  19  21
BRANCH  19  23
HETATM   23  C   UNL     1      -3.761   3.892 -31.799  1.00  0.00     0.230 C 
HETATM   24  C   UNL     1      -3.447   2.487 -32.286  1.00  0.00     0.034 C 
ENDBRANCH  19  23
ENDBRANCH  18  19
ENDBRANCH  17  18
ENDBRANCH  14  17
ENDBRANCH   1  13
BRANCH   1  25
HETATM   25  O   UNL     1      -8.471   1.704 -35.310  1.00  0.00    -0.359 OA
HETATM   26  H   UNL     1      -9.002   0.919 -35.529  1.00  0.00     0.213 HD
ENDBRANCH   1  25
BRANCH   2  27
HETATM   27  C   UNL     1      -7.562   0.213 -32.798  1.00  0.00     0.043 A 
HETATM   28  C   UNL     1      -6.714  -0.410 -33.734  1.00  0.00     0.031 A 
HETATM   29  C   UNL     1      -5.465  -0.932 -33.367  1.00  0.00     0.026 A 
HETATM   30  C   UNL     1      -5.032  -0.840 -32.050  1.00  0.00     0.034 A 
HETATM   31 CL   UNL     1      -3.494  -1.458 -31.604  1.00  0.00    -0.084 Cl
HETATM   32  C   UNL     1      -5.842  -0.233 -31.102  1.00  0.00     0.026 A 
HETATM   33  C   UNL     1      -7.089   0.289 -31.475  1.00  0.00     0.031 A 
ENDBRANCH   2  27
TORSDOF 8
ENDMDL
MODEL 7
REMARK VINA RESULT:      -7.5     15.701     17.471
REMARK  8 active torsions:
REMARK  status: ('A' for Active; 'I' for Inactive)
REMARK    1  A    between atoms: C_2  and  N_3 
REMARK    2  A    between atoms: N_3  and  C_5 
REMARK    3  A    between atoms: N_3  and  C_29 
REMARK    4  A    between atoms: C_5  and  C_6 
REMARK    5  A    between atoms: C_6  and  N_7 
REMARK       I    between atoms: N_7  and  C_8 
REMARK    6  A    between atoms: C_8  and  C_9 
REMARK    7  A    between atoms: C_9  and  O_10 
REMARK    8  A    between atoms: N_11  and  C_12 
ROOT
HETATM    1  C   UNL     1      -4.092 -14.440 -38.949  1.00  0.00     0.256 C 
HETATM    2  N   UNL     1      -4.724 -13.980 -40.204  1.00  0.00    -0.254 N 
HETATM    3  C   UNL     1      -3.957 -13.805 -41.351  1.00  0.00     0.330 C 
HETATM    4  O   UNL     1      -4.395 -13.620 -42.485  1.00  0.00    -0.246 OA
HETATM    5  N   UNL     1      -2.604 -13.811 -41.225  1.00  0.00    -0.308 N 
HETATM    6  C   UNL     1      -1.889 -14.054 -40.067  1.00  0.00     0.048 A 
HETATM    7  C   UNL     1      -2.579 -14.380 -38.914  1.00  0.00     0.034 A 
HETATM    8  C   UNL     1      -0.494 -14.002 -40.090  1.00  0.00     0.030 A 
HETATM    9  C   UNL     1       0.227 -14.289 -38.933  1.00  0.00     0.002 A 
HETATM   10  C   UNL     1      -0.446 -14.648 -37.769  1.00  0.00     0.001 A 
HETATM   11  C   UNL     1      -1.841 -14.706 -37.760  1.00  0.00     0.015 A 
HETATM   12  H   UNL     1      -2.111 -13.666 -42.099  1.00  0.00     0.170 HD
ENDROOT
BRANCH   1  13
HETATM   13  C   UNL     1      -4.609 -13.489 -37.760  1.00  0.00     0.279 C 
HETATM   14  N   UNL     1      -5.411 -14.096 -36.793  1.00  0.00    -0.355 N 
HETATM   15  H   UNL     1      -5.334 -15.112 -36.776  1.00  0.00     0.162 HD
HETATM   16  O   UNL     1      -4.415 -12.273 -37.729  1.00  0.00    -0.268 OA
BRANCH  14  17
HETATM   17  C   UNL     1      -5.618 -13.447 -35.506  1.00  0.00     0.150 C 
BRANCH  17  18
HETATM   18  C   UNL     1      -6.943 -13.728 -34.759  1.00  0.00     0.254 C 
BRANCH  18  19
HETATM   19  N   UNL     1      -6.793 -14.280 -33.340  1.00  0.00    -0.070 N 
HETATM   20  H   UNL     1      -7.246 -13.570 -32.752  1.00  0.00     0.279 HD
BRANCH  19  21
HETATM   21  C   UNL     1      -5.370 -14.406 -32.840  1.00  0.00     0.230 C 
HETATM   22  C   UNL     1      -5.331 -15.032 -31.458  1.00  0.00     0.034 C 
ENDBRANCH  19  21
BRANCH  19  23
HETATM   23  C   UNL     1      -7.610 -15.542 -33.125  1.00  0.00     0.230 C 
HETATM   24  C   UNL     1      -7.347 -16.548 -34.233  1.00  0.00     0.034 C 
ENDBRANCH  19  23
ENDBRANCH  18  19
ENDBRANCH  17  18
ENDBRANCH  14  17
ENDBRANCH   1  13
BRANCH   1  25
HETATM   25  O   UNL     1      -4.398 -15.813 -38.793  1.00  0.00    -0.359 OA
HETATM   26  H   UNL     1      -3.933 -16.267 -39.517  1.00  0.00     0.213 HD
ENDBRANCH   1  25
BRANCH   2  27
HETATM   27  C   UNL     1      -6.171 -13.786 -40.245  1.00  0.00     0.043 A 
HETATM   28  C   UNL     1      -7.076 -14.858 -40.123  1.00  0.00     0.031 A 
HETATM   29  C   UNL     1      -8.464 -14.655 -40.104  1.00  0.00     0.026 A 
HETATM   30  C   UNL     1      -8.980 -13.370 -40.205  1.00  0.00     0.034 A 
HETATM   31 CL   UNL     1     -10.678 -13.119 -40.160  1.00  0.00    -0.084 Cl
HETATM   32  C   UNL     1      -8.118 -12.290 -40.327  1.00  0.00     0.026 A 
HETATM   33  C   UNL     1      -6.731 -12.499 -40.343  1.00  0.00     0.031 A 
ENDBRANCH   2  27
TORSDOF 8
ENDMDL
MODEL 8
REMARK VINA RESULT:      -7.4      2.797      5.708
REMARK  8 active torsions:
REMARK  status: ('A' for Active; 'I' for Inactive)
REMARK    1  A    between atoms: C_2  and  N_3 
REMARK    2  A    between atoms: N_3  and  C_5 
REMARK    3  A    between atoms: N_3  and  C_29 
REMARK    4  A    between atoms: C_5  and  C_6 
REMARK    5  A    between atoms: C_6  and  N_7 
REMARK       I    between atoms: N_7  and  C_8 
REMARK    6  A    between atoms: C_8  and  C_9 
REMARK    7  A    between atoms: C_9  and  O_10 
REMARK    8  A    between atoms: N_11  and  C_12 
ROOT
HETATM    1  C   UNL     1      -6.647   2.970 -30.310  1.00  0.00     0.256 C 
HETATM    2  N   UNL     1      -5.623   2.541 -31.288  1.00  0.00    -0.254 N 
HETATM    3  C   UNL     1      -4.396   3.195 -31.349  1.00  0.00     0.330 C 
HETATM    4  O   UNL     1      -3.410   2.810 -31.973  1.00  0.00    -0.246 OA
HETATM    5  N   UNL     1      -4.265   4.376 -30.688  1.00  0.00    -0.308 N 
HETATM    6  C   UNL     1      -5.214   4.975 -29.882  1.00  0.00     0.048 A 
HETATM    7  C   UNL     1      -6.408   4.315 -29.654  1.00  0.00     0.034 A 
HETATM    8  C   UNL     1      -4.940   6.207 -29.287  1.00  0.00     0.030 A 
HETATM    9  C   UNL     1      -5.880   6.790 -28.439  1.00  0.00     0.002 A 
HETATM   10  C   UNL     1      -7.076   6.129 -28.173  1.00  0.00     0.001 A 
HETATM   11  C   UNL     1      -7.335   4.892 -28.766  1.00  0.00     0.015 A 
HETATM   12  H   UNL     1      -3.350   4.800 -30.787  1.00  0.00     0.170 HD
ENDROOT
BRANCH   1  13
HETATM   13  C   UNL     1      -8.049   3.091 -31.087  1.00  0.00     0.279 C 
HETATM   14  N   UNL     1      -8.111   4.052 -32.096  1.00  0.00    -0.355 N 
HETATM   15  H   UNL     1      -7.197   4.354 -32.430  1.00  0.00     0.162 HD
HETATM   16  O   UNL     1      -9.060   2.463 -30.768  1.00  0.00    -0.268 OA
BRANCH  14  17
HETATM   17  C   UNL     1      -9.171   3.994 -33.094  1.00  0.00     0.150 C 
BRANCH  17  18
HETATM   18  C   UNL     1      -9.158   2.815 -34.094  1.00  0.00     0.254 C 
BRANCH  18  19
HETATM   19  N   UNL     1     -10.534   2.278 -34.494  1.00  0.00    -0.070 N 
HETATM   20  H   UNL     1     -10.370   1.846 -35.412  1.00  0.00     0.279 HD
BRANCH  19  21
HETATM   21  C   UNL     1     -11.605   3.327 -34.700  1.00  0.00     0.230 C 
HETATM   22  C   UNL     1     -12.300   3.142 -36.037  1.00  0.00     0.034 C 
ENDBRANCH  19  21
BRANCH  19  23
HETATM   23  C   UNL     1     -10.987   1.136 -33.602  1.00  0.00     0.230 C 
HETATM   24  C   UNL     1      -9.810   0.252 -33.222  1.00  0.00     0.034 C 
ENDBRANCH  19  23
ENDBRANCH  18  19
ENDBRANCH  17  18
ENDBRANCH  14  17
ENDBRANCH   1  13
BRANCH   1  25
HETATM   25  O   UNL     1      -6.632   2.044 -29.241  1.00  0.00    -0.359 OA
HETATM   26  H   UNL     1      -6.532   2.578 -28.435  1.00  0.00     0.213 HD
ENDBRANCH   1  25
BRANCH   2  27
HETATM   27  C   UNL     1      -5.885   1.379 -32.132  1.00  0.00     0.043 A 
HETATM   28  C   UNL     1      -6.053   1.488 -33.526  1.00  0.00     0.031 A 
HETATM   29  C   UNL     1      -6.244   0.359 -34.337  1.00  0.00     0.026 A 
HETATM   30  C   UNL     1      -6.269  -0.908 -33.770  1.00  0.00     0.034 A 
HETATM   31 CL   UNL     1      -6.481  -2.292 -34.765  1.00  0.00    -0.084 Cl
HETATM   32  C   UNL     1      -6.107  -1.052 -32.400  1.00  0.00     0.026 A 
HETATM   33  C   UNL     1      -5.914   0.079 -31.595  1.00  0.00     0.031 A 
ENDBRANCH   2  27
TORSDOF 8
ENDMDL
MODEL 9
REMARK VINA RESULT:      -7.4      1.546      2.326
REMARK  8 active torsions:
REMARK  status: ('A' for Active; 'I' for Inactive)
REMARK    1  A    between atoms: C_2  and  N_3 
REMARK    2  A    between atoms: N_3  and  C_5 
REMARK    3  A    between atoms: N_3  and  C_29 
REMARK    4  A    between atoms: C_5  and  C_6 
REMARK    5  A    between atoms: C_6  and  N_7 
REMARK       I    between atoms: N_7  and  C_8 
REMARK    6  A    between atoms: C_8  and  C_9 
REMARK    7  A    between atoms: C_9  and  O_10 
REMARK    8  A    between atoms: N_11  and  C_12 
ROOT
HETATM    1  C   UNL     1      -6.218   0.924 -33.348  1.00  0.00     0.256 C 
HETATM    2  N   UNL     1      -5.181   1.499 -32.465  1.00  0.00    -0.254 N 
HETATM    3  C   UNL     1      -3.957   0.853 -32.310  1.00  0.00     0.330 C 
HETATM    4  O   UNL     1      -2.961   1.327 -31.768  1.00  0.00    -0.246 OA
HETATM    5  N   UNL     1      -3.842  -0.421 -32.770  1.00  0.00    -0.308 N 
HETATM    6  C   UNL     1      -4.804  -1.136 -33.457  1.00  0.00     0.048 A 
HETATM    7  C   UNL     1      -5.996  -0.511 -33.778  1.00  0.00     0.034 A 
HETATM    8  C   UNL     1      -4.545  -2.451 -33.845  1.00  0.00     0.030 A 
HETATM    9  C   UNL     1      -5.499  -3.157 -34.576  1.00  0.00     0.002 A 
HETATM   10  C   UNL     1      -6.694  -2.538 -34.935  1.00  0.00     0.001 A 
HETATM   11  C   UNL     1      -6.937  -1.219 -34.549  1.00  0.00     0.015 A 
HETATM   12  H   UNL     1      -2.928  -0.831 -32.612  1.00  0.00     0.170 HD
ENDROOT
BRANCH   1  13
HETATM   13  C   UNL     1      -7.612   0.945 -32.547  1.00  0.00     0.279 C 
HETATM   14  N   UNL     1      -8.603   1.783 -33.061  1.00  0.00    -0.355 N 
HETATM   15  H   UNL     1      -8.450   2.050 -34.032  1.00  0.00     0.162 HD
HETATM   16  O   UNL     1      -7.794   0.351 -31.483  1.00  0.00    -0.268 OA
BRANCH  14  17
HETATM   17  C   UNL     1      -9.991   1.603 -32.657  1.00  0.00     0.150 C 
BRANCH  17  18
HETATM   18  C   UNL     1     -10.889   2.859 -32.579  1.00  0.00     0.254 C 
BRANCH  18  19
HETATM   19  N   UNL     1     -11.137   3.405 -31.171  1.00  0.00    -0.070 N 
HETATM   20  H   UNL     1     -11.563   2.613 -30.674  1.00  0.00     0.279 HD
BRANCH  19  21
HETATM   21  C   UNL     1     -12.124   4.548 -31.083  1.00  0.00     0.230 C 
HETATM   22  C   UNL     1     -13.535   4.035 -30.858  1.00  0.00     0.034 C 
ENDBRANCH  19  21
BRANCH  19  23
HETATM   23  C   UNL     1      -9.843   3.681 -30.426  1.00  0.00     0.230 C 
HETATM   24  C   UNL     1      -9.654   5.174 -30.212  1.00  0.00     0.034 C 
ENDBRANCH  19  23
ENDBRANCH  18  19
ENDBRANCH  17  18
ENDBRANCH  14  17
ENDBRANCH   1  13
BRANCH   1  25
HETATM   25  O   UNL     1      -6.210   1.663 -34.555  1.00  0.00    -0.359 OA
HETATM   26  H   UNL     1      -5.384   2.175 -34.542  1.00  0.00     0.213 HD
ENDBRANCH   1  25
BRANCH   2  27
HETATM   27  C   UNL     1      -5.425   2.786 -31.819  1.00  0.00     0.043 A 
HETATM   28  C   UNL     1      -5.520   3.985 -32.551  1.00  0.00     0.031 A 
HETATM   29  C   UNL     1      -5.814   5.208 -31.929  1.00  0.00     0.026 A 
HETATM   30  C   UNL     1      -6.021   5.258 -30.557  1.00  0.00     0.034 A 
HETATM   31 CL   UNL     1      -6.402   6.751 -29.798  1.00  0.00    -0.084 Cl
HETATM   32  C   UNL     1      -5.934   4.095 -29.805  1.00  0.00     0.026 A 
HETATM   33  C   UNL     1      -5.643   2.876 -30.433  1.00  0.00     0.031 A 
ENDBRANCH   2  27
TORSDOF 8
ENDMDL
MODEL 10
REMARK VINA RESULT:      -7.3      2.605      5.555
REMARK  8 active torsions:
REMARK  status: ('A' for Active; 'I' for Inactive)
REMARK    1  A    between atoms: C_2  and  N_3 
REMARK    2  A    between atoms: N_3  and  C_5 
REMARK    3  A    between atoms: N_3  and  C_29 
REMARK    4  A    between atoms: C_5  and  C_6 
REMARK    5  A    between atoms: C_6  and  N_7 
REMARK       I    between atoms: N_7  and  C_8 
REMARK    6  A    between atoms: C_8  and  C_9 
REMARK    7  A    between atoms: C_9  and  O_10 
REMARK    8  A    between atoms: N_11  and  C_12 
ROOT
HETATM    1  C   UNL     1      -6.373   0.552 -32.151  1.00  0.00     0.256 C 
HETATM    2  N   UNL     1      -7.734   1.106 -32.319  1.00  0.00    -0.254 N 
HETATM    3  C   UNL     1      -8.708   0.377 -32.994  1.00  0.00     0.330 C 
HETATM    4  O   UNL     1      -9.908   0.642 -33.026  1.00  0.00    -0.246 OA
HETATM    5  N   UNL     1      -8.315  -0.712 -33.707  1.00  0.00    -0.308 N 
HETATM    6  C   UNL     1      -7.036  -1.231 -33.775  1.00  0.00     0.048 A 
HETATM    7  C   UNL     1      -6.038  -0.646 -33.015  1.00  0.00     0.034 A 
HETATM    8  C   UNL     1      -6.782  -2.346 -34.574  1.00  0.00     0.030 A 
HETATM    9  C   UNL     1      -5.502  -2.895 -34.609  1.00  0.00     0.002 A 
HETATM   10  C   UNL     1      -4.490  -2.341 -33.828  1.00  0.00     0.001 A 
HETATM   11  C   UNL     1      -4.758  -1.231 -33.026  1.00  0.00     0.015 A 
HETATM   12  H   UNL     1      -9.075  -1.186 -34.182  1.00  0.00     0.170 HD
ENDROOT
BRANCH   1  13
HETATM   13  C   UNL     1      -5.321   1.701 -32.548  1.00  0.00     0.279 C 
HETATM   14  N   UNL     1      -4.374   2.028 -31.577  1.00  0.00    -0.355 N 
HETATM   15  H   UNL     1      -4.259   1.314 -30.860  1.00  0.00     0.162 HD
HETATM   16  O   UNL     1      -5.384   2.348 -33.594  1.00  0.00    -0.268 OA
BRANCH  14  17
HETATM   17  C   UNL     1      -3.171   2.760 -31.950  1.00  0.00     0.150 C 
BRANCH  17  18
HETATM   18  C   UNL     1      -3.161   4.292 -31.734  1.00  0.00     0.254 C 
BRANCH  18  19
HETATM   19  N   UNL     1      -4.230   5.071 -32.504  1.00  0.00    -0.070 N 
HETATM   20  H   UNL     1      -4.729   4.344 -33.032  1.00  0.00     0.279 HD
BRANCH  19  21
HETATM   21  C   UNL     1      -3.705   6.057 -33.524  1.00  0.00     0.230 C 
HETATM   22  C   UNL     1      -3.285   5.351 -34.800  1.00  0.00     0.034 C 
ENDBRANCH  19  21
BRANCH  19  23
HETATM   23  C   UNL     1      -5.278   5.672 -31.583  1.00  0.00     0.230 C 
HETATM   24  C   UNL     1      -6.071   6.750 -32.303  1.00  0.00     0.034 C 
ENDBRANCH  19  23
ENDBRANCH  18  19
ENDBRANCH  17  18
ENDBRANCH  14  17
ENDBRANCH   1  13
BRANCH   1  25
HETATM   25  O   UNL     1      -6.266   0.075 -30.823  1.00  0.00    -0.359 OA
HETATM   26  H   UNL     1      -6.762  -0.761 -30.806  1.00  0.00     0.213 HD
ENDBRANCH   1  25
BRANCH   2  27
HETATM   27  C   UNL     1      -8.064   2.389 -31.704  1.00  0.00     0.043 A 
HETATM   28  C   UNL     1      -8.631   3.448 -32.438  1.00  0.00     0.031 A 
HETATM   29  C   UNL     1      -9.000   4.655 -31.826  1.00  0.00     0.026 A 
HETATM   30  C   UNL     1      -8.811   4.830 -30.462  1.00  0.00     0.034 A 
HETATM   31 CL   UNL     1      -9.283   6.300 -29.709  1.00  0.00    -0.084 Cl
HETATM   32  C   UNL     1      -8.254   3.807 -29.708  1.00  0.00     0.026 A 
HETATM   33  C   UNL     1      -7.889   2.602 -30.325  1.00  0.00     0.031 A 
ENDBRANCH   2  27
TORSDOF 8
ENDMDL
