MODEL 1
REMARK VINA RESULT:      -9.5      0.000      0.000
REMARK  6 active torsions:
REMARK  status: ('A' for Active; 'I' for Inactive)
REMARK    1  A    between atoms: C_3  and  C_4 
REMARK       I    between atoms: C_4  and  N_5 
REMARK    2  A    between atoms: N_5  and  C_6 
REMARK    3  A    between atoms: C_6  and  C_7 
REMARK    4  A    between atoms: C_6  and  C_22 
REMARK       I    between atoms: C_7  and  N_8 
REMARK    5  A    between atoms: N_8  and  C_9 
REMARK    6  A    between atoms: C_11  and  C_12 
ROOT
HETATM    1  C   UNL     1      -3.724   1.769 -31.980  1.00  0.00     0.245 C 
HETATM    2  N   UNL     1      -3.594   2.937 -32.707  1.00  0.00    -0.325 N 
HETATM    3  O   UNL     1      -2.885   1.359 -31.179  1.00  0.00    -0.271 OA
HETATM    4  H   UNL     1      -4.348   3.139 -33.363  1.00  0.00     0.169 HD
ENDROOT
BRANCH   1   5
HETATM    5  C   UNL     1      -5.133   1.098 -32.113  1.00  0.00     0.180 C 
BRANCH   5   6
HETATM    6  N   UNL     1      -5.148  -0.362 -32.351  1.00  0.00    -0.343 N 
HETATM    7  C   UNL     1      -4.421  -0.954 -33.357  1.00  0.00     0.252 C 
HETATM    8  O   UNL     1      -3.391  -0.483 -33.821  1.00  0.00    -0.268 OA
HETATM    9  H   UNL     1      -5.968  -0.867 -32.036  1.00  0.00     0.163 HD
BRANCH   7  10
HETATM   10  C   UNL     1      -4.942  -2.244 -33.851  1.00  0.00     0.037 A 
HETATM   11  C   UNL     1      -6.193  -2.330 -34.488  1.00  0.00    -0.046 A 
HETATM   12  C   UNL     1      -7.081  -1.135 -34.693  1.00  0.00     0.049 C 
HETATM   13  C   UNL     1      -6.624  -3.587 -34.938  1.00  0.00     0.007 A 
HETATM   14  C   UNL     1      -5.815  -4.715 -34.786  1.00  0.00     0.001 A 
HETATM   15  C   UNL     1      -4.564  -4.607 -34.180  1.00  0.00     0.001 A 
HETATM   16  C   UNL     1      -4.123  -3.370 -33.712  1.00  0.00     0.017 A 
ENDBRANCH   7  10
ENDBRANCH   5   6
BRANCH   5  17
HETATM   17  C   UNL     1      -6.102   1.421 -30.940  1.00  0.00     0.009 C 
HETATM   18  C   UNL     1      -7.580   1.388 -31.343  1.00  0.00     0.012 C 
HETATM   19  C   UNL     1      -5.858   0.554 -29.703  1.00  0.00     0.012 C 
ENDBRANCH   5  17
ENDBRANCH   1   5
BRANCH   2  20
HETATM   20  C   UNL     1      -2.614   3.940 -32.584  1.00  0.00     0.035 A 
HETATM   21  C   UNL     1      -2.049   4.332 -31.367  1.00  0.00     0.042 A 
HETATM   22  C   UNL     1      -1.150   5.411 -31.298  1.00  0.00    -0.021 A 
HETATM   23  C   UNL     1      -0.787   6.060 -32.486  1.00  0.00     0.012 A 
HETATM   24  C   UNL     1      -1.334   5.664 -33.708  1.00  0.00     0.003 A 
HETATM   25  C   UNL     1      -2.257   4.622 -33.752  1.00  0.00     0.029 A 
BRANCH  22  26
HETATM   26  C   UNL     1      -0.644   5.896 -30.020  1.00  0.00     0.010 A 
HETATM   27  C   UNL     1      -1.136   6.903 -29.153  1.00  0.00     0.152 A 
HETATM   28  N   UNL     1      -0.406   7.041 -28.043  1.00  0.00    -0.187 NA
HETATM   29  N   UNL     1       0.554   6.115 -28.187  1.00  0.00    -0.289 N 
HETATM   30  H   UNL     1       1.241   6.015 -27.447  1.00  0.00     0.188 HD
HETATM   31  C   UNL     1       0.459   5.409 -29.351  1.00  0.00     0.123 A 
ENDBRANCH  22  26
ENDBRANCH   2  20
TORSDOF 6
ENDMDL
MODEL 2
REMARK VINA RESULT:      -9.5      5.217      9.206
REMARK  6 active torsions:
REMARK  status: ('A' for Active; 'I' for Inactive)
REMARK    1  A    between atoms: C_3  and  C_4 
REMARK       I    between atoms: C_4  and  N_5 
REMARK    2  A    between atoms: N_5  and  C_6 
REMARK    3  A    between atoms: C_6  and  C_7 
REMARK    4  A    between atoms: C_6  and  C_22 
REMARK       I    between atoms: C_7  and  N_8 
REMARK    5  A    between atoms: N_8  and  C_9 
REMARK    6  A    between atoms: C_11  and  C_12 
ROOT
HETATM    1  C   UNL     1      -8.742   1.025 -32.685  1.00  0.00     0.245 C 
HETATM    2  N   UNL     1      -7.744   0.973 -33.639  1.00  0.00    -0.325 N 
HETATM    3  O   UNL     1      -8.801   0.281 -31.707  1.00  0.00    -0.271 OA
HETATM    4  H   UNL     1      -7.838   1.624 -34.417  1.00  0.00     0.169 HD
ENDROOT
BRANCH   1   5
HETATM    5  C   UNL     1      -9.701   2.253 -32.844  1.00  0.00     0.180 C 
BRANCH   5   6
HETATM    6  N   UNL     1     -11.148   1.985 -32.689  1.00  0.00    -0.343 N 
HETATM    7  C   UNL     1     -12.079   2.402 -33.612  1.00  0.00     0.252 C 
HETATM    8  O   UNL     1     -11.830   2.588 -34.795  1.00  0.00    -0.268 OA
HETATM    9  H   UNL     1     -11.488   1.842 -31.745  1.00  0.00     0.163 HD
BRANCH   7  10
HETATM   10  C   UNL     1     -13.449   2.596 -33.096  1.00  0.00     0.037 A 
HETATM   11  C   UNL     1     -14.437   1.608 -33.261  1.00  0.00    -0.046 A 
HETATM   12  C   UNL     1     -14.176   0.314 -33.978  1.00  0.00     0.049 C 
HETATM   13  C   UNL     1     -15.716   1.856 -32.741  1.00  0.00     0.007 A 
HETATM   14  C   UNL     1     -15.988   3.037 -32.047  1.00  0.00     0.001 A 
HETATM   15  C   UNL     1     -14.988   3.992 -31.866  1.00  0.00     0.001 A 
HETATM   16  C   UNL     1     -13.715   3.774 -32.388  1.00  0.00     0.017 A 
ENDBRANCH   7  10
ENDBRANCH   5   6
BRANCH   5  17
HETATM   17  C   UNL     1      -9.324   3.472 -31.954  1.00  0.00     0.009 C 
HETATM   18  C   UNL     1      -9.566   4.823 -32.636  1.00  0.00     0.012 C 
HETATM   19  C   UNL     1      -9.983   3.435 -30.573  1.00  0.00     0.012 C 
ENDBRANCH   5  17
ENDBRANCH   1   5
BRANCH   2  20
HETATM   20  C   UNL     1      -6.557   0.216 -33.623  1.00  0.00     0.035 A 
HETATM   21  C   UNL     1      -6.469  -1.105 -34.074  1.00  0.00     0.042 A 
HETATM   22  C   UNL     1      -5.279  -1.840 -33.936  1.00  0.00    -0.021 A 
HETATM   23  C   UNL     1      -4.157  -1.207 -33.382  1.00  0.00     0.012 A 
HETATM   24  C   UNL     1      -4.232   0.116 -32.944  1.00  0.00     0.003 A 
HETATM   25  C   UNL     1      -5.432   0.816 -33.048  1.00  0.00     0.029 A 
BRANCH  22  26
HETATM   26  C   UNL     1      -5.213  -3.250 -34.301  1.00  0.00     0.010 A 
HETATM   27  C   UNL     1      -6.122  -4.061 -35.024  1.00  0.00     0.152 A 
HETATM   28  N   UNL     1      -5.692  -5.315 -35.185  1.00  0.00    -0.187 NA
HETATM   29  N   UNL     1      -4.498  -5.313 -34.573  1.00  0.00    -0.289 N 
HETATM   30  H   UNL     1      -3.957  -6.172 -34.571  1.00  0.00     0.188 HD
HETATM   31  C   UNL     1      -4.169  -4.108 -34.025  1.00  0.00     0.123 A 
ENDBRANCH  22  26
ENDBRANCH   2  20
TORSDOF 6
ENDMDL
MODEL 3
REMARK VINA RESULT:      -9.4      4.736      8.603
REMARK  6 active torsions:
REMARK  status: ('A' for Active; 'I' for Inactive)
REMARK    1  A    between atoms: C_3  and  C_4 
REMARK       I    between atoms: C_4  and  N_5 
REMARK    2  A    between atoms: N_5  and  C_6 
REMARK    3  A    between atoms: C_6  and  C_7 
REMARK    4  A    between atoms: C_6  and  C_22 
REMARK       I    between atoms: C_7  and  N_8 
REMARK    5  A    between atoms: N_8  and  C_9 
REMARK    6  A    between atoms: C_11  and  C_12 
ROOT
HETATM    1  C   UNL     1      -7.383   2.412 -32.976  1.00  0.00     0.245 C 
HETATM    2  N   UNL     1      -6.949   1.257 -32.354  1.00  0.00    -0.325 N 
HETATM    3  O   UNL     1      -6.867   2.887 -33.986  1.00  0.00    -0.271 OA
HETATM    4  H   UNL     1      -7.445   0.997 -31.502  1.00  0.00     0.169 HD
ENDROOT
BRANCH   1   5
HETATM    5  C   UNL     1      -8.726   2.973 -32.396  1.00  0.00     0.180 C 
BRANCH   5   6
HETATM    6  N   UNL     1      -9.939   2.162 -32.639  1.00  0.00    -0.343 N 
HETATM    7  C   UNL     1     -10.784   2.397 -33.698  1.00  0.00     0.252 C 
HETATM    8  O   UNL     1     -10.432   2.916 -34.748  1.00  0.00    -0.268 OA
HETATM    9  H   UNL     1     -10.348   1.701 -31.834  1.00  0.00     0.163 HD
BRANCH   7  10
HETATM   10  C   UNL     1     -12.180   1.952 -33.514  1.00  0.00     0.037 A 
HETATM   11  C   UNL     1     -13.168   2.831 -33.034  1.00  0.00    -0.046 A 
HETATM   12  C   UNL     1     -12.873   4.257 -32.663  1.00  0.00     0.049 C 
HETATM   13  C   UNL     1     -14.476   2.343 -32.888  1.00  0.00     0.007 A 
HETATM   14  C   UNL     1     -14.792   1.031 -33.246  1.00  0.00     0.001 A 
HETATM   15  C   UNL     1     -13.807   0.183 -33.749  1.00  0.00     0.001 A 
HETATM   16  C   UNL     1     -12.498   0.641 -33.887  1.00  0.00     0.017 A 
ENDBRANCH   7  10
ENDBRANCH   5   6
BRANCH   5  17
HETATM   17  C   UNL     1      -8.662   3.333 -30.884  1.00  0.00     0.009 C 
HETATM   18  C   UNL     1      -7.553   4.334 -30.541  1.00  0.00     0.012 C 
HETATM   19  C   UNL     1     -10.007   3.799 -30.320  1.00  0.00     0.012 C 
ENDBRANCH   5  17
ENDBRANCH   1   5
BRANCH   2  20
HETATM   20  C   UNL     1      -5.986   0.332 -32.800  1.00  0.00     0.035 A 
HETATM   21  C   UNL     1      -6.299  -0.871 -33.440  1.00  0.00     0.042 A 
HETATM   22  C   UNL     1      -5.296  -1.800 -33.769  1.00  0.00    -0.021 A 
HETATM   23  C   UNL     1      -3.961  -1.475 -33.490  1.00  0.00     0.012 A 
HETATM   24  C   UNL     1      -3.639  -0.270 -32.866  1.00  0.00     0.003 A 
HETATM   25  C   UNL     1      -4.649   0.620 -32.507  1.00  0.00     0.029 A 
BRANCH  22  26
HETATM   26  C   UNL     1      -5.626  -3.102 -34.335  1.00  0.00     0.010 A 
HETATM   27  C   UNL     1      -4.849  -4.281 -34.454  1.00  0.00     0.152 A 
HETATM   28  N   UNL     1      -5.519  -5.295 -35.009  1.00  0.00    -0.187 NA
HETATM   29  N   UNL     1      -6.733  -4.774 -35.241  1.00  0.00    -0.289 N 
HETATM   30  H   UNL     1      -7.440  -5.370 -35.658  1.00  0.00     0.188 HD
HETATM   31  C   UNL     1      -6.847  -3.469 -34.862  1.00  0.00     0.123 A 
ENDBRANCH  22  26
ENDBRANCH   2  20
TORSDOF 6
ENDMDL
MODEL 4
REMARK VINA RESULT:      -9.4      1.387      1.850
REMARK  6 active torsions:
REMARK  status: ('A' for Active; 'I' for Inactive)
REMARK    1  A    between atoms: C_3  and  C_4 
REMARK       I    between atoms: C_4  and  N_5 
REMARK    2  A    between atoms: N_5  and  C_6 
REMARK    3  A    between atoms: C_6  and  C_7 
REMARK    4  A    between atoms: C_6  and  C_22 
REMARK       I    between atoms: C_7  and  N_8 
REMARK    5  A    between atoms: N_8  and  C_9 
REMARK    6  A    between atoms: C_11  and  C_12 
ROOT
HETATM    1  C   UNL     1      -5.402   2.997 -32.180  1.00  0.00     0.245 C 
HETATM    2  N   UNL     1      -4.072   2.756 -32.465  1.00  0.00    -0.325 N 
HETATM    3  O   UNL     1      -5.852   4.099 -31.870  1.00  0.00    -0.271 OA
HETATM    4  H   UNL     1      -3.829   1.788 -32.671  1.00  0.00     0.169 HD
ENDROOT
BRANCH   1   5
HETATM    5  C   UNL     1      -6.340   1.778 -32.475  1.00  0.00     0.180 C 
BRANCH   5   6
HETATM    6  N   UNL     1      -5.701   0.580 -33.063  1.00  0.00    -0.343 N 
HETATM    7  C   UNL     1      -6.187  -0.038 -34.191  1.00  0.00     0.252 C 
HETATM    8  O   UNL     1      -6.836   0.535 -35.056  1.00  0.00    -0.268 OA
HETATM    9  H   UNL     1      -5.155   0.001 -32.436  1.00  0.00     0.163 HD
BRANCH   7  10
HETATM   10  C   UNL     1      -5.854  -1.470 -34.330  1.00  0.00     0.037 A 
HETATM   11  C   UNL     1      -4.580  -1.959 -33.989  1.00  0.00    -0.046 A 
HETATM   12  C   UNL     1      -3.479  -1.070 -33.483  1.00  0.00     0.049 C 
HETATM   13  C   UNL     1      -4.334  -3.332 -34.140  1.00  0.00     0.007 A 
HETATM   14  C   UNL     1      -5.340  -4.193 -34.584  1.00  0.00     0.001 A 
HETATM   15  C   UNL     1      -6.607  -3.696 -34.888  1.00  0.00     0.001 A 
HETATM   16  C   UNL     1      -6.868  -2.333 -34.760  1.00  0.00     0.017 A 
ENDBRANCH   7  10
ENDBRANCH   5   6
BRANCH   5  17
HETATM   17  C   UNL     1      -7.206   1.335 -31.261  1.00  0.00     0.009 C 
HETATM   18  C   UNL     1      -8.642   0.958 -31.640  1.00  0.00     0.012 C 
HETATM   19  C   UNL     1      -6.554   0.225 -30.433  1.00  0.00     0.012 C 
ENDBRANCH   5  17
ENDBRANCH   1   5
BRANCH   2  20
HETATM   20  C   UNL     1      -3.026   3.687 -32.617  1.00  0.00     0.035 A 
HETATM   21  C   UNL     1      -2.230   4.143 -31.562  1.00  0.00     0.042 A 
HETATM   22  C   UNL     1      -1.270   5.151 -31.761  1.00  0.00    -0.021 A 
HETATM   23  C   UNL     1      -1.086   5.658 -33.055  1.00  0.00     0.012 A 
HETATM   24  C   UNL     1      -1.866   5.196 -34.116  1.00  0.00     0.003 A 
HETATM   25  C   UNL     1      -2.843   4.229 -33.893  1.00  0.00     0.029 A 
BRANCH  22  26
HETATM   26  C   UNL     1      -0.515   5.709 -30.646  1.00  0.00     0.010 A 
HETATM   27  C   UNL     1      -0.443   7.035 -30.151  1.00  0.00     0.152 A 
HETATM   28  N   UNL     1       0.344   7.150 -29.078  1.00  0.00    -0.187 NA
HETATM   29  N   UNL     1       0.775   5.896 -28.874  1.00  0.00    -0.289 N 
HETATM   30  H   UNL     1       1.393   5.722 -28.088  1.00  0.00     0.188 HD
HETATM   31  C   UNL     1       0.296   5.001 -29.784  1.00  0.00     0.123 A 
ENDBRANCH  22  26
ENDBRANCH   2  20
TORSDOF 6
ENDMDL
MODEL 5
REMARK VINA RESULT:      -9.3      2.281      8.393
REMARK  6 active torsions:
REMARK  status: ('A' for Active; 'I' for Inactive)
REMARK    1  A    between atoms: C_3  and  C_4 
REMARK       I    between atoms: C_4  and  N_5 
REMARK    2  A    between atoms: N_5  and  C_6 
REMARK    3  A    between atoms: C_6  and  C_7 
REMARK    4  A    between atoms: C_6  and  C_22 
REMARK       I    between atoms: C_7  and  N_8 
REMARK    5  A    between atoms: N_8  and  C_9 
REMARK    6  A    between atoms: C_11  and  C_12 
ROOT
HETATM    1  C   UNL     1      -6.166   2.453 -31.151  1.00  0.00     0.245 C 
HETATM    2  N   UNL     1      -5.790   2.232 -32.462  1.00  0.00    -0.325 N 
HETATM    3  O   UNL     1      -7.003   1.779 -30.551  1.00  0.00    -0.271 OA
HETATM    4  H   UNL     1      -5.112   2.889 -32.847  1.00  0.00     0.169 HD
ENDROOT
BRANCH   1   5
HETATM    5  C   UNL     1      -5.290   3.523 -30.415  1.00  0.00     0.180 C 
BRANCH   5   6
HETATM    6  N   UNL     1      -4.368   4.314 -31.260  1.00  0.00    -0.343 N 
HETATM    7  C   UNL     1      -3.069   3.929 -31.495  1.00  0.00     0.252 C 
HETATM    8  O   UNL     1      -2.685   2.768 -31.462  1.00  0.00    -0.268 OA
HETATM    9  H   UNL     1      -4.563   5.305 -31.344  1.00  0.00     0.163 HD
BRANCH   7  10
HETATM   10  C   UNL     1      -2.129   5.018 -31.829  1.00  0.00     0.037 A 
HETATM   11  C   UNL     1      -1.978   5.471 -33.152  1.00  0.00    -0.046 A 
HETATM   12  C   UNL     1      -2.736   4.875 -34.304  1.00  0.00     0.049 C 
HETATM   13  C   UNL     1      -1.071   6.514 -33.397  1.00  0.00     0.007 A 
HETATM   14  C   UNL     1      -0.367   7.108 -32.348  1.00  0.00     0.001 A 
HETATM   15  C   UNL     1      -0.552   6.668 -31.038  1.00  0.00     0.001 A 
HETATM   16  C   UNL     1      -1.435   5.623 -30.774  1.00  0.00     0.017 A 
ENDBRANCH   7  10
ENDBRANCH   5   6
BRANCH   5  17
HETATM   17  C   UNL     1      -6.102   4.499 -29.516  1.00  0.00     0.009 C 
HETATM   18  C   UNL     1      -5.254   5.626 -28.918  1.00  0.00     0.012 C 
HETATM   19  C   UNL     1      -7.343   5.063 -30.211  1.00  0.00     0.012 C 
ENDBRANCH   5  17
ENDBRANCH   1   5
BRANCH   2  20
HETATM   20  C   UNL     1      -6.134   1.156 -33.302  1.00  0.00     0.035 A 
HETATM   21  C   UNL     1      -5.580  -0.123 -33.195  1.00  0.00     0.042 A 
HETATM   22  C   UNL     1      -5.888  -1.127 -34.130  1.00  0.00    -0.021 A 
HETATM   23  C   UNL     1      -6.808  -0.839 -35.147  1.00  0.00     0.012 A 
HETATM   24  C   UNL     1      -7.378   0.430 -35.251  1.00  0.00     0.003 A 
HETATM   25  C   UNL     1      -7.027   1.427 -34.342  1.00  0.00     0.029 A 
BRANCH  22  26
HETATM   26  C   UNL     1      -5.230  -2.427 -34.090  1.00  0.00     0.010 A 
HETATM   27  C   UNL     1      -5.583  -3.661 -34.691  1.00  0.00     0.152 A 
HETATM   28  N   UNL     1      -4.700  -4.634 -34.447  1.00  0.00    -0.187 NA
HETATM   29  N   UNL     1      -3.770  -4.026 -33.695  1.00  0.00    -0.289 N 
HETATM   30  H   UNL     1      -2.971  -4.570 -33.387  1.00  0.00     0.188 HD
HETATM   31  C   UNL     1      -4.041  -2.712 -33.450  1.00  0.00     0.123 A 
ENDBRANCH  22  26
ENDBRANCH   2  20
TORSDOF 6
ENDMDL
MODEL 6
REMARK VINA RESULT:      -9.0      4.503      8.441
REMARK  6 active torsions:
REMARK  status: ('A' for Active; 'I' for Inactive)
REMARK    1  A    between atoms: C_3  and  C_4 
REMARK       I    between atoms: C_4  and  N_5 
REMARK    2  A    between atoms: N_5  and  C_6 
REMARK    3  A    between atoms: C_6  and  C_7 
REMARK    4  A    between atoms: C_6  and  C_22 
REMARK       I    between atoms: C_7  and  N_8 
REMARK    5  A    between atoms: N_8  and  C_9 
REMARK    6  A    between atoms: C_11  and  C_12 
ROOT
HETATM    1  C   UNL     1      -7.469   3.367 -32.600  1.00  0.00     0.245 C 
HETATM    2  N   UNL     1      -8.165   2.973 -33.727  1.00  0.00    -0.325 N 
HETATM    3  O   UNL     1      -7.931   4.098 -31.725  1.00  0.00    -0.271 OA
HETATM    4  H   UNL     1      -7.649   2.395 -34.389  1.00  0.00     0.169 HD
ENDROOT
BRANCH   1   5
HETATM    5  C   UNL     1      -6.092   2.641 -32.424  1.00  0.00     0.180 C 
BRANCH   5   6
HETATM    6  N   UNL     1      -5.879   1.425 -33.239  1.00  0.00    -0.343 N 
HETATM    7  C   UNL     1      -6.424   0.207 -32.906  1.00  0.00     0.252 C 
HETATM    8  O   UNL     1      -7.450   0.076 -32.252  1.00  0.00    -0.268 OA
HETATM    9  H   UNL     1      -5.040   1.398 -33.808  1.00  0.00     0.163 HD
BRANCH   7  10
HETATM   10  C   UNL     1      -5.706  -0.977 -33.416  1.00  0.00     0.037 A 
HETATM   11  C   UNL     1      -4.540  -1.451 -32.786  1.00  0.00    -0.046 A 
HETATM   12  C   UNL     1      -3.944  -0.783 -31.579  1.00  0.00     0.049 C 
HETATM   13  C   UNL     1      -3.911  -2.585 -33.320  1.00  0.00     0.007 A 
HETATM   14  C   UNL     1      -4.450  -3.246 -34.426  1.00  0.00     0.001 A 
HETATM   15  C   UNL     1      -5.624  -2.782 -35.019  1.00  0.00     0.001 A 
HETATM   16  C   UNL     1      -6.256  -1.647 -34.515  1.00  0.00     0.017 A 
ENDBRANCH   7  10
ENDBRANCH   5   6
BRANCH   5  17
HETATM   17  C   UNL     1      -4.858   3.573 -32.589  1.00  0.00     0.009 C 
HETATM   18  C   UNL     1      -3.519   2.837 -32.482  1.00  0.00     0.012 C 
HETATM   19  C   UNL     1      -4.912   4.421 -33.862  1.00  0.00     0.012 C 
ENDBRANCH   5  17
ENDBRANCH   1   5
BRANCH   2  20
HETATM   20  C   UNL     1      -9.526   3.171 -34.029  1.00  0.00     0.035 A 
HETATM   21  C   UNL     1     -10.522   2.219 -33.797  1.00  0.00     0.042 A 
HETATM   22  C   UNL     1     -11.846   2.437 -34.216  1.00  0.00    -0.021 A 
HETATM   23  C   UNL     1     -12.165   3.658 -34.827  1.00  0.00     0.012 A 
HETATM   24  C   UNL     1     -11.180   4.621 -35.047  1.00  0.00     0.003 A 
HETATM   25  C   UNL     1      -9.864   4.369 -34.666  1.00  0.00     0.029 A 
BRANCH  22  26
HETATM   26  C   UNL     1     -12.865   1.404 -34.078  1.00  0.00     0.010 A 
HETATM   27  C   UNL     1     -14.254   1.432 -34.358  1.00  0.00     0.152 A 
HETATM   28  N   UNL     1     -14.858   0.262 -34.130  1.00  0.00    -0.187 NA
HETATM   29  N   UNL     1     -13.856  -0.526 -33.709  1.00  0.00    -0.289 N 
HETATM   30  H   UNL     1     -14.069  -1.491 -33.480  1.00  0.00     0.188 HD
HETATM   31  C   UNL     1     -12.650   0.108 -33.656  1.00  0.00     0.123 A 
ENDBRANCH  22  26
ENDBRANCH   2  20
TORSDOF 6
ENDMDL
MODEL 7
REMARK VINA RESULT:      -8.9      2.311      9.456
REMARK  6 active torsions:
REMARK  status: ('A' for Active; 'I' for Inactive)
REMARK    1  A    between atoms: C_3  and  C_4 
REMARK       I    between atoms: C_4  and  N_5 
REMARK    2  A    between atoms: N_5  and  C_6 
REMARK    3  A    between atoms: C_6  and  C_7 
REMARK    4  A    between atoms: C_6  and  C_22 
REMARK       I    between atoms: C_7  and  N_8 
REMARK    5  A    between atoms: N_8  and  C_9 
REMARK    6  A    between atoms: C_11  and  C_12 
ROOT
HETATM    1  C   UNL     1      -3.919   4.477 -32.226  1.00  0.00     0.245 C 
HETATM    2  N   UNL     1      -3.580   3.351 -31.500  1.00  0.00    -0.325 N 
HETATM    3  O   UNL     1      -4.895   4.549 -32.970  1.00  0.00    -0.271 OA
HETATM    4  H   UNL     1      -2.723   3.416 -30.951  1.00  0.00     0.169 HD
ENDROOT
BRANCH   1   5
HETATM    5  C   UNL     1      -3.059   5.737 -31.871  1.00  0.00     0.180 C 
BRANCH   5   6
HETATM    6  N   UNL     1      -2.568   5.830 -30.478  1.00  0.00    -0.343 N 
HETATM    7  C   UNL     1      -2.362   7.034 -29.846  1.00  0.00     0.252 C 
HETATM    8  O   UNL     1      -2.960   8.063 -30.130  1.00  0.00    -0.268 OA
HETATM    9  H   UNL     1      -2.028   5.046 -30.131  1.00  0.00     0.163 HD
BRANCH   7  10
HETATM   10  C   UNL     1      -1.371   7.022 -28.752  1.00  0.00     0.037 A 
HETATM   11  C   UNL     1       0.010   7.023 -29.018  1.00  0.00    -0.046 A 
HETATM   12  C   UNL     1       0.566   7.019 -30.414  1.00  0.00     0.049 C 
HETATM   13  C   UNL     1       0.896   7.016 -27.930  1.00  0.00     0.007 A 
HETATM   14  C   UNL     1       0.416   7.045 -26.619  1.00  0.00     0.001 A 
HETATM   15  C   UNL     1      -0.956   7.075 -26.373  1.00  0.00     0.001 A 
HETATM   16  C   UNL     1      -1.854   7.065 -27.439  1.00  0.00     0.017 A 
ENDBRANCH   7  10
ENDBRANCH   5   6
BRANCH   5  17
HETATM   17  C   UNL     1      -1.864   5.983 -32.837  1.00  0.00     0.009 C 
HETATM   18  C   UNL     1      -1.744   4.925 -33.939  1.00  0.00     0.012 C 
HETATM   19  C   UNL     1      -1.855   7.392 -33.433  1.00  0.00     0.012 C 
ENDBRANCH   5  17
ENDBRANCH   1   5
BRANCH   2  20
HETATM   20  C   UNL     1      -4.317   2.164 -31.331  1.00  0.00     0.035 A 
HETATM   21  C   UNL     1      -4.236   1.067 -32.194  1.00  0.00     0.042 A 
HETATM   22  C   UNL     1      -5.075  -0.049 -32.030  1.00  0.00    -0.021 A 
HETATM   23  C   UNL     1      -5.965  -0.067 -30.947  1.00  0.00     0.012 A 
HETATM   24  C   UNL     1      -6.041   1.016 -30.072  1.00  0.00     0.003 A 
HETATM   25  C   UNL     1      -5.234   2.133 -30.276  1.00  0.00     0.029 A 
BRANCH  22  26
HETATM   26  C   UNL     1      -5.073  -1.146 -32.989  1.00  0.00     0.010 A 
HETATM   27  C   UNL     1      -6.023  -1.514 -33.975  1.00  0.00     0.152 A 
HETATM   28  N   UNL     1      -5.649  -2.576 -34.693  1.00  0.00    -0.187 NA
HETATM   29  N   UNL     1      -4.451  -2.892 -34.176  1.00  0.00    -0.289 N 
HETATM   30  H   UNL     1      -3.948  -3.678 -34.575  1.00  0.00     0.188 HD
HETATM   31  C   UNL     1      -4.065  -2.073 -33.156  1.00  0.00     0.123 A 
ENDBRANCH  22  26
ENDBRANCH   2  20
TORSDOF 6
ENDMDL
MODEL 8
REMARK VINA RESULT:      -8.8      2.664      8.747
REMARK  6 active torsions:
REMARK  status: ('A' for Active; 'I' for Inactive)
REMARK    1  A    between atoms: C_3  and  C_4 
REMARK       I    between atoms: C_4  and  N_5 
REMARK    2  A    between atoms: N_5  and  C_6 
REMARK    3  A    between atoms: C_6  and  C_7 
REMARK    4  A    between atoms: C_6  and  C_22 
REMARK       I    between atoms: C_7  and  N_8 
REMARK    5  A    between atoms: N_8  and  C_9 
REMARK    6  A    between atoms: C_11  and  C_12 
ROOT
HETATM    1  C   UNL     1      -5.954   1.939 -31.672  1.00  0.00     0.245 C 
HETATM    2  N   UNL     1      -5.155   1.387 -32.655  1.00  0.00    -0.325 N 
HETATM    3  O   UNL     1      -6.485   1.292 -30.771  1.00  0.00    -0.271 OA
HETATM    4  H   UNL     1      -4.808   2.033 -33.362  1.00  0.00     0.169 HD
ENDROOT
BRANCH   1   5
HETATM    5  C   UNL     1      -5.972   3.506 -31.682  1.00  0.00     0.180 C 
BRANCH   5   6
HETATM    6  N   UNL     1      -4.898   4.173 -32.450  1.00  0.00    -0.343 N 
HETATM    7  C   UNL     1      -3.589   4.190 -32.027  1.00  0.00     0.252 C 
HETATM    8  O   UNL     1      -3.095   3.333 -31.307  1.00  0.00    -0.268 OA
HETATM    9  H   UNL     1      -5.178   4.928 -33.065  1.00  0.00     0.163 HD
BRANCH   7  10
HETATM   10  C   UNL     1      -2.772   5.315 -32.521  1.00  0.00     0.037 A 
HETATM   11  C   UNL     1      -2.658   6.512 -31.790  1.00  0.00    -0.046 A 
HETATM   12  C   UNL     1      -3.365   6.732 -30.482  1.00  0.00     0.049 C 
HETATM   13  C   UNL     1      -1.859   7.538 -32.316  1.00  0.00     0.007 A 
HETATM   14  C   UNL     1      -1.168   7.360 -33.516  1.00  0.00     0.001 A 
HETATM   15  C   UNL     1      -1.267   6.157 -34.213  1.00  0.00     0.001 A 
HETATM   16  C   UNL     1      -2.067   5.130 -33.716  1.00  0.00     0.017 A 
ENDBRANCH   7  10
ENDBRANCH   5   6
BRANCH   5  17
HETATM   17  C   UNL     1      -7.339   4.121 -32.100  1.00  0.00     0.009 C 
HETATM   18  C   UNL     1      -8.224   3.156 -32.896  1.00  0.00     0.012 C 
HETATM   19  C   UNL     1      -8.111   4.722 -30.923  1.00  0.00     0.012 C 
ENDBRANCH   5  17
ENDBRANCH   1   5
BRANCH   2  20
HETATM   20  C   UNL     1      -4.665   0.070 -32.747  1.00  0.00     0.035 A 
HETATM   21  C   UNL     1      -5.235  -0.918 -33.555  1.00  0.00     0.042 A 
HETATM   22  C   UNL     1      -4.762  -2.242 -33.525  1.00  0.00    -0.021 A 
HETATM   23  C   UNL     1      -3.667  -2.546 -32.704  1.00  0.00     0.012 A 
HETATM   24  C   UNL     1      -3.082  -1.562 -31.907  1.00  0.00     0.003 A 
HETATM   25  C   UNL     1      -3.592  -0.265 -31.916  1.00  0.00     0.029 A 
BRANCH  22  26
HETATM   26  C   UNL     1      -5.422  -3.299 -34.280  1.00  0.00     0.010 A 
HETATM   27  C   UNL     1      -4.968  -4.587 -34.658  1.00  0.00     0.152 A 
HETATM   28  N   UNL     1      -5.885  -5.291 -35.328  1.00  0.00    -0.187 NA
HETATM   29  N   UNL     1      -6.938  -4.460 -35.375  1.00  0.00    -0.289 N 
HETATM   30  H   UNL     1      -7.783  -4.782 -35.834  1.00  0.00     0.188 HD
HETATM   31  C   UNL     1      -6.712  -3.259 -34.769  1.00  0.00     0.123 A 
ENDBRANCH  22  26
ENDBRANCH   2  20
TORSDOF 6
ENDMDL
MODEL 9
REMARK VINA RESULT:      -8.7      3.317      4.904
REMARK  6 active torsions:
REMARK  status: ('A' for Active; 'I' for Inactive)
REMARK    1  A    between atoms: C_3  and  C_4 
REMARK       I    between atoms: C_4  and  N_5 
REMARK    2  A    between atoms: N_5  and  C_6 
REMARK    3  A    between atoms: C_6  and  C_7 
REMARK    4  A    between atoms: C_6  and  C_22 
REMARK       I    between atoms: C_7  and  N_8 
REMARK    5  A    between atoms: N_8  and  C_9 
REMARK    6  A    between atoms: C_11  and  C_12 
ROOT
HETATM    1  C   UNL     1      -5.641   3.259 -32.377  1.00  0.00     0.245 C 
HETATM    2  N   UNL     1      -4.333   2.947 -32.696  1.00  0.00    -0.325 N 
HETATM    3  O   UNL     1      -5.997   4.339 -31.909  1.00  0.00    -0.271 OA
HETATM    4  H   UNL     1      -4.172   2.001 -33.041  1.00  0.00     0.169 HD
ENDROOT
BRANCH   1   5
HETATM    5  C   UNL     1      -6.677   2.182 -32.845  1.00  0.00     0.180 C 
BRANCH   5   6
HETATM    6  N   UNL     1      -7.819   2.671 -33.650  1.00  0.00    -0.343 N 
HETATM    7  C   UNL     1      -9.049   2.941 -33.097  1.00  0.00     0.252 C 
HETATM    8  O   UNL     1      -9.216   3.262 -31.929  1.00  0.00    -0.268 OA
HETATM    9  H   UNL     1      -7.812   2.442 -34.637  1.00  0.00     0.163 HD
BRANCH   7  10
HETATM   10  C   UNL     1     -10.198   2.850 -34.020  1.00  0.00     0.037 A 
HETATM   11  C   UNL     1     -10.972   1.679 -34.108  1.00  0.00    -0.046 A 
HETATM   12  C   UNL     1     -10.677   0.450 -33.295  1.00  0.00     0.049 C 
HETATM   13  C   UNL     1     -12.054   1.664 -35.001  1.00  0.00     0.007 A 
HETATM   14  C   UNL     1     -12.373   2.796 -35.755  1.00  0.00     0.001 A 
HETATM   15  C   UNL     1     -11.614   3.959 -35.633  1.00  0.00     0.001 A 
HETATM   16  C   UNL     1     -10.525   3.990 -34.763  1.00  0.00     0.017 A 
ENDBRANCH   7  10
ENDBRANCH   5   6
BRANCH   5  17
HETATM   17  C   UNL     1      -6.040   0.964 -33.574  1.00  0.00     0.009 C 
HETATM   18  C   UNL     1      -5.903  -0.276 -32.683  1.00  0.00     0.012 C 
HETATM   19  C   UNL     1      -6.745   0.614 -34.887  1.00  0.00     0.012 C 
ENDBRANCH   5  17
ENDBRANCH   1   5
BRANCH   2  20
HETATM   20  C   UNL     1      -3.210   3.796 -32.712  1.00  0.00     0.035 A 
HETATM   21  C   UNL     1      -2.420   4.065 -31.590  1.00  0.00     0.042 A 
HETATM   22  C   UNL     1      -1.374   5.002 -31.647  1.00  0.00    -0.021 A 
HETATM   23  C   UNL     1      -1.099   5.628 -32.870  1.00  0.00     0.012 A 
HETATM   24  C   UNL     1      -1.871   5.353 -33.999  1.00  0.00     0.003 A 
HETATM   25  C   UNL     1      -2.932   4.455 -33.914  1.00  0.00     0.029 A 
BRANCH  22  26
HETATM   26  C   UNL     1      -0.620   5.369 -30.455  1.00  0.00     0.010 A 
HETATM   27  C   UNL     1      -0.793   6.443 -29.547  1.00  0.00     0.152 A 
HETATM   28  N   UNL     1       0.091   6.429 -28.545  1.00  0.00    -0.187 NA
HETATM   29  N   UNL     1       0.831   5.340 -28.801  1.00  0.00    -0.289 N 
HETATM   30  H   UNL     1       1.579   5.105 -28.157  1.00  0.00     0.188 HD
HETATM   31  C   UNL     1       0.451   4.676 -29.930  1.00  0.00     0.123 A 
ENDBRANCH  22  26
ENDBRANCH   2  20
TORSDOF 6
ENDMDL
MODEL 10
REMARK VINA RESULT:      -8.6      5.002      8.281
REMARK  6 active torsions:
REMARK  status: ('A' for Active; 'I' for Inactive)
REMARK    1  A    between atoms: C_3  and  C_4 
REMARK       I    between atoms: C_4  and  N_5 
REMARK    2  A    between atoms: N_5  and  C_6 
REMARK    3  A    between atoms: C_6  and  C_7 
REMARK    4  A    between atoms: C_6  and  C_22 
REMARK       I    between atoms: C_7  and  N_8 
REMARK    5  A    between atoms: N_8  and  C_9 
REMARK    6  A    between atoms: C_11  and  C_12 
ROOT
HETATM    1  C   UNL     1      -8.000   2.792 -33.202  1.00  0.00     0.245 C 
HETATM    2  N   UNL     1      -8.186   1.443 -32.965  1.00  0.00    -0.325 N 
HETATM    3  O   UNL     1      -6.988   3.269 -33.711  1.00  0.00    -0.271 OA
HETATM    4  H   UNL     1      -9.058   1.188 -32.503  1.00  0.00     0.169 HD
ENDROOT
BRANCH   1   5
HETATM    5  C   UNL     1      -9.280   3.658 -32.945  1.00  0.00     0.180 C 
BRANCH   5   6
HETATM    6  N   UNL     1     -10.567   2.931 -32.877  1.00  0.00    -0.343 N 
HETATM    7  C   UNL     1     -11.640   3.254 -33.673  1.00  0.00     0.252 C 
HETATM    8  O   UNL     1     -11.540   3.789 -34.769  1.00  0.00    -0.268 OA
HETATM    9  H   UNL     1     -10.782   2.466 -32.003  1.00  0.00     0.163 HD
BRANCH   7  10
HETATM   10  C   UNL     1     -12.967   2.888 -33.138  1.00  0.00     0.037 A 
HETATM   11  C   UNL     1     -13.653   1.751 -33.604  1.00  0.00    -0.046 A 
HETATM   12  C   UNL     1     -13.100   0.854 -34.675  1.00  0.00     0.049 C 
HETATM   13  C   UNL     1     -14.907   1.459 -33.047  1.00  0.00     0.007 A 
HETATM   14  C   UNL     1     -15.441   2.256 -32.033  1.00  0.00     0.001 A 
HETATM   15  C   UNL     1     -14.734   3.362 -31.562  1.00  0.00     0.001 A 
HETATM   16  C   UNL     1     -13.494   3.680 -32.112  1.00  0.00     0.017 A 
ENDBRANCH   7  10
ENDBRANCH   5   6
BRANCH   5  17
HETATM   17  C   UNL     1      -9.173   4.597 -31.709  1.00  0.00     0.009 C 
HETATM   18  C   UNL     1      -9.822   5.968 -31.927  1.00  0.00     0.012 C 
HETATM   19  C   UNL     1      -9.685   3.952 -30.419  1.00  0.00     0.012 C 
ENDBRANCH   5  17
ENDBRANCH   1   5
BRANCH   2  20
HETATM   20  C   UNL     1      -7.381   0.363 -33.375  1.00  0.00     0.035 A 
HETATM   21  C   UNL     1      -6.252  -0.076 -32.678  1.00  0.00     0.042 A 
HETATM   22  C   UNL     1      -5.431  -1.093 -33.194  1.00  0.00    -0.021 A 
HETATM   23  C   UNL     1      -5.794  -1.701 -34.404  1.00  0.00     0.012 A 
HETATM   24  C   UNL     1      -6.929  -1.280 -35.098  1.00  0.00     0.003 A 
HETATM   25  C   UNL     1      -7.707  -0.240 -34.594  1.00  0.00     0.029 A 
BRANCH  22  26
HETATM   26  C   UNL     1      -4.193  -1.479 -32.529  1.00  0.00     0.010 A 
HETATM   27  C   UNL     1      -3.623  -2.756 -32.304  1.00  0.00     0.152 A 
HETATM   28  N   UNL     1      -2.444  -2.701 -31.677  1.00  0.00    -0.187 NA
HETATM   29  N   UNL     1      -2.248  -1.386 -31.503  1.00  0.00    -0.289 N 
HETATM   30  H   UNL     1      -1.393  -1.084 -31.048  1.00  0.00     0.188 HD
HETATM   31  C   UNL     1      -3.263  -0.614 -31.989  1.00  0.00     0.123 A 
ENDBRANCH  22  26
ENDBRANCH   2  20
TORSDOF 6
ENDMDL
