MODEL 1
REMARK VINA RESULT:      -9.2      0.000      0.000
REMARK  8 active torsions:
REMARK  status: ('A' for Active; 'I' for Inactive)
REMARK    1  A    between atoms: C_8  and  N_9 
REMARK    2  A    between atoms: C_10  and  S_11 
REMARK    3  A    between atoms: S_11  and  C_12 
REMARK    4  A    between atoms: C_12  and  C_13 
REMARK       I    between atoms: C_13  and  N_14 
REMARK    5  A    between atoms: N_14  and  C_15 
REMARK    6  A    between atoms: C_15  and  C_16 
REMARK    7  A    between atoms: C_16  and  C_17 
REMARK    8  A    between atoms: C_27  and  N_28 
ROOT
HETATM    1  N   UNL     1      -9.114   1.381 -33.261  1.00  0.00    -0.275 N 
HETATM    2  C   UNL     1      -9.008   2.645 -33.901  1.00  0.00     0.177 A 
HETATM    3  N   UNL     1      -9.966   3.266 -34.546  1.00  0.00    -0.204 NA
HETATM    4  C   UNL     1     -11.140   2.597 -34.544  1.00  0.00     0.162 A 
HETATM    5  C   UNL     1     -11.453   1.390 -33.980  1.00  0.00     0.081 A 
HETATM    6  C   UNL     1     -10.406   0.715 -33.274  1.00  0.00     0.124 A 
HETATM    7  N   UNL     1     -12.288   3.019 -35.146  1.00  0.00    -0.260 N 
HETATM    8  H   UNL     1     -12.440   3.881 -35.658  1.00  0.00     0.191 HD
HETATM    9  N   UNL     1     -13.305   2.135 -35.027  1.00  0.00    -0.177 NA
HETATM   10  C   UNL     1     -12.789   1.123 -34.310  1.00  0.00     0.068 A 
HETATM   11  C   UNL     1     -13.632  -0.058 -34.007  1.00  0.00     0.073 C 
ENDROOT
BRANCH   2  12
HETATM   12  S   UNL     1      -7.442   3.488 -33.908  1.00  0.00    -0.082 SA
BRANCH  12  13
HETATM   13  C   UNL     1      -7.630   4.532 -32.440  1.00  0.00     0.185 C 
BRANCH  13  14
HETATM   14  C   UNL     1      -6.506   4.343 -31.426  1.00  0.00     0.227 C 
HETATM   15  N   UNL     1      -5.370   3.773 -31.979  1.00  0.00    -0.360 N 
HETATM   16  H   UNL     1      -5.457   3.301 -32.872  1.00  0.00     0.162 HD
HETATM   17  O   UNL     1      -6.566   4.688 -30.250  1.00  0.00    -0.273 OA
BRANCH  15  18
HETATM   18  C   UNL     1      -4.206   3.462 -31.164  1.00  0.00     0.127 C 
BRANCH  18  19
HETATM   19  C   UNL     1      -2.997   3.110 -32.030  1.00  0.00     0.058 C 
BRANCH  19  20
HETATM   20  C   UNL     1      -2.295   4.332 -32.566  1.00  0.00    -0.057 A 
HETATM   21  C   UNL     1      -1.660   5.228 -31.696  1.00  0.00     0.007 A 
HETATM   22  C   UNL     1      -1.013   6.359 -32.198  1.00  0.00     0.001 A 
HETATM   23  C   UNL     1      -0.997   6.606 -33.569  1.00  0.00     0.000 A 
HETATM   24  C   UNL     1      -1.632   5.725 -34.441  1.00  0.00     0.001 A 
HETATM   25  C   UNL     1      -2.280   4.593 -33.943  1.00  0.00     0.007 A 
ENDBRANCH  19  20
ENDBRANCH  18  19
ENDBRANCH  15  18
ENDBRANCH  13  14
ENDBRANCH  12  13
ENDBRANCH   2  12
BRANCH   1  26
HETATM   26  C   UNL     1      -7.955   0.691 -32.793  1.00  0.00     0.051 A 
HETATM   27  C   UNL     1      -7.152  -0.099 -33.646  1.00  0.00    -0.013 A 
HETATM   28  C   UNL     1      -7.516  -0.299 -35.096  1.00  0.00     0.052 C 
HETATM   29  C   UNL     1      -6.028  -0.743 -33.095  1.00  0.00     0.042 A 
HETATM   30 CL   UNL     1      -5.019  -1.783 -34.040  1.00  0.00    -0.084 Cl
HETATM   31  C   UNL     1      -5.681  -0.568 -31.752  1.00  0.00     0.024 A 
HETATM   32  C   UNL     1      -6.455   0.241 -30.927  1.00  0.00     0.004 A 
HETATM   33  C   UNL     1      -7.587   0.864 -31.444  1.00  0.00     0.031 A 
ENDBRANCH   1  26
BRANCH   6  34
HETATM   34  N   UNL     1     -10.612  -0.444 -32.678  1.00  0.00    -0.384 N 
HETATM   35  H   UNL     1     -11.420  -1.011 -32.884  1.00  0.00     0.157 HD
HETATM   36  H   UNL     1      -9.962  -0.765 -31.972  1.00  0.00     0.157 HD
ENDBRANCH   6  34
TORSDOF 8
ENDMDL
MODEL 2
REMARK VINA RESULT:      -8.8      1.568      1.907
REMARK  8 active torsions:
REMARK  status: ('A' for Active; 'I' for Inactive)
REMARK    1  A    between atoms: C_8  and  N_9 
REMARK    2  A    between atoms: C_10  and  S_11 
REMARK    3  A    between atoms: S_11  and  C_12 
REMARK    4  A    between atoms: C_12  and  C_13 
REMARK       I    between atoms: C_13  and  N_14 
REMARK    5  A    between atoms: N_14  and  C_15 
REMARK    6  A    between atoms: C_15  and  C_16 
REMARK    7  A    between atoms: C_16  and  C_17 
REMARK    8  A    between atoms: C_27  and  N_28 
ROOT
HETATM    1  N   UNL     1      -8.908   1.593 -32.570  1.00  0.00    -0.275 N 
HETATM    2  C   UNL     1      -8.813   3.002 -32.726  1.00  0.00     0.177 A 
HETATM    3  N   UNL     1      -9.759   3.794 -33.172  1.00  0.00    -0.204 NA
HETATM    4  C   UNL     1     -10.908   3.148 -33.470  1.00  0.00     0.162 A 
HETATM    5  C   UNL     1     -11.207   1.816 -33.378  1.00  0.00     0.081 A 
HETATM    6  C   UNL     1     -10.174   0.953 -32.888  1.00  0.00     0.124 A 
HETATM    7  N   UNL     1     -12.039   3.735 -33.956  1.00  0.00    -0.260 N 
HETATM    8  H   UNL     1     -12.194   4.719 -34.147  1.00  0.00     0.191 HD
HETATM    9  N   UNL     1     -13.028   2.849 -34.211  1.00  0.00    -0.177 NA
HETATM   10  C   UNL     1     -12.515   1.659 -33.858  1.00  0.00     0.068 A 
HETATM   11  C   UNL     1     -13.330   0.434 -34.032  1.00  0.00     0.073 C 
ENDROOT
BRANCH   2  12
HETATM   12  S   UNL     1      -7.279   3.819 -32.350  1.00  0.00    -0.082 SA
BRANCH  12  13
HETATM   13  C   UNL     1      -6.636   4.085 -34.022  1.00  0.00     0.185 C 
BRANCH  13  14
HETATM   14  C   UNL     1      -5.461   5.058 -34.060  1.00  0.00     0.227 C 
HETATM   15  N   UNL     1      -4.479   4.684 -34.963  1.00  0.00    -0.360 N 
HETATM   16  H   UNL     1      -4.475   3.728 -35.298  1.00  0.00     0.162 HD
HETATM   17  O   UNL     1      -5.391   6.089 -33.398  1.00  0.00    -0.273 OA
BRANCH  15  18
HETATM   18  C   UNL     1      -3.253   5.454 -35.110  1.00  0.00     0.127 C 
BRANCH  18  19
HETATM   19  C   UNL     1      -2.098   4.813 -34.341  1.00  0.00     0.058 C 
BRANCH  19  20
HETATM   20  C   UNL     1      -1.583   5.693 -33.232  1.00  0.00    -0.057 A 
HETATM   21  C   UNL     1      -1.886   7.061 -33.209  1.00  0.00     0.007 A 
HETATM   22  C   UNL     1      -1.406   7.873 -32.180  1.00  0.00     0.001 A 
HETATM   23  C   UNL     1      -0.616   7.328 -31.169  1.00  0.00     0.000 A 
HETATM   24  C   UNL     1      -0.303   5.972 -31.188  1.00  0.00     0.001 A 
HETATM   25  C   UNL     1      -0.781   5.156 -32.215  1.00  0.00     0.007 A 
ENDBRANCH  19  20
ENDBRANCH  18  19
ENDBRANCH  15  18
ENDBRANCH  13  14
ENDBRANCH  12  13
ENDBRANCH   2  12
BRANCH   1  26
HETATM   26  C   UNL     1      -7.750   0.801 -32.302  1.00  0.00     0.051 A 
HETATM   27  C   UNL     1      -6.975   0.225 -33.334  1.00  0.00    -0.013 A 
HETATM   28  C   UNL     1      -7.369   0.374 -34.782  1.00  0.00     0.052 C 
HETATM   29  C   UNL     1      -5.851  -0.542 -32.973  1.00  0.00     0.042 A 
HETATM   30 CL   UNL     1      -4.875  -1.340 -34.157  1.00  0.00    -0.084 Cl
HETATM   31  C   UNL     1      -5.476  -0.690 -31.634  1.00  0.00     0.024 A 
HETATM   32  C   UNL     1      -6.223  -0.089 -30.626  1.00  0.00     0.004 A 
HETATM   33  C   UNL     1      -7.355   0.649 -30.958  1.00  0.00     0.031 A 
ENDBRANCH   1  26
BRANCH   6  34
HETATM   34  N   UNL     1     -10.369  -0.343 -32.743  1.00  0.00    -0.384 N 
HETATM   35  H   UNL     1     -10.010  -0.850 -31.948  1.00  0.00     0.157 HD
HETATM   36  H   UNL     1     -10.867  -0.856 -33.459  1.00  0.00     0.157 HD
ENDBRANCH   6  34
TORSDOF 8
ENDMDL
MODEL 3
REMARK VINA RESULT:      -8.4      3.435      7.585
REMARK  8 active torsions:
REMARK  status: ('A' for Active; 'I' for Inactive)
REMARK    1  A    between atoms: C_8  and  N_9 
REMARK    2  A    between atoms: C_10  and  S_11 
REMARK    3  A    between atoms: S_11  and  C_12 
REMARK    4  A    between atoms: C_12  and  C_13 
REMARK       I    between atoms: C_13  and  N_14 
REMARK    5  A    between atoms: N_14  and  C_15 
REMARK    6  A    between atoms: C_15  and  C_16 
REMARK    7  A    between atoms: C_16  and  C_17 
REMARK    8  A    between atoms: C_27  and  N_28 
ROOT
HETATM    1  N   UNL     1      -6.139   3.849 -32.612  1.00  0.00    -0.275 N 
HETATM    2  C   UNL     1      -5.891   3.535 -31.249  1.00  0.00     0.177 A 
HETATM    3  N   UNL     1      -4.721   3.537 -30.657  1.00  0.00    -0.204 NA
HETATM    4  C   UNL     1      -3.705   3.903 -31.471  1.00  0.00     0.162 A 
HETATM    5  C   UNL     1      -3.732   4.255 -32.793  1.00  0.00     0.081 A 
HETATM    6  C   UNL     1      -5.012   4.255 -33.436  1.00  0.00     0.124 A 
HETATM    7  N   UNL     1      -2.394   3.980 -31.107  1.00  0.00    -0.260 N 
HETATM    8  H   UNL     1      -1.991   3.799 -30.194  1.00  0.00     0.191 HD
HETATM    9  N   UNL     1      -1.580   4.328 -32.129  1.00  0.00    -0.177 NA
HETATM   10  C   UNL     1      -2.405   4.494 -33.176  1.00  0.00     0.068 A 
HETATM   11  C   UNL     1      -1.842   4.859 -34.497  1.00  0.00     0.073 C 
ENDROOT
BRANCH   2  12
HETATM   12  S   UNL     1      -7.245   3.032 -30.212  1.00  0.00    -0.082 SA
BRANCH  12  13
HETATM   13  C   UNL     1      -7.372   1.284 -30.670  1.00  0.00     0.185 C 
BRANCH  13  14
HETATM   14  C   UNL     1      -6.034   0.554 -30.610  1.00  0.00     0.227 C 
HETATM   15  N   UNL     1      -5.603   0.113 -31.852  1.00  0.00    -0.360 N 
HETATM   16  H   UNL     1      -6.281   0.060 -32.602  1.00  0.00     0.162 HD
HETATM   17  O   UNL     1      -5.373   0.397 -29.588  1.00  0.00    -0.273 OA
BRANCH  15  18
HETATM   18  C   UNL     1      -4.374  -0.652 -31.998  1.00  0.00     0.127 C 
BRANCH  18  19
HETATM   19  C   UNL     1      -4.090  -0.974 -33.465  1.00  0.00     0.058 C 
BRANCH  19  20
HETATM   20  C   UNL     1      -4.802  -2.219 -33.930  1.00  0.00    -0.057 A 
HETATM   21  C   UNL     1      -4.136  -3.452 -33.959  1.00  0.00     0.007 A 
HETATM   22  C   UNL     1      -4.799  -4.602 -34.392  1.00  0.00     0.001 A 
HETATM   23  C   UNL     1      -6.129  -4.530 -34.803  1.00  0.00     0.000 A 
HETATM   24  C   UNL     1      -6.797  -3.307 -34.785  1.00  0.00     0.001 A 
HETATM   25  C   UNL     1      -6.137  -2.155 -34.353  1.00  0.00     0.007 A 
ENDBRANCH  19  20
ENDBRANCH  18  19
ENDBRANCH  15  18
ENDBRANCH  13  14
ENDBRANCH  12  13
ENDBRANCH   2  12
BRANCH   1  26
HETATM   26  C   UNL     1      -7.409   3.589 -33.211  1.00  0.00     0.051 A 
HETATM   27  C   UNL     1      -8.403   4.586 -33.332  1.00  0.00    -0.013 A 
HETATM   28  C   UNL     1      -8.191   5.972 -32.779  1.00  0.00     0.052 C 
HETATM   29  C   UNL     1      -9.626   4.236 -33.937  1.00  0.00     0.042 A 
HETATM   30 CL   UNL     1     -10.930   5.365 -34.076  1.00  0.00    -0.084 Cl
HETATM   31  C   UNL     1      -9.837   2.954 -34.453  1.00  0.00     0.024 A 
HETATM   32  C   UNL     1      -8.840   1.989 -34.363  1.00  0.00     0.004 A 
HETATM   33  C   UNL     1      -7.634   2.304 -33.743  1.00  0.00     0.031 A 
ENDBRANCH   1  26
BRANCH   6  34
HETATM   34  N   UNL     1      -5.147   4.599 -34.702  1.00  0.00    -0.384 N 
HETATM   35  H   UNL     1      -5.289   5.557 -34.981  1.00  0.00     0.157 HD
HETATM   36  H   UNL     1      -5.138   3.882 -35.418  1.00  0.00     0.157 HD
ENDBRANCH   6  34
TORSDOF 8
ENDMDL
MODEL 4
REMARK VINA RESULT:      -8.4      4.664      7.244
REMARK  8 active torsions:
REMARK  status: ('A' for Active; 'I' for Inactive)
REMARK    1  A    between atoms: C_8  and  N_9 
REMARK    2  A    between atoms: C_10  and  S_11 
REMARK    3  A    between atoms: S_11  and  C_12 
REMARK    4  A    between atoms: C_12  and  C_13 
REMARK       I    between atoms: C_13  and  N_14 
REMARK    5  A    between atoms: N_14  and  C_15 
REMARK    6  A    between atoms: C_15  and  C_16 
REMARK    7  A    between atoms: C_16  and  C_17 
REMARK    8  A    between atoms: C_27  and  N_28 
ROOT
HETATM    1  N   UNL     1     -12.304   5.118 -34.063  1.00  0.00    -0.275 N 
HETATM    2  C   UNL     1     -10.891   5.097 -33.929  1.00  0.00     0.177 A 
HETATM    3  N   UNL     1     -10.044   5.875 -34.560  1.00  0.00    -0.204 NA
HETATM    4  C   UNL     1     -10.640   6.769 -35.380  1.00  0.00     0.162 A 
HETATM    5  C   UNL     1     -11.970   6.962 -35.637  1.00  0.00     0.081 A 
HETATM    6  C   UNL     1     -12.893   6.113 -34.945  1.00  0.00     0.124 A 
HETATM    7  N   UNL     1      -9.990   7.684 -36.153  1.00  0.00    -0.260 N 
HETATM    8  H   UNL     1      -8.990   7.844 -36.217  1.00  0.00     0.191 HD
HETATM    9  N   UNL     1     -10.826   8.426 -36.913  1.00  0.00    -0.177 NA
HETATM   10  C   UNL     1     -12.053   7.977 -36.600  1.00  0.00     0.068 A 
HETATM   11  C   UNL     1     -13.235   8.558 -37.278  1.00  0.00     0.073 C 
ENDROOT
BRANCH   2  12
HETATM   12  S   UNL     1     -10.136   3.892 -32.861  1.00  0.00    -0.082 SA
BRANCH  12  13
HETATM   13  C   UNL     1      -9.320   2.838 -34.089  1.00  0.00     0.185 C 
BRANCH  13  14
HETATM   14  C   UNL     1      -8.551   1.679 -33.462  1.00  0.00     0.227 C 
HETATM   15  N   UNL     1      -8.419   0.595 -34.314  1.00  0.00    -0.360 N 
HETATM   16  H   UNL     1      -9.032   0.540 -35.119  1.00  0.00     0.162 HD
HETATM   17  O   UNL     1      -8.060   1.699 -32.337  1.00  0.00    -0.273 OA
BRANCH  15  18
HETATM   18  C   UNL     1      -7.762  -0.631 -33.884  1.00  0.00     0.127 C 
BRANCH  18  19
HETATM   19  C   UNL     1      -6.403  -0.802 -34.562  1.00  0.00     0.058 C 
BRANCH  19  20
HETATM   20  C   UNL     1      -5.920  -2.230 -34.535  1.00  0.00    -0.057 A 
HETATM   21  C   UNL     1      -6.791  -3.283 -34.846  1.00  0.00     0.007 A 
HETATM   22  C   UNL     1      -6.339  -4.604 -34.819  1.00  0.00     0.001 A 
HETATM   23  C   UNL     1      -5.018  -4.884 -34.476  1.00  0.00     0.000 A 
HETATM   24  C   UNL     1      -4.147  -3.844 -34.158  1.00  0.00     0.001 A 
HETATM   25  C   UNL     1      -4.595  -2.522 -34.184  1.00  0.00     0.007 A 
ENDBRANCH  19  20
ENDBRANCH  18  19
ENDBRANCH  15  18
ENDBRANCH  13  14
ENDBRANCH  12  13
ENDBRANCH   2  12
BRANCH   1  26
HETATM   26  C   UNL     1     -13.114   4.079 -33.513  1.00  0.00     0.051 A 
HETATM   27  C   UNL     1     -13.290   2.836 -34.163  1.00  0.00    -0.013 A 
HETATM   28  C   UNL     1     -12.671   2.565 -35.511  1.00  0.00     0.052 C 
HETATM   29  C   UNL     1     -14.108   1.871 -33.544  1.00  0.00     0.042 A 
HETATM   30 CL   UNL     1     -14.439   0.345 -34.287  1.00  0.00    -0.084 Cl
HETATM   31  C   UNL     1     -14.690   2.110 -32.295  1.00  0.00     0.024 A 
HETATM   32  C   UNL     1     -14.482   3.321 -31.644  1.00  0.00     0.004 A 
HETATM   33  C   UNL     1     -13.701   4.301 -32.251  1.00  0.00     0.031 A 
ENDBRANCH   1  26
BRANCH   6  34
HETATM   34  N   UNL     1     -14.196   6.233 -35.109  1.00  0.00    -0.384 N 
HETATM   35  H   UNL     1     -14.611   7.080 -35.467  1.00  0.00     0.157 HD
HETATM   36  H   UNL     1     -14.805   5.470 -34.843  1.00  0.00     0.157 HD
ENDBRANCH   6  34
TORSDOF 8
ENDMDL
MODEL 5
REMARK VINA RESULT:      -8.3      3.349      5.275
REMARK  8 active torsions:
REMARK  status: ('A' for Active; 'I' for Inactive)
REMARK    1  A    between atoms: C_8  and  N_9 
REMARK    2  A    between atoms: C_10  and  S_11 
REMARK    3  A    between atoms: S_11  and  C_12 
REMARK    4  A    between atoms: C_12  and  C_13 
REMARK       I    between atoms: C_13  and  N_14 
REMARK    5  A    between atoms: N_14  and  C_15 
REMARK    6  A    between atoms: C_15  and  C_16 
REMARK    7  A    between atoms: C_16  and  C_17 
REMARK    8  A    between atoms: C_27  and  N_28 
ROOT
HETATM    1  N   UNL     1      -5.621   0.083 -33.655  1.00  0.00    -0.275 N 
HETATM    2  C   UNL     1      -4.365  -0.078 -33.013  1.00  0.00     0.177 A 
HETATM    3  N   UNL     1      -3.679  -1.194 -32.930  1.00  0.00    -0.204 NA
HETATM    4  C   UNL     1      -4.270  -2.238 -33.552  1.00  0.00     0.162 A 
HETATM    5  C   UNL     1      -5.455  -2.288 -34.233  1.00  0.00     0.081 A 
HETATM    6  C   UNL     1      -6.201  -1.069 -34.325  1.00  0.00     0.124 A 
HETATM    7  N   UNL     1      -3.771  -3.505 -33.609  1.00  0.00    -0.260 N 
HETATM    8  H   UNL     1      -2.898  -3.847 -33.221  1.00  0.00     0.191 HD
HETATM    9  N   UNL     1      -4.586  -4.367 -34.257  1.00  0.00    -0.177 NA
HETATM   10  C   UNL     1      -5.633  -3.618 -34.641  1.00  0.00     0.068 A 
HETATM   11  C   UNL     1      -6.756  -4.254 -35.368  1.00  0.00     0.073 C 
ENDROOT
BRANCH   2  12
HETATM   12  S   UNL     1      -3.628   1.309 -32.181  1.00  0.00    -0.082 SA
BRANCH  12  13
HETATM   13  C   UNL     1      -4.534   1.264 -30.612  1.00  0.00     0.185 C 
BRANCH  13  14
HETATM   14  C   UNL     1      -5.152   2.610 -30.244  1.00  0.00     0.227 C 
HETATM   15  N   UNL     1      -4.482   3.685 -30.805  1.00  0.00    -0.360 N 
HETATM   16  H   UNL     1      -3.543   3.534 -31.155  1.00  0.00     0.162 HD
HETATM   17  O   UNL     1      -6.160   2.745 -29.557  1.00  0.00    -0.273 OA
BRANCH  15  18
HETATM   18  C   UNL     1      -4.886   5.055 -30.530  1.00  0.00     0.127 C 
BRANCH  18  19
HETATM   19  C   UNL     1      -3.805   6.050 -30.954  1.00  0.00     0.058 C 
BRANCH  19  20
HETATM   20  C   UNL     1      -3.229   5.733 -32.310  1.00  0.00    -0.057 A 
HETATM   21  C   UNL     1      -4.027   5.807 -33.459  1.00  0.00     0.007 A 
HETATM   22  C   UNL     1      -3.489   5.511 -34.713  1.00  0.00     0.001 A 
HETATM   23  C   UNL     1      -2.152   5.135 -34.829  1.00  0.00     0.000 A 
HETATM   24  C   UNL     1      -1.353   5.051 -33.692  1.00  0.00     0.001 A 
HETATM   25  C   UNL     1      -1.887   5.346 -32.436  1.00  0.00     0.007 A 
ENDBRANCH  19  20
ENDBRANCH  18  19
ENDBRANCH  15  18
ENDBRANCH  13  14
ENDBRANCH  12  13
ENDBRANCH   2  12
BRANCH   1  26
HETATM   26  C   UNL     1      -6.389   1.276 -33.486  1.00  0.00     0.051 A 
HETATM   27  C   UNL     1      -7.443   1.368 -32.550  1.00  0.00    -0.013 A 
HETATM   28  C   UNL     1      -7.851   0.180 -31.714  1.00  0.00     0.052 C 
HETATM   29  C   UNL     1      -8.144   2.585 -32.454  1.00  0.00     0.042 A 
HETATM   30 CL   UNL     1      -9.491   2.779 -31.385  1.00  0.00    -0.084 Cl
HETATM   31  C   UNL     1      -7.779   3.693 -33.224  1.00  0.00     0.024 A 
HETATM   32  C   UNL     1      -6.716   3.607 -34.117  1.00  0.00     0.004 A 
HETATM   33  C   UNL     1      -6.027   2.405 -34.249  1.00  0.00     0.031 A 
ENDBRANCH   1  26
BRANCH   6  34
HETATM   34  N   UNL     1      -7.346  -1.009 -34.978  1.00  0.00    -0.384 N 
HETATM   35  H   UNL     1      -7.557  -1.632 -35.742  1.00  0.00     0.157 HD
HETATM   36  H   UNL     1      -8.025  -0.300 -34.730  1.00  0.00     0.157 HD
ENDBRANCH   6  34
TORSDOF 8
ENDMDL
MODEL 6
REMARK VINA RESULT:      -8.3      3.083      6.505
REMARK  8 active torsions:
REMARK  status: ('A' for Active; 'I' for Inactive)
REMARK    1  A    between atoms: C_8  and  N_9 
REMARK    2  A    between atoms: C_10  and  S_11 
REMARK    3  A    between atoms: S_11  and  C_12 
REMARK    4  A    between atoms: C_12  and  C_13 
REMARK       I    between atoms: C_13  and  N_14 
REMARK    5  A    between atoms: N_14  and  C_15 
REMARK    6  A    between atoms: C_15  and  C_16 
REMARK    7  A    between atoms: C_16  and  C_17 
REMARK    8  A    between atoms: C_27  and  N_28 
ROOT
HETATM    1  N   UNL     1      -7.037   4.478 -32.280  1.00  0.00    -0.275 N 
HETATM    2  C   UNL     1      -7.097   3.297 -31.493  1.00  0.00     0.177 A 
HETATM    3  N   UNL     1      -8.148   2.529 -31.333  1.00  0.00    -0.204 NA
HETATM    4  C   UNL     1      -9.232   2.947 -32.025  1.00  0.00     0.162 A 
HETATM    5  C   UNL     1      -9.376   4.035 -32.842  1.00  0.00     0.081 A 
HETATM    6  C   UNL     1      -8.226   4.870 -33.018  1.00  0.00     0.124 A 
HETATM    7  N   UNL     1     -10.449   2.334 -32.027  1.00  0.00    -0.260 N 
HETATM    8  H   UNL     1     -10.719   1.487 -31.539  1.00  0.00     0.191 HD
HETATM    9  N   UNL     1     -11.371   2.988 -32.770  1.00  0.00    -0.177 NA
HETATM   10  C   UNL     1     -10.711   4.044 -33.273  1.00  0.00     0.068 A 
HETATM   11  C   UNL     1     -11.433   5.013 -34.130  1.00  0.00     0.073 C 
ENDROOT
BRANCH   2  12
HETATM   12  S   UNL     1      -5.662   2.789 -30.574  1.00  0.00    -0.082 SA
BRANCH  12  13
HETATM   13  C   UNL     1      -4.876   1.691 -31.782  1.00  0.00     0.185 C 
BRANCH  13  14
HETATM   14  C   UNL     1      -5.701   0.441 -32.076  1.00  0.00     0.227 C 
HETATM   15  N   UNL     1      -6.419   0.532 -33.257  1.00  0.00    -0.360 N 
HETATM   16  H   UNL     1      -6.559   1.450 -33.662  1.00  0.00     0.162 HD
HETATM   17  O   UNL     1      -5.710  -0.566 -31.374  1.00  0.00    -0.273 OA
BRANCH  15  18
HETATM   18  C   UNL     1      -7.308  -0.536 -33.687  1.00  0.00     0.127 C 
BRANCH  18  19
HETATM   19  C   UNL     1      -6.823  -1.175 -34.988  1.00  0.00     0.058 C 
BRANCH  19  20
HETATM   20  C   UNL     1      -6.103  -2.479 -34.758  1.00  0.00    -0.057 A 
HETATM   21  C   UNL     1      -4.782  -2.490 -34.289  1.00  0.00     0.007 A 
HETATM   22  C   UNL     1      -4.118  -3.700 -34.078  1.00  0.00     0.001 A 
HETATM   23  C   UNL     1      -4.765  -4.907 -34.337  1.00  0.00     0.000 A 
HETATM   24  C   UNL     1      -6.075  -4.906 -34.809  1.00  0.00     0.001 A 
HETATM   25  C   UNL     1      -6.742  -3.698 -35.022  1.00  0.00     0.007 A 
ENDBRANCH  19  20
ENDBRANCH  18  19
ENDBRANCH  15  18
ENDBRANCH  13  14
ENDBRANCH  12  13
ENDBRANCH   2  12
BRANCH   1  26
HETATM   26  C   UNL     1      -5.918   5.363 -32.199  1.00  0.00     0.051 A 
HETATM   27  C   UNL     1      -4.911   5.397 -33.188  1.00  0.00    -0.013 A 
HETATM   28  C   UNL     1      -4.937   4.451 -34.362  1.00  0.00     0.052 C 
HETATM   29  C   UNL     1      -3.845   6.303 -33.023  1.00  0.00     0.042 A 
HETATM   30 CL   UNL     1      -2.530   6.377 -34.144  1.00  0.00    -0.084 Cl
HETATM   31  C   UNL     1      -3.807   7.184 -31.938  1.00  0.00     0.024 A 
HETATM   32  C   UNL     1      -4.822   7.170 -30.987  1.00  0.00     0.004 A 
HETATM   33  C   UNL     1      -5.870   6.263 -31.115  1.00  0.00     0.031 A 
ENDBRANCH   1  26
BRANCH   6  34
HETATM   34  N   UNL     1      -8.257   5.931 -33.801  1.00  0.00    -0.384 N 
HETATM   35  H   UNL     1      -8.377   6.861 -33.432  1.00  0.00     0.157 HD
HETATM   36  H   UNL     1      -8.190   5.812 -34.804  1.00  0.00     0.157 HD
ENDBRANCH   6  34
TORSDOF 8
ENDMDL
MODEL 7
REMARK VINA RESULT:      -8.1      2.982      5.469
REMARK  8 active torsions:
REMARK  status: ('A' for Active; 'I' for Inactive)
REMARK    1  A    between atoms: C_8  and  N_9 
REMARK    2  A    between atoms: C_10  and  S_11 
REMARK    3  A    between atoms: S_11  and  C_12 
REMARK    4  A    between atoms: C_12  and  C_13 
REMARK       I    between atoms: C_13  and  N_14 
REMARK    5  A    between atoms: N_14  and  C_15 
REMARK    6  A    between atoms: C_15  and  C_16 
REMARK    7  A    between atoms: C_16  and  C_17 
REMARK    8  A    between atoms: C_27  and  N_28 
ROOT
HETATM    1  N   UNL     1      -6.936   0.341 -32.881  1.00  0.00    -0.275 N 
HETATM    2  C   UNL     1      -6.283   0.677 -31.665  1.00  0.00     0.177 A 
HETATM    3  N   UNL     1      -5.206   0.102 -31.184  1.00  0.00    -0.204 NA
HETATM    4  C   UNL     1      -4.714  -0.875 -31.978  1.00  0.00     0.162 A 
HETATM    5  C   UNL     1      -5.179  -1.335 -33.179  1.00  0.00     0.081 A 
HETATM    6  C   UNL     1      -6.352  -0.704 -33.705  1.00  0.00     0.124 A 
HETATM    7  N   UNL     1      -3.612  -1.630 -31.707  1.00  0.00    -0.260 N 
HETATM    8  H   UNL     1      -2.999  -1.566 -30.902  1.00  0.00     0.191 HD
HETATM    9  N   UNL     1      -3.368  -2.567 -32.650  1.00  0.00    -0.177 NA
HETATM   10  C   UNL     1      -4.339  -2.391 -33.561  1.00  0.00     0.068 A 
HETATM   11  C   UNL     1      -4.399  -3.282 -34.743  1.00  0.00     0.073 C 
ENDROOT
BRANCH   2  12
HETATM   12  S   UNL     1      -6.969   1.949 -30.630  1.00  0.00    -0.082 SA
BRANCH  12  13
HETATM   13  C   UNL     1      -5.451   2.675 -29.960  1.00  0.00     0.185 C 
BRANCH  13  14
HETATM   14  C   UNL     1      -4.935   3.849 -30.788  1.00  0.00     0.227 C 
HETATM   15  N   UNL     1      -3.554   3.872 -30.891  1.00  0.00    -0.360 N 
HETATM   16  H   UNL     1      -3.015   3.323 -30.231  1.00  0.00     0.162 HD
HETATM   17  O   UNL     1      -5.653   4.673 -31.347  1.00  0.00    -0.273 OA
BRANCH  15  18
HETATM   18  C   UNL     1      -2.865   4.942 -31.596  1.00  0.00     0.127 C 
BRANCH  18  19
HETATM   19  C   UNL     1      -1.375   4.966 -31.255  1.00  0.00     0.058 C 
BRANCH  19  20
HETATM   20  C   UNL     1      -1.006   6.121 -30.360  1.00  0.00    -0.057 A 
HETATM   21  C   UNL     1       0.249   6.169 -29.739  1.00  0.00     0.007 A 
HETATM   22  C   UNL     1       0.586   7.241 -28.910  1.00  0.00     0.001 A 
HETATM   23  C   UNL     1      -0.328   8.270 -28.691  1.00  0.00     0.000 A 
HETATM   24  C   UNL     1      -1.581   8.227 -29.298  1.00  0.00     0.001 A 
HETATM   25  C   UNL     1      -1.921   7.157 -30.128  1.00  0.00     0.007 A 
ENDBRANCH  19  20
ENDBRANCH  18  19
ENDBRANCH  15  18
ENDBRANCH  13  14
ENDBRANCH  12  13
ENDBRANCH   2  12
BRANCH   1  26
HETATM   26  C   UNL     1      -8.227   0.866 -33.195  1.00  0.00     0.051 A 
HETATM   27  C   UNL     1      -8.397   2.111 -33.842  1.00  0.00    -0.013 A 
HETATM   28  C   UNL     1      -7.214   2.981 -34.185  1.00  0.00     0.052 C 
HETATM   29  C   UNL     1      -9.709   2.547 -34.110  1.00  0.00     0.042 A 
HETATM   30 CL   UNL     1     -10.026   4.083 -34.840  1.00  0.00    -0.084 Cl
HETATM   31  C   UNL     1     -10.814   1.751 -33.795  1.00  0.00     0.024 A 
HETATM   32  C   UNL     1     -10.637   0.511 -33.192  1.00  0.00     0.004 A 
HETATM   33  C   UNL     1      -9.351   0.072 -32.891  1.00  0.00     0.031 A 
ENDBRANCH   1  26
BRANCH   6  34
HETATM   34  N   UNL     1      -6.867  -1.063 -34.865  1.00  0.00    -0.384 N 
HETATM   35  H   UNL     1      -6.726  -0.516 -35.701  1.00  0.00     0.157 HD
HETATM   36  H   UNL     1      -7.444  -1.892 -34.920  1.00  0.00     0.157 HD
ENDBRANCH   6  34
TORSDOF 8
ENDMDL
MODEL 8
REMARK VINA RESULT:      -8.0     16.741     19.060
REMARK  8 active torsions:
REMARK  status: ('A' for Active; 'I' for Inactive)
REMARK    1  A    between atoms: C_8  and  N_9 
REMARK    2  A    between atoms: C_10  and  S_11 
REMARK    3  A    between atoms: S_11  and  C_12 
REMARK    4  A    between atoms: C_12  and  C_13 
REMARK       I    between atoms: C_13  and  N_14 
REMARK    5  A    between atoms: N_14  and  C_15 
REMARK    6  A    between atoms: C_15  and  C_16 
REMARK    7  A    between atoms: C_16  and  C_17 
REMARK    8  A    between atoms: C_27  and  N_28 
ROOT
HETATM    1  N   UNL     1      -3.001 -15.090 -37.609  1.00  0.00    -0.275 N 
HETATM    2  C   UNL     1      -3.914 -15.322 -38.672  1.00  0.00     0.177 A 
HETATM    3  N   UNL     1      -5.207 -15.103 -38.639  1.00  0.00    -0.204 NA
HETATM    4  C   UNL     1      -5.638 -14.591 -37.465  1.00  0.00     0.162 A 
HETATM    5  C   UNL     1      -4.929 -14.284 -36.336  1.00  0.00     0.081 A 
HETATM    6  C   UNL     1      -3.517 -14.521 -36.375  1.00  0.00     0.124 A 
HETATM    7  N   UNL     1      -6.932 -14.280 -37.169  1.00  0.00    -0.260 N 
HETATM    8  H   UNL     1      -7.744 -14.366 -37.771  1.00  0.00     0.191 HD
HETATM    9  N   UNL     1      -7.093 -13.826 -35.906  1.00  0.00    -0.177 NA
HETATM   10  C   UNL     1      -5.855 -13.832 -35.385  1.00  0.00     0.068 A 
HETATM   11  C   UNL     1      -5.654 -13.412 -33.979  1.00  0.00     0.073 C 
ENDROOT
BRANCH   2  12
HETATM   12  S   UNL     1      -3.319 -16.020 -40.195  1.00  0.00    -0.082 SA
BRANCH  12  13
HETATM   13  C   UNL     1      -2.940 -14.508 -41.118  1.00  0.00     0.185 C 
BRANCH  13  14
HETATM   14  C   UNL     1      -4.168 -13.893 -41.783  1.00  0.00     0.227 C 
HETATM   15  N   UNL     1      -4.948 -13.159 -40.903  1.00  0.00    -0.360 N 
HETATM   16  H   UNL     1      -4.816 -13.306 -39.909  1.00  0.00     0.162 HD
HETATM   17  O   UNL     1      -4.433 -13.991 -42.977  1.00  0.00    -0.273 OA
BRANCH  15  18
HETATM   18  C   UNL     1      -6.191 -12.536 -41.332  1.00  0.00     0.127 C 
BRANCH  18  19
HETATM   19  C   UNL     1      -7.080 -12.187 -40.139  1.00  0.00     0.058 C 
BRANCH  19  20
HETATM   20  C   UNL     1      -8.471 -12.752 -40.271  1.00  0.00    -0.057 A 
HETATM   21  C   UNL     1      -8.667 -14.124 -40.479  1.00  0.00     0.007 A 
HETATM   22  C   UNL     1      -9.957 -14.642 -40.601  1.00  0.00     0.001 A 
HETATM   23  C   UNL     1     -11.062 -13.796 -40.522  1.00  0.00     0.000 A 
HETATM   24  C   UNL     1     -10.877 -12.430 -40.323  1.00  0.00     0.001 A 
HETATM   25  C   UNL     1      -9.588 -11.907 -40.200  1.00  0.00     0.007 A 
ENDBRANCH  19  20
ENDBRANCH  18  19
ENDBRANCH  15  18
ENDBRANCH  13  14
ENDBRANCH  12  13
ENDBRANCH   2  12
BRANCH   1  26
HETATM   26  C   UNL     1      -1.660 -15.580 -37.667  1.00  0.00     0.051 A 
HETATM   27  C   UNL     1      -0.575 -14.761 -38.051  1.00  0.00    -0.013 A 
HETATM   28  C   UNL     1      -0.788 -13.330 -38.477  1.00  0.00     0.052 C 
HETATM   29  C   UNL     1       0.712 -15.332 -38.080  1.00  0.00     0.042 A 
HETATM   30 CL   UNL     1       2.096 -14.432 -38.597  1.00  0.00    -0.084 Cl
HETATM   31  C   UNL     1       0.924 -16.658 -37.690  1.00  0.00     0.024 A 
HETATM   32  C   UNL     1      -0.144 -17.447 -37.278  1.00  0.00     0.004 A 
HETATM   33  C   UNL     1      -1.429 -16.912 -37.269  1.00  0.00     0.031 A 
ENDBRANCH   1  26
BRANCH   6  34
HETATM   34  N   UNL     1      -2.742 -14.239 -35.345  1.00  0.00    -0.384 N 
HETATM   35  H   UNL     1      -2.482 -14.939 -34.668  1.00  0.00     0.157 HD
HETATM   36  H   UNL     1      -2.420 -13.289 -35.209  1.00  0.00     0.157 HD
ENDBRANCH   6  34
TORSDOF 8
ENDMDL
MODEL 9
REMARK VINA RESULT:      -8.0      3.612      5.763
REMARK  8 active torsions:
REMARK  status: ('A' for Active; 'I' for Inactive)
REMARK    1  A    between atoms: C_8  and  N_9 
REMARK    2  A    between atoms: C_10  and  S_11 
REMARK    3  A    between atoms: S_11  and  C_12 
REMARK    4  A    between atoms: C_12  and  C_13 
REMARK       I    between atoms: C_13  and  N_14 
REMARK    5  A    between atoms: N_14  and  C_15 
REMARK    6  A    between atoms: C_15  and  C_16 
REMARK    7  A    between atoms: C_16  and  C_17 
REMARK    8  A    between atoms: C_27  and  N_28 
ROOT
HETATM    1  N   UNL     1      -6.016   1.470 -32.532  1.00  0.00    -0.275 N 
HETATM    2  C   UNL     1      -4.645   1.448 -32.164  1.00  0.00     0.177 A 
HETATM    3  N   UNL     1      -3.801   0.469 -32.389  1.00  0.00    -0.204 NA
HETATM    4  C   UNL     1      -4.349  -0.573 -33.053  1.00  0.00     0.162 A 
HETATM    5  C   UNL     1      -5.630  -0.741 -33.505  1.00  0.00     0.081 A 
HETATM    6  C   UNL     1      -6.547   0.331 -33.262  1.00  0.00     0.124 A 
HETATM    7  N   UNL     1      -3.694  -1.716 -33.404  1.00  0.00    -0.260 N 
HETATM    8  H   UNL     1      -2.720  -1.947 -33.241  1.00  0.00     0.191 HD
HETATM    9  N   UNL     1      -4.491  -2.616 -34.023  1.00  0.00    -0.177 NA
HETATM   10  C   UNL     1      -5.692  -2.017 -34.082  1.00  0.00     0.068 A 
HETATM   11  C   UNL     1      -6.836  -2.740 -34.685  1.00  0.00     0.073 C 
ENDROOT
BRANCH   2  12
HETATM   12  S   UNL     1      -3.961   2.823 -31.268  1.00  0.00    -0.082 SA
BRANCH  12  13
HETATM   13  C   UNL     1      -2.950   3.584 -32.565  1.00  0.00     0.185 C 
BRANCH  13  14
HETATM   14  C   UNL     1      -1.936   4.585 -32.019  1.00  0.00     0.227 C 
HETATM   15  N   UNL     1      -2.081   5.852 -32.561  1.00  0.00    -0.360 N 
HETATM   16  H   UNL     1      -2.617   5.948 -33.416  1.00  0.00     0.162 HD
HETATM   17  O   UNL     1      -1.097   4.326 -31.161  1.00  0.00    -0.273 OA
BRANCH  15  18
HETATM   18  C   UNL     1      -1.175   6.935 -32.208  1.00  0.00     0.127 C 
BRANCH  18  19
HETATM   19  C   UNL     1      -1.838   7.926 -31.251  1.00  0.00     0.058 C 
BRANCH  19  20
HETATM   20  C   UNL     1      -1.057   8.106 -29.975  1.00  0.00    -0.057 A 
HETATM   21  C   UNL     1      -1.480   9.023 -29.004  1.00  0.00     0.007 A 
HETATM   22  C   UNL     1      -0.752   9.187 -27.823  1.00  0.00     0.001 A 
HETATM   23  C   UNL     1       0.405   8.441 -27.605  1.00  0.00     0.000 A 
HETATM   24  C   UNL     1       0.837   7.532 -28.568  1.00  0.00     0.001 A 
HETATM   25  C   UNL     1       0.112   7.365 -29.750  1.00  0.00     0.007 A 
ENDBRANCH  19  20
ENDBRANCH  18  19
ENDBRANCH  15  18
ENDBRANCH  13  14
ENDBRANCH  12  13
ENDBRANCH   2  12
BRANCH   1  26
HETATM   26  C   UNL     1      -6.897   2.479 -32.035  1.00  0.00     0.051 A 
HETATM   27  C   UNL     1      -7.148   3.676 -32.743  1.00  0.00    -0.013 A 
HETATM   28  C   UNL     1      -6.447   3.976 -34.044  1.00  0.00     0.052 C 
HETATM   29  C   UNL     1      -8.032   4.613 -32.174  1.00  0.00     0.042 A 
HETATM   30 CL   UNL     1      -8.356   6.135 -32.929  1.00  0.00    -0.084 Cl
HETATM   31  C   UNL     1      -8.688   4.349 -30.967  1.00  0.00     0.024 A 
HETATM   32  C   UNL     1      -8.464   3.152 -30.295  1.00  0.00     0.004 A 
HETATM   33  C   UNL     1      -7.572   2.224 -30.824  1.00  0.00     0.031 A 
ENDBRANCH   1  26
BRANCH   6  34
HETATM   34  N   UNL     1      -7.799   0.275 -33.676  1.00  0.00    -0.384 N 
HETATM   35  H   UNL     1      -8.128   0.829 -34.451  1.00  0.00     0.157 HD
HETATM   36  H   UNL     1      -8.459  -0.317 -33.187  1.00  0.00     0.157 HD
ENDBRANCH   6  34
TORSDOF 8
ENDMDL
MODEL 10
REMARK VINA RESULT:      -8.0      3.370      6.522
REMARK  8 active torsions:
REMARK  status: ('A' for Active; 'I' for Inactive)
REMARK    1  A    between atoms: C_8  and  N_9 
REMARK    2  A    between atoms: C_10  and  S_11 
REMARK    3  A    between atoms: S_11  and  C_12 
REMARK    4  A    between atoms: C_12  and  C_13 
REMARK       I    between atoms: C_13  and  N_14 
REMARK    5  A    between atoms: N_14  and  C_15 
REMARK    6  A    between atoms: C_15  and  C_16 
REMARK    7  A    between atoms: C_16  and  C_17 
REMARK    8  A    between atoms: C_27  and  N_28 
ROOT
HETATM    1  N   UNL     1      -7.806   3.563 -32.058  1.00  0.00    -0.275 N 
HETATM    2  C   UNL     1      -7.441   2.554 -31.127  1.00  0.00     0.177 A 
HETATM    3  N   UNL     1      -7.990   1.367 -31.022  1.00  0.00    -0.204 NA
HETATM    4  C   UNL     1      -8.969   1.143 -31.925  1.00  0.00     0.162 A 
HETATM    5  C   UNL     1      -9.456   1.967 -32.904  1.00  0.00     0.081 A 
HETATM    6  C   UNL     1      -8.853   3.261 -33.019  1.00  0.00     0.124 A 
HETATM    7  N   UNL     1      -9.701  -0.002 -32.026  1.00  0.00    -0.260 N 
HETATM    8  H   UNL     1      -9.615  -0.845 -31.468  1.00  0.00     0.191 HD
HETATM    9  N   UNL     1     -10.648   0.056 -32.989  1.00  0.00    -0.177 NA
HETATM   10  C   UNL     1     -10.503   1.276 -33.532  1.00  0.00     0.068 A 
HETATM   11  C   UNL     1     -11.412   1.702 -34.621  1.00  0.00     0.073 C 
ENDROOT
BRANCH   2  12
HETATM   12  S   UNL     1      -6.166   2.890 -29.935  1.00  0.00    -0.082 SA
BRANCH  12  13
HETATM   13  C   UNL     1      -4.692   2.588 -30.943  1.00  0.00     0.185 C 
BRANCH  13  14
HETATM   14  C   UNL     1      -4.515   1.118 -31.314  1.00  0.00     0.227 C 
HETATM   15  N   UNL     1      -4.262   0.928 -32.663  1.00  0.00    -0.360 N 
HETATM   16  H   UNL     1      -4.477   1.685 -33.302  1.00  0.00     0.162 HD
HETATM   17  O   UNL     1      -4.549   0.191 -30.512  1.00  0.00    -0.273 OA
BRANCH  15  18
HETATM   18  C   UNL     1      -4.115  -0.406 -33.225  1.00  0.00     0.127 C 
BRANCH  18  19
HETATM   19  C   UNL     1      -5.378  -0.839 -33.968  1.00  0.00     0.058 C 
BRANCH  19  20
HETATM   20  C   UNL     1      -5.406  -2.320 -34.245  1.00  0.00    -0.057 A 
HETATM   21  C   UNL     1      -6.544  -2.921 -34.801  1.00  0.00     0.007 A 
HETATM   22  C   UNL     1      -6.565  -4.294 -35.054  1.00  0.00     0.001 A 
HETATM   23  C   UNL     1      -5.453  -5.078 -34.752  1.00  0.00     0.000 A 
HETATM   24  C   UNL     1      -4.321  -4.492 -34.193  1.00  0.00     0.001 A 
HETATM   25  C   UNL     1      -4.296  -3.119 -33.938  1.00  0.00     0.007 A 
ENDBRANCH  19  20
ENDBRANCH  18  19
ENDBRANCH  15  18
ENDBRANCH  13  14
ENDBRANCH  12  13
ENDBRANCH   2  12
BRANCH   1  26
HETATM   26  C   UNL     1      -7.308   4.897 -31.935  1.00  0.00     0.051 A 
HETATM   27  C   UNL     1      -7.868   5.830 -31.033  1.00  0.00    -0.013 A 
HETATM   28  C   UNL     1      -9.067   5.478 -30.190  1.00  0.00     0.052 C 
HETATM   29  C   UNL     1      -7.311   7.122 -30.982  1.00  0.00     0.042 A 
HETATM   30 CL   UNL     1      -7.964   8.355 -29.959  1.00  0.00    -0.084 Cl
HETATM   31  C   UNL     1      -6.200   7.462 -31.760  1.00  0.00     0.024 A 
HETATM   32  C   UNL     1      -5.632   6.527 -32.618  1.00  0.00     0.004 A 
HETATM   33  C   UNL     1      -6.184   5.252 -32.706  1.00  0.00     0.031 A 
ENDBRANCH   1  26
BRANCH   6  34
HETATM   34  N   UNL     1      -9.238   4.120 -33.944  1.00  0.00    -0.384 N 
HETATM   35  H   UNL     1     -10.175   4.491 -33.968  1.00  0.00     0.157 HD
HETATM   36  H   UNL     1      -8.588   4.397 -34.669  1.00  0.00     0.157 HD
ENDBRANCH   6  34
TORSDOF 8
ENDMDL
