MODEL 1
REMARK VINA RESULT:      -8.7      0.000      0.000
REMARK  4 active torsions:
REMARK  status: ('A' for Active; 'I' for Inactive)
REMARK    1  A    between atoms: C_9  and  C_10 
REMARK    2  A    between atoms: C_18  and  C_19 
REMARK       I    between atoms: C_19  and  N_20 
REMARK    3  A    between atoms: N_20  and  C_21 
REMARK    4  A    between atoms: C_24  and  O_25 
ROOT
HETATM    1  C   UNL     1      -8.613   5.064 -34.156  1.00  0.00     0.070 C 
HETATM    2  C   UNL     1      -8.894   3.610 -33.869  1.00  0.00     0.037 C 
HETATM    3  N   UNL     1     -10.123   3.144 -34.331  1.00  0.00    -0.192 N 
HETATM    4  C   UNL     1     -10.654   1.964 -33.959  1.00  0.00     0.725 A 
HETATM    5  N   UNL     1      -9.898   1.090 -33.227  1.00  0.00    -0.084 N 
HETATM    6  N   UNL     1     -10.614   0.006 -32.861  1.00  0.00    -0.149 NA
HETATM    7  C   UNL     1     -11.782   0.273 -33.455  1.00  0.00     0.275 A 
HETATM    8  N   UNL     1     -11.848   1.460 -34.139  1.00  0.00    -0.054 NA
HETATM    9  C   UNL     1      -8.528   1.369 -32.779  1.00  0.00     0.204 C 
HETATM   10  C   UNL     1      -8.093   2.788 -33.143  1.00  0.00     0.062 C 
HETATM   11  H   UNL     1     -10.730   3.805 -34.809  1.00  0.00     0.184 HD
ENDROOT
BRANCH  10  12
HETATM   12  C   UNL     1      -6.847   3.222 -32.451  1.00  0.00     0.256 C 
HETATM   13  N   UNL     1      -5.698   3.112 -33.200  1.00  0.00    -0.323 N 
HETATM   14  H   UNL     1      -5.776   2.668 -34.107  1.00  0.00     0.169 HD
HETATM   15  O   UNL     1      -6.936   3.597 -31.286  1.00  0.00    -0.267 OA
BRANCH  13  16
HETATM   16  C   UNL     1      -4.425   3.633 -32.872  1.00  0.00     0.035 A 
HETATM   17  C   UNL     1      -3.671   3.213 -31.776  1.00  0.00     0.032 A 
HETATM   18  C   UNL     1      -2.439   3.814 -31.489  1.00  0.00     0.039 A 
HETATM   19  C   UNL     1      -1.939   4.841 -32.288  1.00  0.00     0.068 A 
HETATM   20  C   UNL     1      -2.685   5.266 -33.385  1.00  0.00     0.039 A 
HETATM   21  C   UNL     1      -3.918   4.662 -33.676  1.00  0.00     0.032 A 
BRANCH  19  22
HETATM   22  O   UNL     1      -0.733   5.340 -31.886  1.00  0.00    -0.356 OA
HETATM   23  C   UNL     1      -0.351   5.102 -30.539  1.00  0.00     0.210 C 
ENDBRANCH  19  22
ENDBRANCH  13  16
ENDBRANCH  10  12
BRANCH   9  24
HETATM   24  C   UNL     1      -7.572   0.265 -33.239  1.00  0.00    -0.006 A 
HETATM   25  C   UNL     1      -6.618  -0.363 -32.417  1.00  0.00     0.044 A 
HETATM   26 CL   UNL     1      -6.476  -0.037 -30.727  1.00  0.00    -0.084 Cl
HETATM   27  C   UNL     1      -5.732  -1.313 -32.940  1.00  0.00     0.048 A 
HETATM   28  C   UNL     1      -5.799  -1.661 -34.285  1.00  0.00     0.035 A 
HETATM   29 CL   UNL     1      -4.702  -2.822 -34.923  1.00  0.00    -0.084 Cl
HETATM   30  C   UNL     1      -6.751  -1.081 -35.113  1.00  0.00     0.024 A 
HETATM   31  C   UNL     1      -7.630  -0.127 -34.594  1.00  0.00     0.013 A 
ENDBRANCH   9  24
TORSDOF 4
ENDMDL
MODEL 2
REMARK VINA RESULT:      -8.5      2.736      7.019
REMARK  4 active torsions:
REMARK  status: ('A' for Active; 'I' for Inactive)
REMARK    1  A    between atoms: C_9  and  C_10 
REMARK    2  A    between atoms: C_18  and  C_19 
REMARK       I    between atoms: C_19  and  N_20 
REMARK    3  A    between atoms: N_20  and  C_21 
REMARK    4  A    between atoms: C_24  and  O_25 
ROOT
HETATM    1  C   UNL     1      -6.676   4.525 -29.314  1.00  0.00     0.070 C 
HETATM    2  C   UNL     1      -5.680   4.011 -30.324  1.00  0.00     0.037 C 
HETATM    3  N   UNL     1      -4.465   4.694 -30.353  1.00  0.00    -0.192 N 
HETATM    4  C   UNL     1      -3.560   4.548 -31.340  1.00  0.00     0.725 A 
HETATM    5  N   UNL     1      -3.743   3.570 -32.278  1.00  0.00    -0.084 N 
HETATM    6  N   UNL     1      -2.799   3.629 -33.241  1.00  0.00    -0.149 NA
HETATM    7  C   UNL     1      -2.048   4.638 -32.787  1.00  0.00     0.275 A 
HETATM    8  N   UNL     1      -2.478   5.226 -31.625  1.00  0.00    -0.054 NA
HETATM    9  C   UNL     1      -4.901   2.669 -32.306  1.00  0.00     0.204 C 
HETATM   10  C   UNL     1      -5.920   3.024 -31.225  1.00  0.00     0.062 C 
HETATM   11  H   UNL     1      -4.346   5.475 -29.714  1.00  0.00     0.184 HD
ENDROOT
BRANCH  10  12
HETATM   12  C   UNL     1      -7.236   2.349 -31.404  1.00  0.00     0.256 C 
HETATM   13  N   UNL     1      -8.110   2.995 -32.247  1.00  0.00    -0.323 N 
HETATM   14  H   UNL     1      -7.832   3.903 -32.597  1.00  0.00     0.169 HD
HETATM   15  O   UNL     1      -7.444   1.318 -30.772  1.00  0.00    -0.267 OA
BRANCH  13  16
HETATM   16  C   UNL     1      -9.330   2.484 -32.748  1.00  0.00     0.035 A 
HETATM   17  C   UNL     1      -9.436   1.304 -33.485  1.00  0.00     0.032 A 
HETATM   18  C   UNL     1     -10.675   0.891 -33.989  1.00  0.00     0.039 A 
HETATM   19  C   UNL     1     -11.826   1.645 -33.770  1.00  0.00     0.068 A 
HETATM   20  C   UNL     1     -11.729   2.825 -33.035  1.00  0.00     0.039 A 
HETATM   21  C   UNL     1     -10.489   3.238 -32.525  1.00  0.00     0.032 A 
BRANCH  19  22
HETATM   22  O   UNL     1     -12.961   1.129 -34.327  1.00  0.00    -0.356 OA
HETATM   23  C   UNL     1     -13.506  -0.037 -33.725  1.00  0.00     0.210 C 
ENDBRANCH  19  22
ENDBRANCH  13  16
ENDBRANCH  10  12
BRANCH   9  24
HETATM   24  C   UNL     1      -4.450   1.206 -32.310  1.00  0.00    -0.006 A 
HETATM   25  C   UNL     1      -4.987   0.202 -33.136  1.00  0.00     0.044 A 
HETATM   26 CL   UNL     1      -6.172   0.522 -34.351  1.00  0.00    -0.084 Cl
HETATM   27  C   UNL     1      -4.565  -1.128 -33.020  1.00  0.00     0.048 A 
HETATM   28  C   UNL     1      -3.588  -1.470 -32.092  1.00  0.00     0.035 A 
HETATM   29 CL   UNL     1      -3.081  -3.108 -31.948  1.00  0.00    -0.084 Cl
HETATM   30  C   UNL     1      -3.017  -0.495 -31.284  1.00  0.00     0.024 A 
HETATM   31  C   UNL     1      -3.443   0.830 -31.392  1.00  0.00     0.013 A 
ENDBRANCH   9  24
TORSDOF 4
ENDMDL
MODEL 3
REMARK VINA RESULT:      -8.3      3.346      5.954
REMARK  4 active torsions:
REMARK  status: ('A' for Active; 'I' for Inactive)
REMARK    1  A    between atoms: C_9  and  C_10 
REMARK    2  A    between atoms: C_18  and  C_19 
REMARK       I    between atoms: C_19  and  N_20 
REMARK    3  A    between atoms: N_20  and  C_21 
REMARK    4  A    between atoms: C_24  and  O_25 
ROOT
HETATM    1  C   UNL     1     -11.729   0.564 -33.622  1.00  0.00     0.070 C 
HETATM    2  C   UNL     1     -10.897   1.819 -33.722  1.00  0.00     0.037 C 
HETATM    3  N   UNL     1     -11.590   2.954 -34.141  1.00  0.00    -0.192 N 
HETATM    4  C   UNL     1     -10.980   4.091 -34.527  1.00  0.00     0.725 A 
HETATM    5  N   UNL     1      -9.630   4.220 -34.350  1.00  0.00    -0.084 N 
HETATM    6  N   UNL     1      -9.173   5.376 -34.878  1.00  0.00    -0.149 NA
HETATM    7  C   UNL     1     -10.317   5.917 -35.310  1.00  0.00     0.275 A 
HETATM    8  N   UNL     1     -11.446   5.164 -35.112  1.00  0.00    -0.054 NA
HETATM    9  C   UNL     1      -8.773   3.169 -33.788  1.00  0.00     0.204 C 
HETATM   10  C   UNL     1      -9.555   1.885 -33.522  1.00  0.00     0.062 C 
HETATM   11  H   UNL     1     -12.579   2.853 -34.352  1.00  0.00     0.184 HD
ENDROOT
BRANCH  10  12
HETATM   12  C   UNL     1      -8.686   0.707 -33.247  1.00  0.00     0.256 C 
HETATM   13  N   UNL     1      -7.977   0.242 -34.330  1.00  0.00    -0.323 N 
HETATM   14  H   UNL     1      -8.168   0.669 -35.228  1.00  0.00     0.169 HD
HETATM   15  O   UNL     1      -8.701   0.232 -32.115  1.00  0.00    -0.267 OA
BRANCH  13  16
HETATM   16  C   UNL     1      -6.940  -0.718 -34.310  1.00  0.00     0.035 A 
HETATM   17  C   UNL     1      -7.080  -2.026 -34.776  1.00  0.00     0.032 A 
HETATM   18  C   UNL     1      -6.019  -2.934 -34.675  1.00  0.00     0.039 A 
HETATM   19  C   UNL     1      -4.803  -2.556 -34.108  1.00  0.00     0.068 A 
HETATM   20  C   UNL     1      -4.654  -1.252 -33.641  1.00  0.00     0.039 A 
HETATM   21  C   UNL     1      -5.715  -0.340 -33.745  1.00  0.00     0.032 A 
BRANCH  19  22
HETATM   22  O   UNL     1      -3.862  -3.544 -34.066  1.00  0.00    -0.356 OA
HETATM   23  C   UNL     1      -4.331  -4.885 -34.062  1.00  0.00     0.210 C 
ENDBRANCH  19  22
ENDBRANCH  13  16
ENDBRANCH  10  12
BRANCH   9  24
HETATM   24  C   UNL     1      -7.980   3.700 -32.591  1.00  0.00    -0.006 A 
HETATM   25  C   UNL     1      -6.602   3.983 -32.604  1.00  0.00     0.044 A 
HETATM   26 CL   UNL     1      -5.634   3.870 -34.030  1.00  0.00    -0.084 Cl
HETATM   27  C   UNL     1      -5.941   4.395 -31.440  1.00  0.00     0.048 A 
HETATM   28  C   UNL     1      -6.650   4.547 -30.254  1.00  0.00     0.035 A 
HETATM   29 CL   UNL     1      -5.830   5.044 -28.825  1.00  0.00    -0.084 Cl
HETATM   30  C   UNL     1      -8.017   4.304 -30.218  1.00  0.00     0.024 A 
HETATM   31  C   UNL     1      -8.676   3.885 -31.376  1.00  0.00     0.013 A 
ENDBRANCH   9  24
TORSDOF 4
ENDMDL
MODEL 4
REMARK VINA RESULT:      -8.3      2.785      7.099
REMARK  4 active torsions:
REMARK  status: ('A' for Active; 'I' for Inactive)
REMARK    1  A    between atoms: C_9  and  C_10 
REMARK    2  A    between atoms: C_18  and  C_19 
REMARK       I    between atoms: C_19  and  N_20 
REMARK    3  A    between atoms: N_20  and  C_21 
REMARK    4  A    between atoms: C_24  and  O_25 
ROOT
HETATM    1  C   UNL     1      -7.636   4.864 -29.867  1.00  0.00     0.070 C 
HETATM    2  C   UNL     1      -7.047   4.430 -31.186  1.00  0.00     0.037 C 
HETATM    3  N   UNL     1      -5.851   5.055 -31.533  1.00  0.00    -0.192 N 
HETATM    4  C   UNL     1      -5.312   4.988 -32.766  1.00  0.00     0.725 A 
HETATM    5  N   UNL     1      -5.855   4.137 -33.688  1.00  0.00    -0.084 N 
HETATM    6  N   UNL     1      -5.255   4.267 -34.891  1.00  0.00    -0.149 NA
HETATM    7  C   UNL     1      -4.322   5.180 -34.601  1.00  0.00     0.275 A 
HETATM    8  N   UNL     1      -4.321   5.645 -33.311  1.00  0.00    -0.054 NA
HETATM    9  C   UNL     1      -7.033   3.298 -33.436  1.00  0.00     0.204 C 
HETATM   10  C   UNL     1      -7.633   3.567 -32.057  1.00  0.00     0.062 C 
HETATM   11  H   UNL     1      -5.477   5.749 -30.892  1.00  0.00     0.184 HD
ENDROOT
BRANCH  10  12
HETATM   12  C   UNL     1      -8.989   2.978 -31.874  1.00  0.00     0.256 C 
HETATM   13  N   UNL     1      -9.974   3.531 -32.661  1.00  0.00    -0.323 N 
HETATM   14  H   UNL     1      -9.724   4.338 -33.219  1.00  0.00     0.169 HD
HETATM   15  O   UNL     1      -9.124   2.096 -31.032  1.00  0.00    -0.267 OA
BRANCH  13  16
HETATM   16  C   UNL     1     -11.287   3.038 -32.837  1.00  0.00     0.035 A 
HETATM   17  C   UNL     1     -12.423   3.638 -32.296  1.00  0.00     0.032 A 
HETATM   18  C   UNL     1     -13.686   3.060 -32.474  1.00  0.00     0.039 A 
HETATM   19  C   UNL     1     -13.837   1.876 -33.193  1.00  0.00     0.068 A 
HETATM   20  C   UNL     1     -12.708   1.270 -33.738  1.00  0.00     0.039 A 
HETATM   21  C   UNL     1     -11.442   1.850 -33.563  1.00  0.00     0.032 A 
BRANCH  19  22
HETATM   22  O   UNL     1     -15.122   1.421 -33.279  1.00  0.00    -0.356 OA
HETATM   23  C   UNL     1     -16.103   2.103 -32.511  1.00  0.00     0.210 C 
ENDBRANCH  19  22
ENDBRANCH  13  16
ENDBRANCH  10  12
BRANCH   9  24
HETATM   24  C   UNL     1      -6.723   1.827 -33.726  1.00  0.00    -0.006 A 
HETATM   25  C   UNL     1      -5.740   1.068 -33.064  1.00  0.00     0.044 A 
HETATM   26 CL   UNL     1      -4.815   1.681 -31.741  1.00  0.00    -0.084 Cl
HETATM   27  C   UNL     1      -5.473  -0.253 -33.446  1.00  0.00     0.048 A 
HETATM   28  C   UNL     1      -6.195  -0.838 -34.480  1.00  0.00     0.035 A 
HETATM   29 CL   UNL     1      -5.855  -2.458 -34.950  1.00  0.00    -0.084 Cl
HETATM   30  C   UNL     1      -7.193  -0.123 -35.131  1.00  0.00     0.024 A 
HETATM   31  C   UNL     1      -7.454   1.196 -34.757  1.00  0.00     0.013 A 
ENDBRANCH   9  24
TORSDOF 4
ENDMDL
MODEL 5
REMARK VINA RESULT:      -7.8      3.309      7.744
REMARK  4 active torsions:
REMARK  status: ('A' for Active; 'I' for Inactive)
REMARK    1  A    between atoms: C_9  and  C_10 
REMARK    2  A    between atoms: C_18  and  C_19 
REMARK       I    between atoms: C_19  and  N_20 
REMARK    3  A    between atoms: N_20  and  C_21 
REMARK    4  A    between atoms: C_24  and  O_25 
ROOT
HETATM    1  C   UNL     1      -7.165  -1.722 -34.507  1.00  0.00     0.070 C 
HETATM    2  C   UNL     1      -6.339  -0.866 -33.580  1.00  0.00     0.037 C 
HETATM    3  N   UNL     1      -4.986  -1.195 -33.521  1.00  0.00    -0.192 N 
HETATM    4  C   UNL     1      -4.149  -0.719 -32.580  1.00  0.00     0.725 A 
HETATM    5  N   UNL     1      -4.584   0.263 -31.733  1.00  0.00    -0.084 N 
HETATM    6  N   UNL     1      -3.656   0.552 -30.796  1.00  0.00    -0.149 NA
HETATM    7  C   UNL     1      -2.664  -0.261 -31.176  1.00  0.00     0.275 A 
HETATM    8  N   UNL     1      -2.925  -1.054 -32.264  1.00  0.00    -0.054 NA
HETATM    9  C   UNL     1      -5.941   0.823 -31.755  1.00  0.00     0.204 C 
HETATM   10  C   UNL     1      -6.831   0.107 -32.769  1.00  0.00     0.062 C 
HETATM   11  H   UNL     1      -4.665  -1.975 -34.088  1.00  0.00     0.184 HD
ENDROOT
BRANCH  10  12
HETATM   12  C   UNL     1      -8.278   0.423 -32.616  1.00  0.00     0.256 C 
HETATM   13  N   UNL     1      -8.880   0.948 -33.736  1.00  0.00    -0.323 N 
HETATM   14  H   UNL     1      -8.284   1.161 -34.527  1.00  0.00     0.169 HD
HETATM   15  O   UNL     1      -8.797   0.231 -31.520  1.00  0.00    -0.267 OA
BRANCH  13  16
HETATM   16  C   UNL     1     -10.266   1.148 -33.934  1.00  0.00     0.035 A 
HETATM   17  C   UNL     1     -11.253   0.295 -33.441  1.00  0.00     0.032 A 
HETATM   18  C   UNL     1     -12.604   0.534 -33.722  1.00  0.00     0.039 A 
HETATM   19  C   UNL     1     -12.992   1.625 -34.498  1.00  0.00     0.068 A 
HETATM   20  C   UNL     1     -12.013   2.482 -34.994  1.00  0.00     0.039 A 
HETATM   21  C   UNL     1     -10.659   2.246 -34.709  1.00  0.00     0.032 A 
BRANCH  19  22
HETATM   22  O   UNL     1     -14.339   1.730 -34.700  1.00  0.00    -0.356 OA
HETATM   23  C   UNL     1     -15.143   0.636 -34.284  1.00  0.00     0.210 C 
ENDBRANCH  19  22
ENDBRANCH  13  16
ENDBRANCH  10  12
BRANCH   9  24
HETATM   24  C   UNL     1      -5.896   2.347 -31.903  1.00  0.00    -0.006 A 
HETATM   25  C   UNL     1      -6.522   3.256 -31.030  1.00  0.00     0.044 A 
HETATM   26 CL   UNL     1      -7.346   2.763 -29.595  1.00  0.00    -0.084 Cl
HETATM   27  C   UNL     1      -6.491   4.633 -31.283  1.00  0.00     0.048 A 
HETATM   28  C   UNL     1      -5.819   5.121 -32.398  1.00  0.00     0.035 A 
HETATM   29 CL   UNL     1      -5.794   6.813 -32.708  1.00  0.00    -0.084 Cl
HETATM   30  C   UNL     1      -5.166   4.249 -33.260  1.00  0.00     0.024 A 
HETATM   31  C   UNL     1      -5.203   2.876 -33.014  1.00  0.00     0.013 A 
ENDBRANCH   9  24
TORSDOF 4
ENDMDL
MODEL 6
REMARK VINA RESULT:      -7.8     16.123     18.398
REMARK  4 active torsions:
REMARK  status: ('A' for Active; 'I' for Inactive)
REMARK    1  A    between atoms: C_9  and  C_10 
REMARK    2  A    between atoms: C_18  and  C_19 
REMARK       I    between atoms: C_19  and  N_20 
REMARK    3  A    between atoms: N_20  and  C_21 
REMARK    4  A    between atoms: C_24  and  O_25 
ROOT
HETATM    1  C   UNL     1      -2.434 -13.122 -37.762  1.00  0.00     0.070 C 
HETATM    2  C   UNL     1      -3.828 -13.335 -37.227  1.00  0.00     0.037 C 
HETATM    3  N   UNL     1      -4.063 -12.796 -35.963  1.00  0.00    -0.192 N 
HETATM    4  C   UNL     1      -5.148 -13.094 -35.223  1.00  0.00     0.725 A 
HETATM    5  N   UNL     1      -6.160 -13.824 -35.782  1.00  0.00    -0.084 N 
HETATM    6  N   UNL     1      -7.119 -14.112 -34.876  1.00  0.00    -0.149 NA
HETATM    7  C   UNL     1      -6.639 -13.475 -33.802  1.00  0.00     0.275 A 
HETATM    8  N   UNL     1      -5.437 -12.838 -33.973  1.00  0.00    -0.054 NA
HETATM    9  C   UNL     1      -6.132 -14.348 -37.153  1.00  0.00     0.204 C 
HETATM   10  C   UNL     1      -4.797 -14.064 -37.839  1.00  0.00     0.062 C 
HETATM   11  H   UNL     1      -3.294 -12.318 -35.502  1.00  0.00     0.184 HD
ENDROOT
BRANCH  10  12
HETATM   12  C   UNL     1      -4.602 -14.831 -39.101  1.00  0.00     0.256 C 
HETATM   13  N   UNL     1      -4.555 -14.066 -40.244  1.00  0.00    -0.323 N 
HETATM   14  H   UNL     1      -4.745 -13.077 -40.148  1.00  0.00     0.169 HD
HETATM   15  O   UNL     1      -4.541 -16.054 -39.027  1.00  0.00    -0.267 OA
BRANCH  13  16
HETATM   16  C   UNL     1      -4.184 -14.505 -41.536  1.00  0.00     0.035 A 
HETATM   17  C   UNL     1      -4.926 -14.249 -42.688  1.00  0.00     0.032 A 
HETATM   18  C   UNL     1      -4.518 -14.760 -43.926  1.00  0.00     0.039 A 
HETATM   19  C   UNL     1      -3.364 -15.535 -44.035  1.00  0.00     0.068 A 
HETATM   20  C   UNL     1      -2.616 -15.795 -42.890  1.00  0.00     0.039 A 
HETATM   21  C   UNL     1      -3.022 -15.279 -41.650  1.00  0.00     0.032 A 
BRANCH  19  22
HETATM   22  O   UNL     1      -3.091 -15.975 -45.299  1.00  0.00    -0.356 OA
HETATM   23  C   UNL     1      -4.196 -16.171 -46.169  1.00  0.00     0.210 C 
ENDBRANCH  19  22
ENDBRANCH  13  16
ENDBRANCH  10  12
BRANCH   9  24
HETATM   24  C   UNL     1      -7.367 -13.889 -37.934  1.00  0.00    -0.006 A 
HETATM   25  C   UNL     1      -8.429 -14.727 -38.318  1.00  0.00     0.044 A 
HETATM   26 CL   UNL     1      -8.529 -16.388 -37.856  1.00  0.00    -0.084 Cl
HETATM   27  C   UNL     1      -9.486 -14.238 -39.098  1.00  0.00     0.048 A 
HETATM   28  C   UNL     1      -9.504 -12.903 -39.486  1.00  0.00     0.035 A 
HETATM   29 CL   UNL     1     -10.800 -12.311 -40.450  1.00  0.00    -0.084 Cl
HETATM   30  C   UNL     1      -8.484 -12.045 -39.095  1.00  0.00     0.024 A 
HETATM   31  C   UNL     1      -7.426 -12.533 -38.326  1.00  0.00     0.013 A 
ENDBRANCH   9  24
TORSDOF 4
ENDMDL
MODEL 7
REMARK VINA RESULT:      -7.7      3.447      8.010
REMARK  4 active torsions:
REMARK  status: ('A' for Active; 'I' for Inactive)
REMARK    1  A    between atoms: C_9  and  C_10 
REMARK    2  A    between atoms: C_18  and  C_19 
REMARK       I    between atoms: C_19  and  N_20 
REMARK    3  A    between atoms: N_20  and  C_21 
REMARK    4  A    between atoms: C_24  and  O_25 
ROOT
HETATM    1  C   UNL     1      -7.781  -0.535 -34.958  1.00  0.00     0.070 C 
HETATM    2  C   UNL     1      -6.967   0.069 -33.842  1.00  0.00     0.037 C 
HETATM    3  N   UNL     1      -5.589  -0.102 -33.957  1.00  0.00    -0.192 N 
HETATM    4  C   UNL     1      -4.727   0.142 -32.951  1.00  0.00     0.725 A 
HETATM    5  N   UNL     1      -5.182   0.744 -31.811  1.00  0.00    -0.084 N 
HETATM    6  N   UNL     1      -4.213   0.824 -30.875  1.00  0.00    -0.149 NA
HETATM    7  C   UNL     1      -3.183   0.295 -31.545  1.00  0.00     0.275 A 
HETATM    8  N   UNL     1      -3.455  -0.133 -32.819  1.00  0.00    -0.054 NA
HETATM    9  C   UNL     1      -6.583   1.121 -31.587  1.00  0.00     0.204 C 
HETATM   10  C   UNL     1      -7.481   0.668 -32.736  1.00  0.00     0.062 C 
HETATM   11  H   UNL     1      -5.242  -0.618 -34.761  1.00  0.00     0.184 HD
ENDROOT
BRANCH  10  12
HETATM   12  C   UNL     1      -8.935   0.748 -32.421  1.00  0.00     0.256 C 
HETATM   13  N   UNL     1      -9.686   1.466 -33.324  1.00  0.00    -0.323 N 
HETATM   14  H   UNL     1      -9.188   1.950 -34.061  1.00  0.00     0.169 HD
HETATM   15  O   UNL     1      -9.331   0.215 -31.390  1.00  0.00    -0.267 OA
BRANCH  13  16
HETATM   16  C   UNL     1     -11.097   1.534 -33.381  1.00  0.00     0.035 A 
HETATM   17  C   UNL     1     -11.832   2.690 -33.119  1.00  0.00     0.032 A 
HETATM   18  C   UNL     1     -13.232   2.663 -33.148  1.00  0.00     0.039 A 
HETATM   19  C   UNL     1     -13.921   1.487 -33.437  1.00  0.00     0.068 A 
HETATM   20  C   UNL     1     -13.194   0.328 -33.700  1.00  0.00     0.039 A 
HETATM   21  C   UNL     1     -11.792   0.354 -33.676  1.00  0.00     0.032 A 
BRANCH  19  22
HETATM   22  O   UNL     1     -15.282   1.604 -33.421  1.00  0.00    -0.356 OA
HETATM   23  C   UNL     1     -15.867   2.190 -32.267  1.00  0.00     0.210 C 
ENDBRANCH  19  22
ENDBRANCH  13  16
ENDBRANCH  10  12
BRANCH   9  24
HETATM   24  C   UNL     1      -6.695   2.606 -31.230  1.00  0.00    -0.006 A 
HETATM   25  C   UNL     1      -6.376   3.666 -32.100  1.00  0.00     0.044 A 
HETATM   26 CL   UNL     1      -5.913   3.422 -33.745  1.00  0.00    -0.084 Cl
HETATM   27  C   UNL     1      -6.436   4.996 -31.665  1.00  0.00     0.048 A 
HETATM   28  C   UNL     1      -6.834   5.286 -30.364  1.00  0.00     0.035 A 
HETATM   29 CL   UNL     1      -6.897   6.921 -29.834  1.00  0.00    -0.084 Cl
HETATM   30  C   UNL     1      -7.185   4.261 -29.494  1.00  0.00     0.024 A 
HETATM   31  C   UNL     1      -7.116   2.935 -29.923  1.00  0.00     0.013 A 
ENDBRANCH   9  24
TORSDOF 4
ENDMDL
MODEL 8
REMARK VINA RESULT:      -7.4      5.192      7.962
REMARK  4 active torsions:
REMARK  status: ('A' for Active; 'I' for Inactive)
REMARK    1  A    between atoms: C_9  and  C_10 
REMARK    2  A    between atoms: C_18  and  C_19 
REMARK       I    between atoms: C_19  and  N_20 
REMARK    3  A    between atoms: N_20  and  C_21 
REMARK    4  A    between atoms: C_24  and  O_25 
ROOT
HETATM    1  C   UNL     1       0.382   6.562 -30.992  1.00  0.00     0.070 C 
HETATM    2  C   UNL     1      -0.932   6.263 -31.669  1.00  0.00     0.037 C 
HETATM    3  N   UNL     1      -0.828   5.622 -32.902  1.00  0.00    -0.192 N 
HETATM    4  C   UNL     1      -1.859   5.499 -33.761  1.00  0.00     0.725 A 
HETATM    5  N   UNL     1      -3.114   5.862 -33.357  1.00  0.00    -0.084 N 
HETATM    6  N   UNL     1      -4.003   5.766 -34.368  1.00  0.00    -0.149 NA
HETATM    7  C   UNL     1      -3.219   5.285 -35.339  1.00  0.00     0.275 A 
HETATM    8  N   UNL     1      -1.900   5.106 -35.007  1.00  0.00    -0.054 NA
HETATM    9  C   UNL     1      -3.419   6.423 -32.035  1.00  0.00     0.204 C 
HETATM   10  C   UNL     1      -2.153   6.642 -31.208  1.00  0.00     0.062 C 
HETATM   11  H   UNL     1       0.104   5.417 -33.251  1.00  0.00     0.184 HD
ENDROOT
BRANCH  10  12
HETATM   12  C   UNL     1      -2.372   7.483 -29.999  1.00  0.00     0.256 C 
HETATM   13  N   UNL     1      -2.474   6.786 -28.817  1.00  0.00    -0.323 N 
HETATM   14  H   UNL     1      -2.486   5.775 -28.874  1.00  0.00     0.169 HD
HETATM   15  O   UNL     1      -2.480   8.696 -30.152  1.00  0.00    -0.267 OA
BRANCH  13  16
HETATM   16  C   UNL     1      -2.480   7.333 -27.513  1.00  0.00     0.035 A 
HETATM   17  C   UNL     1      -1.345   7.820 -26.868  1.00  0.00     0.032 A 
HETATM   18  C   UNL     1      -1.424   8.302 -25.555  1.00  0.00     0.039 A 
HETATM   19  C   UNL     1      -2.635   8.304 -24.865  1.00  0.00     0.068 A 
HETATM   20  C   UNL     1      -3.775   7.819 -25.502  1.00  0.00     0.039 A 
HETATM   21  C   UNL     1      -3.697   7.340 -26.819  1.00  0.00     0.032 A 
BRANCH  19  22
HETATM   22  O   UNL     1      -2.565   8.791 -23.591  1.00  0.00    -0.356 OA
HETATM   23  C   UNL     1      -1.525   9.717 -23.309  1.00  0.00     0.210 C 
ENDBRANCH  19  22
ENDBRANCH  13  16
ENDBRANCH  10  12
BRANCH   9  24
HETATM   24  C   UNL     1      -4.508   5.604 -31.337  1.00  0.00    -0.006 A 
HETATM   25  C   UNL     1      -4.419   4.229 -31.052  1.00  0.00     0.044 A 
HETATM   26 CL   UNL     1      -3.000   3.296 -31.360  1.00  0.00    -0.084 Cl
HETATM   27  C   UNL     1      -5.497   3.543 -30.477  1.00  0.00     0.048 A 
HETATM   28  C   UNL     1      -6.668   4.223 -30.163  1.00  0.00     0.035 A 
HETATM   29 CL   UNL     1      -7.990   3.372 -29.465  1.00  0.00    -0.084 Cl
HETATM   30  C   UNL     1      -6.772   5.587 -30.405  1.00  0.00     0.024 A 
HETATM   31  C   UNL     1      -5.703   6.271 -30.986  1.00  0.00     0.013 A 
ENDBRANCH   9  24
TORSDOF 4
ENDMDL
MODEL 9
REMARK VINA RESULT:      -7.3      2.776      4.766
REMARK  4 active torsions:
REMARK  status: ('A' for Active; 'I' for Inactive)
REMARK    1  A    between atoms: C_9  and  C_10 
REMARK    2  A    between atoms: C_18  and  C_19 
REMARK       I    between atoms: C_19  and  N_20 
REMARK    3  A    between atoms: N_20  and  C_21 
REMARK    4  A    between atoms: C_24  and  O_25 
ROOT
HETATM    1  C   UNL     1      -8.215  -0.238 -32.177  1.00  0.00     0.070 C 
HETATM    2  C   UNL     1      -9.252   0.593 -32.891  1.00  0.00     0.037 C 
HETATM    3  N   UNL     1     -10.569   0.171 -32.717  1.00  0.00    -0.192 N 
HETATM    4  C   UNL     1     -11.595   0.624 -33.463  1.00  0.00     0.725 A 
HETATM    5  N   UNL     1     -11.388   1.667 -34.323  1.00  0.00    -0.084 N 
HETATM    6  N   UNL     1     -12.491   1.925 -35.057  1.00  0.00    -0.149 NA
HETATM    7  C   UNL     1     -13.342   1.029 -34.544  1.00  0.00     0.275 A 
HETATM    8  N   UNL     1     -12.833   0.215 -33.565  1.00  0.00    -0.054 NA
HETATM    9  C   UNL     1     -10.089   2.320 -34.521  1.00  0.00     0.204 C 
HETATM   10  C   UNL     1      -8.982   1.629 -33.727  1.00  0.00     0.062 C 
HETATM   11  H   UNL     1     -10.729  -0.652 -32.142  1.00  0.00     0.184 HD
ENDROOT
BRANCH  10  12
HETATM   12  C   UNL     1      -7.611   2.053 -34.126  1.00  0.00     0.256 C 
HETATM   13  N   UNL     1      -7.071   3.064 -33.365  1.00  0.00    -0.323 N 
HETATM   14  H   UNL     1      -7.669   3.494 -32.671  1.00  0.00     0.169 HD
HETATM   15  O   UNL     1      -7.101   1.509 -35.100  1.00  0.00    -0.267 OA
BRANCH  13  16
HETATM   16  C   UNL     1      -5.731   3.516 -33.393  1.00  0.00     0.035 A 
HETATM   17  C   UNL     1      -4.716   2.992 -32.592  1.00  0.00     0.032 A 
HETATM   18  C   UNL     1      -3.423   3.528 -32.642  1.00  0.00     0.039 A 
HETATM   19  C   UNL     1      -3.121   4.593 -33.489  1.00  0.00     0.068 A 
HETATM   20  C   UNL     1      -4.128   5.121 -34.293  1.00  0.00     0.039 A 
HETATM   21  C   UNL     1      -5.423   4.583 -34.247  1.00  0.00     0.032 A 
BRANCH  19  22
HETATM   22  O   UNL     1      -1.825   5.020 -33.427  1.00  0.00    -0.356 OA
HETATM   23  C   UNL     1      -1.264   5.557 -34.617  1.00  0.00     0.210 C 
ENDBRANCH  19  22
ENDBRANCH  13  16
ENDBRANCH  10  12
BRANCH   9  24
HETATM   24  C   UNL     1     -10.201   3.830 -34.289  1.00  0.00    -0.006 A 
HETATM   25  C   UNL     1     -10.448   4.434 -33.042  1.00  0.00     0.044 A 
HETATM   26 CL   UNL     1     -10.550   3.538 -31.570  1.00  0.00    -0.084 Cl
HETATM   27  C   UNL     1     -10.609   5.821 -32.934  1.00  0.00     0.048 A 
HETATM   28  C   UNL     1     -10.506   6.624 -34.065  1.00  0.00     0.035 A 
HETATM   29 CL   UNL     1     -10.715   8.326 -33.927  1.00  0.00    -0.084 Cl
HETATM   30  C   UNL     1     -10.233   6.058 -35.304  1.00  0.00     0.024 A 
HETATM   31  C   UNL     1     -10.080   4.674 -35.414  1.00  0.00     0.013 A 
ENDBRANCH   9  24
TORSDOF 4
ENDMDL
MODEL 10
REMARK VINA RESULT:      -7.3     16.900     19.196
REMARK  4 active torsions:
REMARK  status: ('A' for Active; 'I' for Inactive)
REMARK    1  A    between atoms: C_9  and  C_10 
REMARK    2  A    between atoms: C_18  and  C_19 
REMARK       I    between atoms: C_19  and  N_20 
REMARK    3  A    between atoms: N_20  and  C_21 
REMARK    4  A    between atoms: C_24  and  O_25 
ROOT
HETATM    1  C   UNL     1      -2.743 -14.187 -35.748  1.00  0.00     0.070 C 
HETATM    2  C   UNL     1      -2.007 -14.424 -37.043  1.00  0.00     0.037 C 
HETATM    3  N   UNL     1      -0.753 -15.018 -36.909  1.00  0.00    -0.192 N 
HETATM    4  C   UNL     1       0.146 -15.079 -37.909  1.00  0.00     0.725 A 
HETATM    5  N   UNL     1      -0.226 -14.699 -39.169  1.00  0.00    -0.084 N 
HETATM    6  N   UNL     1       0.819 -14.731 -40.022  1.00  0.00    -0.149 NA
HETATM    7  C   UNL     1       1.780 -15.193 -39.215  1.00  0.00     0.275 A 
HETATM    8  N   UNL     1       1.409 -15.421 -37.914  1.00  0.00    -0.054 NA
HETATM    9  C   UNL     1      -1.558 -14.183 -39.509  1.00  0.00     0.204 C 
HETATM   10  C   UNL     1      -2.438 -14.031 -38.270  1.00  0.00     0.062 C 
HETATM   11  H   UNL     1      -0.431 -15.234 -35.970  1.00  0.00     0.184 HD
ENDROOT
BRANCH  10  12
HETATM   12  C   UNL     1      -3.672 -13.233 -38.513  1.00  0.00     0.256 C 
HETATM   13  N   UNL     1      -4.748 -13.954 -38.979  1.00  0.00    -0.323 N 
HETATM   14  H   UNL     1      -4.591 -14.929 -39.204  1.00  0.00     0.169 HD
HETATM   15  O   UNL     1      -3.623 -12.022 -38.320  1.00  0.00    -0.267 OA
BRANCH  13  16
HETATM   16  C   UNL     1      -6.080 -13.497 -39.100  1.00  0.00     0.035 A 
HETATM   17  C   UNL     1      -7.035 -13.603 -38.089  1.00  0.00     0.032 A 
HETATM   18  C   UNL     1      -8.349 -13.171 -38.304  1.00  0.00     0.039 A 
HETATM   19  C   UNL     1      -8.733 -12.627 -39.529  1.00  0.00     0.068 A 
HETATM   20  C   UNL     1      -7.786 -12.517 -40.544  1.00  0.00     0.039 A 
HETATM   21  C   UNL     1      -6.468 -12.945 -40.328  1.00  0.00     0.032 A 
BRANCH  19  22
HETATM   22  O   UNL     1     -10.046 -12.257 -39.602  1.00  0.00    -0.356 OA
HETATM   23  C   UNL     1     -10.925 -13.125 -40.304  1.00  0.00     0.210 C 
ENDBRANCH  19  22
ENDBRANCH  13  16
ENDBRANCH  10  12
BRANCH   9  24
HETATM   24  C   UNL     1      -2.181 -15.000 -40.644  1.00  0.00    -0.006 A 
HETATM   25  C   UNL     1      -2.341 -16.398 -40.633  1.00  0.00     0.044 A 
HETATM   26 CL   UNL     1      -1.946 -17.376 -39.266  1.00  0.00    -0.084 Cl
HETATM   27  C   UNL     1      -2.855 -17.072 -41.748  1.00  0.00     0.048 A 
HETATM   28  C   UNL     1      -3.232 -16.358 -42.880  1.00  0.00     0.035 A 
HETATM   29 CL   UNL     1      -3.853 -17.194 -44.250  1.00  0.00    -0.084 Cl
HETATM   30  C   UNL     1      -3.114 -14.974 -42.908  1.00  0.00     0.024 A 
HETATM   31  C   UNL     1      -2.595 -14.302 -41.800  1.00  0.00     0.013 A 
ENDBRANCH   9  24
TORSDOF 4
ENDMDL
