MODEL 1
REMARK VINA RESULT:      -8.3      0.000      0.000
REMARK  4 active torsions:
REMARK  status: ('A' for Active; 'I' for Inactive)
REMARK    1  A    between atoms: C_3  and  N_4 
REMARK       I    between atoms: N_4  and  C_5 
REMARK    2  A    between atoms: C_5  and  C_6 
REMARK    3  A    between atoms: C_7  and  C_8 
REMARK    4  A    between atoms: C_16  and  C_17 
ROOT
HETATM    1  C   UNL     1      -4.022   0.047 -32.898  1.00  0.00     0.003 A 
HETATM    2  C   UNL     1      -5.208   0.782 -32.933  1.00  0.00     0.029 A 
HETATM    3  C   UNL     1      -6.386   0.193 -33.390  1.00  0.00     0.035 A 
HETATM    4  C   UNL     1      -6.355  -1.144 -33.820  1.00  0.00     0.042 A 
HETATM    5  C   UNL     1      -5.169  -1.898 -33.794  1.00  0.00    -0.021 A 
HETATM    6  C   UNL     1      -4.002  -1.283 -33.323  1.00  0.00     0.012 A 
ENDROOT
BRANCH   3   7
HETATM    7  N   UNL     1      -7.632   0.853 -33.426  1.00  0.00    -0.327 N 
HETATM    8  C   UNL     1      -8.599   0.876 -32.443  1.00  0.00     0.227 C 
HETATM    9  O   UNL     1      -8.530   0.391 -31.322  1.00  0.00    -0.273 OA
HETATM   10  H   UNL     1      -7.844   1.349 -34.280  1.00  0.00     0.169 HD
BRANCH   8  11
HETATM   11  C   UNL     1      -9.853   1.568 -32.871  1.00  0.00     0.089 A 
HETATM   12  C   UNL     1     -10.810   0.879 -33.833  1.00  0.00     0.057 A 
HETATM   13  C   UNL     1      -9.976   2.061 -34.280  1.00  0.00     0.027 A 
BRANCH  12  14
HETATM   14  C   UNL     1     -12.296   1.109 -33.631  1.00  0.00     0.057 A 
HETATM   15  O   UNL     1     -12.850   2.298 -33.258  1.00  0.00    -0.327 OA
HETATM   16  C   UNL     1     -14.193   2.108 -33.197  1.00  0.00     0.142 A 
HETATM   17  C   UNL     1     -14.511   0.811 -33.521  1.00  0.00     0.027 A 
HETATM   18  C   UNL     1     -13.282   0.162 -33.800  1.00  0.00     0.035 A 
ENDBRANCH  12  14
ENDBRANCH   8  11
ENDBRANCH   3   7
BRANCH   5  19
HETATM   19  C   UNL     1      -5.171  -3.286 -34.242  1.00  0.00     0.010 A 
HETATM   20  C   UNL     1      -6.145  -4.029 -34.957  1.00  0.00     0.152 A 
HETATM   21  N   UNL     1      -5.772  -5.290 -35.191  1.00  0.00    -0.187 NA
HETATM   22  N   UNL     1      -4.559  -5.367 -34.627  1.00  0.00    -0.289 N 
HETATM   23  H   UNL     1      -4.060  -6.250 -34.674  1.00  0.00     0.188 HD
HETATM   24  C   UNL     1      -4.154  -4.198 -34.049  1.00  0.00     0.123 A 
ENDBRANCH   5  19
TORSDOF 4
ENDMDL
MODEL 2
REMARK VINA RESULT:      -8.2      4.093      7.288
REMARK  4 active torsions:
REMARK  status: ('A' for Active; 'I' for Inactive)
REMARK    1  A    between atoms: C_3  and  N_4 
REMARK       I    between atoms: N_4  and  C_5 
REMARK    2  A    between atoms: C_5  and  C_6 
REMARK    3  A    between atoms: C_7  and  C_8 
REMARK    4  A    between atoms: C_16  and  C_17 
ROOT
HETATM    1  C   UNL     1      -7.989   0.327 -34.967  1.00  0.00     0.003 A 
HETATM    2  C   UNL     1      -7.278   1.314 -34.284  1.00  0.00     0.029 A 
HETATM    3  C   UNL     1      -6.069   1.005 -33.662  1.00  0.00     0.035 A 
HETATM    4  C   UNL     1      -5.588  -0.314 -33.729  1.00  0.00     0.042 A 
HETATM    5  C   UNL     1      -6.294  -1.320 -34.409  1.00  0.00    -0.021 A 
HETATM    6  C   UNL     1      -7.501  -0.979 -35.032  1.00  0.00     0.012 A 
ENDROOT
BRANCH   3   7
HETATM    7  N   UNL     1      -5.271   1.948 -32.982  1.00  0.00    -0.327 N 
HETATM    8  C   UNL     1      -5.070   3.272 -33.311  1.00  0.00     0.227 C 
HETATM    9  O   UNL     1      -5.606   3.902 -34.211  1.00  0.00    -0.273 OA
HETATM   10  H   UNL     1      -4.775   1.603 -32.171  1.00  0.00     0.169 HD
BRANCH   8  11
HETATM   11  C   UNL     1      -4.057   3.945 -32.442  1.00  0.00     0.089 A 
HETATM   12  C   UNL     1      -2.589   3.940 -32.842  1.00  0.00     0.057 A 
HETATM   13  C   UNL     1      -3.077   3.111 -31.674  1.00  0.00     0.027 A 
BRANCH  12  14
HETATM   14  C   UNL     1      -1.770   5.177 -32.528  1.00  0.00     0.057 A 
HETATM   15  O   UNL     1      -1.986   6.406 -33.077  1.00  0.00    -0.327 OA
HETATM   16  C   UNL     1      -1.066   7.248 -32.540  1.00  0.00     0.142 A 
HETATM   17  C   UNL     1      -0.257   6.575 -31.655  1.00  0.00     0.027 A 
HETATM   18  C   UNL     1      -0.711   5.233 -31.648  1.00  0.00     0.035 A 
ENDBRANCH  12  14
ENDBRANCH   8  11
ENDBRANCH   3   7
BRANCH   5  19
HETATM   19  C   UNL     1      -5.766  -2.679 -34.465  1.00  0.00     0.010 A 
HETATM   20  C   UNL     1      -6.375  -3.895 -34.865  1.00  0.00     0.152 A 
HETATM   21  N   UNL     1      -5.552  -4.944 -34.784  1.00  0.00    -0.187 NA
HETATM   22  N   UNL     1      -4.410  -4.409 -34.330  1.00  0.00    -0.289 N 
HETATM   23  H   UNL     1      -3.615  -5.024 -34.182  1.00  0.00     0.188 HD
HETATM   24  C   UNL     1      -4.484  -3.061 -34.126  1.00  0.00     0.123 A 
ENDBRANCH   5  19
TORSDOF 4
ENDMDL
MODEL 3
REMARK VINA RESULT:      -7.8      1.706      2.090
REMARK  4 active torsions:
REMARK  status: ('A' for Active; 'I' for Inactive)
REMARK    1  A    between atoms: C_3  and  N_4 
REMARK       I    between atoms: N_4  and  C_5 
REMARK    2  A    between atoms: C_5  and  C_6 
REMARK    3  A    between atoms: C_7  and  C_8 
REMARK    4  A    between atoms: C_16  and  C_17 
ROOT
HETATM    1  C   UNL     1      -4.497   0.165 -32.891  1.00  0.00     0.003 A 
HETATM    2  C   UNL     1      -5.673   0.856 -33.187  1.00  0.00     0.029 A 
HETATM    3  C   UNL     1      -6.720   0.211 -33.843  1.00  0.00     0.035 A 
HETATM    4  C   UNL     1      -6.568  -1.138 -34.206  1.00  0.00     0.042 A 
HETATM    5  C   UNL     1      -5.389  -1.848 -33.918  1.00  0.00    -0.021 A 
HETATM    6  C   UNL     1      -4.356  -1.177 -33.251  1.00  0.00     0.012 A 
ENDROOT
BRANCH   3   7
HETATM    7  N   UNL     1      -7.953   0.825 -34.148  1.00  0.00    -0.327 N 
HETATM    8  C   UNL     1      -9.173   0.608 -33.541  1.00  0.00     0.227 C 
HETATM    9  O   UNL     1      -9.404  -0.102 -32.573  1.00  0.00    -0.273 OA
HETATM   10  H   UNL     1      -7.939   1.486 -34.912  1.00  0.00     0.169 HD
BRANCH   8  11
HETATM   11  C   UNL     1     -10.296   1.337 -34.206  1.00  0.00     0.089 A 
HETATM   12  C   UNL     1     -11.055   2.416 -33.448  1.00  0.00     0.057 A 
HETATM   13  C   UNL     1     -11.703   1.083 -33.759  1.00  0.00     0.027 A 
BRANCH  12  14
HETATM   14  C   UNL     1     -11.530   3.624 -34.233  1.00  0.00     0.057 A 
HETATM   15  O   UNL     1     -10.754   4.704 -34.533  1.00  0.00    -0.327 OA
HETATM   16  C   UNL     1     -11.525   5.560 -35.251  1.00  0.00     0.142 A 
HETATM   17  C   UNL     1     -12.790   5.047 -35.414  1.00  0.00     0.027 A 
HETATM   18  C   UNL     1     -12.795   3.793 -34.753  1.00  0.00     0.035 A 
ENDBRANCH  12  14
ENDBRANCH   8  11
ENDBRANCH   3   7
BRANCH   5  19
HETATM   19  C   UNL     1      -5.264  -3.249 -34.303  1.00  0.00     0.010 A 
HETATM   20  C   UNL     1      -6.138  -4.092 -35.035  1.00  0.00     0.152 A 
HETATM   21  N   UNL     1      -5.661  -5.330 -35.192  1.00  0.00    -0.187 NA
HETATM   22  N   UNL     1      -4.479  -5.291 -34.561  1.00  0.00    -0.289 N 
HETATM   23  H   UNL     1      -3.915  -6.135 -34.543  1.00  0.00     0.188 HD
HETATM   24  C   UNL     1      -4.194  -4.072 -34.016  1.00  0.00     0.123 A 
ENDBRANCH   5  19
TORSDOF 4
ENDMDL
MODEL 4
REMARK VINA RESULT:      -7.8      4.342      7.942
REMARK  4 active torsions:
REMARK  status: ('A' for Active; 'I' for Inactive)
REMARK    1  A    between atoms: C_3  and  N_4 
REMARK       I    between atoms: N_4  and  C_5 
REMARK    2  A    between atoms: C_5  and  C_6 
REMARK    3  A    between atoms: C_7  and  C_8 
REMARK    4  A    between atoms: C_16  and  C_17 
ROOT
HETATM    1  C   UNL     1      -5.057   4.425 -30.448  1.00  0.00     0.003 A 
HETATM    2  C   UNL     1      -5.423   3.118 -30.774  1.00  0.00     0.029 A 
HETATM    3  C   UNL     1      -4.885   2.499 -31.901  1.00  0.00     0.035 A 
HETATM    4  C   UNL     1      -3.979   3.214 -32.703  1.00  0.00     0.042 A 
HETATM    5  C   UNL     1      -3.603   4.532 -32.391  1.00  0.00    -0.021 A 
HETATM    6  C   UNL     1      -4.153   5.126 -31.248  1.00  0.00     0.012 A 
ENDROOT
BRANCH   3   7
HETATM    7  N   UNL     1      -5.173   1.172 -32.282  1.00  0.00    -0.327 N 
HETATM    8  C   UNL     1      -6.086   0.746 -33.224  1.00  0.00     0.227 C 
HETATM    9  O   UNL     1      -6.766   1.442 -33.964  1.00  0.00    -0.273 OA
HETATM   10  H   UNL     1      -4.662   0.451 -31.790  1.00  0.00     0.169 HD
BRANCH   8  11
HETATM   11  C   UNL     1      -6.223  -0.741 -33.278  1.00  0.00     0.089 A 
HETATM   12  C   UNL     1      -5.826  -1.495 -34.539  1.00  0.00     0.057 A 
HETATM   13  C   UNL     1      -7.281  -1.351 -34.147  1.00  0.00     0.027 A 
BRANCH  12  14
HETATM   14  C   UNL     1      -5.189  -2.861 -34.369  1.00  0.00     0.057 A 
HETATM   15  O   UNL     1      -3.969  -3.080 -33.800  1.00  0.00    -0.327 OA
HETATM   16  C   UNL     1      -3.757  -4.420 -33.818  1.00  0.00     0.142 A 
HETATM   17  C   UNL     1      -4.822  -5.068 -34.396  1.00  0.00     0.027 A 
HETATM   18  C   UNL     1      -5.750  -4.059 -34.755  1.00  0.00     0.035 A 
ENDBRANCH  12  14
ENDBRANCH   8  11
ENDBRANCH   3   7
BRANCH   5  19
HETATM   19  C   UNL     1      -2.657   5.246 -33.240  1.00  0.00     0.010 A 
HETATM   20  C   UNL     1      -2.182   6.581 -33.181  1.00  0.00     0.152 A 
HETATM   21  N   UNL     1      -1.301   6.866 -34.144  1.00  0.00    -0.187 NA
HETATM   22  N   UNL     1      -1.207   5.718 -34.829  1.00  0.00    -0.289 N 
HETATM   23  H   UNL     1      -0.583   5.684 -35.630  1.00  0.00     0.188 HD
HETATM   24  C   UNL     1      -1.993   4.720 -34.329  1.00  0.00     0.123 A 
ENDBRANCH   5  19
TORSDOF 4
ENDMDL
MODEL 5
REMARK VINA RESULT:      -7.7      6.513      9.766
REMARK  4 active torsions:
REMARK  status: ('A' for Active; 'I' for Inactive)
REMARK    1  A    between atoms: C_3  and  N_4 
REMARK       I    between atoms: N_4  and  C_5 
REMARK    2  A    between atoms: C_5  and  C_6 
REMARK    3  A    between atoms: C_7  and  C_8 
REMARK    4  A    between atoms: C_16  and  C_17 
ROOT
HETATM    1  C   UNL     1      -5.690   3.264 -32.548  1.00  0.00     0.003 A 
HETATM    2  C   UNL     1      -4.685   4.046 -31.975  1.00  0.00     0.029 A 
HETATM    3  C   UNL     1      -3.479   3.465 -31.588  1.00  0.00     0.035 A 
HETATM    4  C   UNL     1      -3.297   2.085 -31.775  1.00  0.00     0.042 A 
HETATM    5  C   UNL     1      -4.299   1.282 -32.347  1.00  0.00    -0.021 A 
HETATM    6  C   UNL     1      -5.498   1.893 -32.735  1.00  0.00     0.012 A 
ENDROOT
BRANCH   3   7
HETATM    7  N   UNL     1      -2.401   4.188 -31.035  1.00  0.00    -0.327 N 
HETATM    8  C   UNL     1      -1.488   4.978 -31.703  1.00  0.00     0.227 C 
HETATM    9  O   UNL     1      -1.485   5.264 -32.891  1.00  0.00    -0.273 OA
HETATM   10  H   UNL     1      -2.275   4.098 -30.036  1.00  0.00     0.169 HD
BRANCH   8  11
HETATM   11  C   UNL     1      -0.398   5.490 -30.817  1.00  0.00     0.089 A 
HETATM   12  C   UNL     1      -0.516   6.872 -30.190  1.00  0.00     0.057 A 
HETATM   13  C   UNL     1       0.477   6.606 -31.301  1.00  0.00     0.027 A 
BRANCH  12  14
HETATM   14  C   UNL     1       0.035   7.056 -28.789  1.00  0.00     0.057 A 
HETATM   15  O   UNL     1      -0.345   6.320 -27.706  1.00  0.00    -0.327 OA
HETATM   16  C   UNL     1       0.375   6.770 -26.647  1.00  0.00     0.142 A 
HETATM   17  C   UNL     1       1.212   7.790 -27.033  1.00  0.00     0.027 A 
HETATM   18  C   UNL     1       0.991   7.978 -28.420  1.00  0.00     0.035 A 
ENDBRANCH  12  14
ENDBRANCH   8  11
ENDBRANCH   3   7
BRANCH   5  19
HETATM   19  C   UNL     1      -4.078  -0.148 -32.533  1.00  0.00     0.010 A 
HETATM   20  C   UNL     1      -3.286  -1.067 -31.800  1.00  0.00     0.152 A 
HETATM   21  N   UNL     1      -3.349  -2.312 -32.281  1.00  0.00    -0.187 NA
HETATM   22  N   UNL     1      -4.179  -2.199 -33.328  1.00  0.00    -0.289 N 
HETATM   23  H   UNL     1      -4.388  -3.033 -33.869  1.00  0.00     0.188 HD
HETATM   24  C   UNL     1      -4.644  -0.930 -33.519  1.00  0.00     0.123 A 
ENDBRANCH   5  19
TORSDOF 4
ENDMDL
MODEL 6
REMARK VINA RESULT:      -7.5      5.688      8.681
REMARK  4 active torsions:
REMARK  status: ('A' for Active; 'I' for Inactive)
REMARK    1  A    between atoms: C_3  and  N_4 
REMARK       I    between atoms: N_4  and  C_5 
REMARK    2  A    between atoms: C_5  and  C_6 
REMARK    3  A    between atoms: C_7  and  C_8 
REMARK    4  A    between atoms: C_16  and  C_17 
ROOT
HETATM    1  C   UNL     1      -1.568   5.988 -34.048  1.00  0.00     0.003 A 
HETATM    2  C   UNL     1      -2.371   4.847 -34.088  1.00  0.00     0.029 A 
HETATM    3  C   UNL     1      -2.541   4.068 -32.944  1.00  0.00     0.035 A 
HETATM    4  C   UNL     1      -1.885   4.447 -31.760  1.00  0.00     0.042 A 
HETATM    5  C   UNL     1      -1.070   5.590 -31.704  1.00  0.00    -0.021 A 
HETATM    6  C   UNL     1      -0.924   6.359 -32.866  1.00  0.00     0.012 A 
ENDROOT
BRANCH   3   7
HETATM    7  N   UNL     1      -3.361   2.922 -32.887  1.00  0.00    -0.327 N 
HETATM    8  C   UNL     1      -4.587   2.795 -32.268  1.00  0.00     0.227 C 
HETATM    9  O   UNL     1      -5.232   3.673 -31.713  1.00  0.00    -0.273 OA
HETATM   10  H   UNL     1      -2.995   2.096 -33.339  1.00  0.00     0.169 HD
BRANCH   8  11
HETATM   11  C   UNL     1      -5.117   1.398 -32.297  1.00  0.00     0.089 A 
HETATM   12  C   UNL     1      -5.892   0.905 -33.511  1.00  0.00     0.057 A 
HETATM   13  C   UNL     1      -6.594   1.170 -32.197  1.00  0.00     0.027 A 
BRANCH  12  14
HETATM   14  C   UNL     1      -5.704  -0.543 -33.924  1.00  0.00     0.057 A 
HETATM   15  O   UNL     1      -4.516  -1.210 -33.882  1.00  0.00    -0.327 OA
HETATM   16  C   UNL     1      -4.755  -2.475 -34.312  1.00  0.00     0.142 A 
HETATM   17  C   UNL     1      -6.082  -2.630 -34.636  1.00  0.00     0.027 A 
HETATM   18  C   UNL     1      -6.698  -1.378 -34.386  1.00  0.00     0.035 A 
ENDBRANCH  12  14
ENDBRANCH   8  11
ENDBRANCH   3   7
BRANCH   5  19
HETATM   19  C   UNL     1      -0.408   5.960 -30.459  1.00  0.00     0.010 A 
HETATM   20  C   UNL     1      -0.389   7.186 -29.747  1.00  0.00     0.152 A 
HETATM   21  N   UNL     1       0.335   7.129 -28.625  1.00  0.00    -0.187 NA
HETATM   22  N   UNL     1       0.788   5.867 -28.611  1.00  0.00    -0.289 N 
HETATM   23  H   UNL     1       1.377   5.575 -27.837  1.00  0.00     0.188 HD
HETATM   24  C   UNL     1       0.371   5.128 -29.681  1.00  0.00     0.123 A 
ENDBRANCH   5  19
TORSDOF 4
ENDMDL
MODEL 7
REMARK VINA RESULT:      -7.5      5.495      8.625
REMARK  4 active torsions:
REMARK  status: ('A' for Active; 'I' for Inactive)
REMARK    1  A    between atoms: C_3  and  N_4 
REMARK       I    between atoms: N_4  and  C_5 
REMARK    2  A    between atoms: C_5  and  C_6 
REMARK    3  A    between atoms: C_7  and  C_8 
REMARK    4  A    between atoms: C_16  and  C_17 
ROOT
HETATM    1  C   UNL     1      -6.270   1.591 -33.087  1.00  0.00     0.003 A 
HETATM    2  C   UNL     1      -5.370   2.578 -32.683  1.00  0.00     0.029 A 
HETATM    3  C   UNL     1      -4.060   2.238 -32.346  1.00  0.00     0.035 A 
HETATM    4  C   UNL     1      -3.669   0.890 -32.413  1.00  0.00     0.042 A 
HETATM    5  C   UNL     1      -4.564  -0.116 -32.815  1.00  0.00    -0.021 A 
HETATM    6  C   UNL     1      -5.871   0.255 -33.155  1.00  0.00     0.012 A 
ENDROOT
BRANCH   3   7
HETATM    7  N   UNL     1      -3.079   3.175 -31.962  1.00  0.00    -0.327 N 
HETATM    8  C   UNL     1      -2.528   4.179 -32.732  1.00  0.00     0.227 C 
HETATM    9  O   UNL     1      -2.840   4.496 -33.871  1.00  0.00    -0.273 OA
HETATM   10  H   UNL     1      -2.728   3.085 -31.019  1.00  0.00     0.169 HD
BRANCH   8  11
HETATM   11  C   UNL     1      -1.418   4.905 -32.042  1.00  0.00     0.089 A 
HETATM   12  C   UNL     1      -1.635   6.326 -31.543  1.00  0.00     0.057 A 
HETATM   13  C   UNL     1      -0.746   6.050 -32.736  1.00  0.00     0.027 A 
BRANCH  12  14
HETATM   14  C   UNL     1      -0.958   6.725 -30.245  1.00  0.00     0.057 A 
HETATM   15  O   UNL     1      -1.573   6.744 -29.028  1.00  0.00    -0.327 OA
HETATM   16  C   UNL     1      -0.643   7.139 -28.120  1.00  0.00     0.142 A 
HETATM   17  C   UNL     1       0.561   7.379 -28.738  1.00  0.00     0.027 A 
HETATM   18  C   UNL     1       0.358   7.113 -30.115  1.00  0.00     0.035 A 
ENDBRANCH  12  14
ENDBRANCH   8  11
ENDBRANCH   3   7
BRANCH   5  19
HETATM   19  C   UNL     1      -4.126  -1.506 -32.880  1.00  0.00     0.010 A 
HETATM   20  C   UNL     1      -4.378  -2.514 -33.845  1.00  0.00     0.152 A 
HETATM   21  N   UNL     1      -3.787  -3.676 -33.554  1.00  0.00    -0.187 NA
HETATM   22  N   UNL     1      -3.153  -3.423 -32.400  1.00  0.00    -0.289 N 
HETATM   23  H   UNL     1      -2.620  -4.172 -31.969  1.00  0.00     0.188 HD
HETATM   24  C   UNL     1      -3.322  -2.143 -31.957  1.00  0.00     0.123 A 
ENDBRANCH   5  19
TORSDOF 4
ENDMDL
MODEL 8
REMARK VINA RESULT:      -7.2      1.729      2.285
REMARK  4 active torsions:
REMARK  status: ('A' for Active; 'I' for Inactive)
REMARK    1  A    between atoms: C_3  and  N_4 
REMARK       I    between atoms: N_4  and  C_5 
REMARK    2  A    between atoms: C_5  and  C_6 
REMARK    3  A    between atoms: C_7  and  C_8 
REMARK    4  A    between atoms: C_16  and  C_17 
ROOT
HETATM    1  C   UNL     1      -5.864   0.657 -30.760  1.00  0.00     0.003 A 
HETATM    2  C   UNL     1      -7.131   1.205 -30.963  1.00  0.00     0.029 A 
HETATM    3  C   UNL     1      -7.913   0.787 -32.039  1.00  0.00     0.035 A 
HETATM    4  C   UNL     1      -7.401  -0.186 -32.913  1.00  0.00     0.042 A 
HETATM    5  C   UNL     1      -6.126  -0.747 -32.725  1.00  0.00    -0.021 A 
HETATM    6  C   UNL     1      -5.365  -0.314 -31.632  1.00  0.00     0.012 A 
ENDROOT
BRANCH   3   7
HETATM    7  N   UNL     1      -9.215   1.263 -32.296  1.00  0.00    -0.327 N 
HETATM    8  C   UNL     1      -9.572   2.412 -32.970  1.00  0.00     0.227 C 
HETATM    9  O   UNL     1      -8.830   3.199 -33.539  1.00  0.00    -0.273 OA
HETATM   10  H   UNL     1      -9.971   0.703 -31.925  1.00  0.00     0.169 HD
BRANCH   8  11
HETATM   11  C   UNL     1     -11.044   2.674 -32.944  1.00  0.00     0.089 A 
HETATM   12  C   UNL     1     -11.879   2.442 -34.194  1.00  0.00     0.057 A 
HETATM   13  C   UNL     1     -11.596   3.844 -33.700  1.00  0.00     0.027 A 
BRANCH  12  14
HETATM   14  C   UNL     1     -13.286   1.907 -34.010  1.00  0.00     0.057 A 
HETATM   15  O   UNL     1     -13.852   0.937 -34.784  1.00  0.00    -0.327 OA
HETATM   16  C   UNL     1     -15.103   0.724 -34.302  1.00  0.00     0.142 A 
HETATM   17  C   UNL     1     -15.353   1.548 -33.231  1.00  0.00     0.027 A 
HETATM   18  C   UNL     1     -14.177   2.316 -33.042  1.00  0.00     0.035 A 
ENDBRANCH  12  14
ENDBRANCH   8  11
ENDBRANCH   3   7
BRANCH   5  19
HETATM   19  C   UNL     1      -5.625  -1.760 -33.648  1.00  0.00     0.010 A 
HETATM   20  C   UNL     1      -4.368  -2.413 -33.714  1.00  0.00     0.152 A 
HETATM   21  N   UNL     1      -4.292  -3.299 -34.711  1.00  0.00    -0.187 NA
HETATM   22  N   UNL     1      -5.496  -3.218 -35.293  1.00  0.00    -0.289 N 
HETATM   23  H   UNL     1      -5.685  -3.811 -36.096  1.00  0.00     0.188 HD
HETATM   24  C   UNL     1      -6.329  -2.316 -34.695  1.00  0.00     0.123 A 
ENDBRANCH   5  19
TORSDOF 4
ENDMDL
MODEL 9
REMARK VINA RESULT:      -7.2      1.450      1.584
REMARK  4 active torsions:
REMARK  status: ('A' for Active; 'I' for Inactive)
REMARK    1  A    between atoms: C_3  and  N_4 
REMARK       I    between atoms: N_4  and  C_5 
REMARK    2  A    between atoms: C_5  and  C_6 
REMARK    3  A    between atoms: C_7  and  C_8 
REMARK    4  A    between atoms: C_16  and  C_17 
ROOT
HETATM    1  C   UNL     1      -3.775  -0.008 -32.648  1.00  0.00     0.003 A 
HETATM    2  C   UNL     1      -4.874   0.801 -32.940  1.00  0.00     0.029 A 
HETATM    3  C   UNL     1      -5.973   0.274 -33.616  1.00  0.00     0.035 A 
HETATM    4  C   UNL     1      -5.950  -1.076 -34.004  1.00  0.00     0.042 A 
HETATM    5  C   UNL     1      -4.850  -1.904 -33.721  1.00  0.00    -0.021 A 
HETATM    6  C   UNL     1      -3.763  -1.351 -33.033  1.00  0.00     0.012 A 
ENDROOT
BRANCH   3   7
HETATM    7  N   UNL     1      -7.137   1.011 -33.919  1.00  0.00    -0.327 N 
HETATM    8  C   UNL     1      -7.891   1.783 -33.060  1.00  0.00     0.227 C 
HETATM    9  O   UNL     1      -7.651   2.038 -31.888  1.00  0.00    -0.273 OA
HETATM   10  H   UNL     1      -7.463   0.948 -34.874  1.00  0.00     0.169 HD
BRANCH   8  11
HETATM   11  C   UNL     1      -9.135   2.320 -33.692  1.00  0.00     0.089 A 
HETATM   12  C   UNL     1     -10.495   1.975 -33.103  1.00  0.00     0.057 A 
HETATM   13  C   UNL     1     -10.049   1.385 -34.424  1.00  0.00     0.027 A 
BRANCH  12  14
HETATM   14  C   UNL     1     -11.569   3.046 -33.143  1.00  0.00     0.057 A 
HETATM   15  O   UNL     1     -11.829   3.918 -32.128  1.00  0.00    -0.327 OA
HETATM   16  C   UNL     1     -12.841   4.721 -32.544  1.00  0.00     0.142 A 
HETATM   17  C   UNL     1     -13.239   4.375 -33.813  1.00  0.00     0.027 A 
HETATM   18  C   UNL     1     -12.418   3.288 -34.202  1.00  0.00     0.035 A 
ENDBRANCH  12  14
ENDBRANCH   8  11
ENDBRANCH   3   7
BRANCH   5  19
HETATM   19  C   UNL     1      -4.858  -3.303 -34.132  1.00  0.00     0.010 A 
HETATM   20  C   UNL     1      -5.844  -4.065 -34.810  1.00  0.00     0.152 A 
HETATM   21  N   UNL     1      -5.475  -5.332 -35.017  1.00  0.00    -0.187 NA
HETATM   22  N   UNL     1      -4.251  -5.393 -34.473  1.00  0.00    -0.289 N 
HETATM   23  H   UNL     1      -3.752  -6.277 -34.507  1.00  0.00     0.188 HD
HETATM   24  C   UNL     1      -3.837  -4.209 -33.934  1.00  0.00     0.123 A 
ENDBRANCH   5  19
TORSDOF 4
ENDMDL
MODEL 10
REMARK VINA RESULT:      -7.0      1.941      2.340
REMARK  4 active torsions:
REMARK  status: ('A' for Active; 'I' for Inactive)
REMARK    1  A    between atoms: C_3  and  N_4 
REMARK       I    between atoms: N_4  and  C_5 
REMARK    2  A    between atoms: C_5  and  C_6 
REMARK    3  A    between atoms: C_7  and  C_8 
REMARK    4  A    between atoms: C_16  and  C_17 
ROOT
HETATM    1  C   UNL     1      -3.899  -0.035 -33.019  1.00  0.00     0.003 A 
HETATM    2  C   UNL     1      -4.960   0.692 -32.477  1.00  0.00     0.029 A 
HETATM    3  C   UNL     1      -6.255   0.179 -32.518  1.00  0.00     0.035 A 
HETATM    4  C   UNL     1      -6.472  -1.073 -33.118  1.00  0.00     0.042 A 
HETATM    5  C   UNL     1      -5.416  -1.816 -33.672  1.00  0.00    -0.021 A 
HETATM    6  C   UNL     1      -4.123  -1.280 -33.610  1.00  0.00     0.012 A 
ENDROOT
BRANCH   3   7
HETATM    7  N   UNL     1      -7.376   0.830 -31.963  1.00  0.00    -0.327 N 
HETATM    8  C   UNL     1      -8.355   1.535 -32.632  1.00  0.00     0.227 C 
HETATM    9  O   UNL     1      -8.479   1.667 -33.841  1.00  0.00    -0.273 OA
HETATM   10  H   UNL     1      -7.457   0.788 -30.957  1.00  0.00     0.169 HD
BRANCH   8  11
HETATM   11  C   UNL     1      -9.326   2.205 -31.714  1.00  0.00     0.089 A 
HETATM   12  C   UNL     1      -9.954   3.534 -32.110  1.00  0.00     0.057 A 
HETATM   13  C   UNL     1      -8.921   3.462 -31.006  1.00  0.00     0.027 A 
BRANCH  12  14
HETATM   14  C   UNL     1     -11.395   3.778 -31.704  1.00  0.00     0.057 A 
HETATM   15  O   UNL     1     -11.785   4.252 -30.487  1.00  0.00    -0.327 OA
HETATM   16  C   UNL     1     -13.139   4.347 -30.512  1.00  0.00     0.142 A 
HETATM   17  C   UNL     1     -13.626   3.936 -31.730  1.00  0.00     0.027 A 
HETATM   18  C   UNL     1     -12.498   3.565 -32.502  1.00  0.00     0.035 A 
ENDBRANCH  12  14
ENDBRANCH   8  11
ENDBRANCH   3   7
BRANCH   5  19
HETATM   19  C   UNL     1      -5.673  -3.115 -34.284  1.00  0.00     0.010 A 
HETATM   20  C   UNL     1      -4.832  -4.244 -34.450  1.00  0.00     0.152 A 
HETATM   21  N   UNL     1      -5.441  -5.265 -35.061  1.00  0.00    -0.187 NA
HETATM   22  N   UNL     1      -6.675  -4.797 -35.292  1.00  0.00    -0.289 N 
HETATM   23  H   UNL     1      -7.341  -5.405 -35.759  1.00  0.00     0.188 HD
HETATM   24  C   UNL     1      -6.865  -3.521 -34.846  1.00  0.00     0.123 A 
ENDBRANCH   5  19
TORSDOF 4
ENDMDL
