MODEL 1
REMARK VINA RESULT:      -7.7      0.000      0.000
REMARK  6 active torsions:
REMARK  status: ('A' for Active; 'I' for Inactive)
REMARK    1  A    between atoms: C_3  and  N_4 
REMARK    2  A    between atoms: N_4  and  C_5 
REMARK    3  A    between atoms: C_5  and  C_6 
REMARK    4  A    between atoms: N_8  and  C_10 
REMARK    5  A    between atoms: C_10  and  C_11 
REMARK    6  A    between atoms: C_12  and  O_13 
ROOT
HETATM    1  C   UNL     1      -5.241   1.298 -30.860  1.00  0.00     0.031 C 
HETATM    2  C   UNL     1      -3.751   1.456 -31.160  1.00  0.00     0.241 C 
HETATM    3  N   UNL     1      -3.547   2.923 -31.427  1.00  0.00    -0.067 N 
HETATM    4  H   UNL     1      -2.794   3.252 -30.790  1.00  0.00     0.280 HD
HETATM    5  C   UNL     1      -4.802   3.665 -31.048  1.00  0.00     0.235 C 
HETATM    6  C   UNL     1      -5.593   2.650 -30.239  1.00  0.00     0.035 C 
ENDROOT
BRANCH   3   7
HETATM    7  C   UNL     1      -2.991   3.261 -32.787  1.00  0.00     0.276 C 
BRANCH   7   8
HETATM    8  C   UNL     1      -2.384   4.633 -32.861  1.00  0.00     0.002 A 
HETATM    9  C   UNL     1      -1.422   5.041 -31.925  1.00  0.00     0.091 A 
HETATM   10  C   UNL     1      -0.813   6.295 -32.019  1.00  0.00     0.044 A 
HETATM   11 BR   UNL     1       0.489   6.833 -30.757  1.00  0.00    -0.048 Br
HETATM   12  C   UNL     1      -1.166   7.162 -33.050  1.00  0.00     0.022 A 
HETATM   13  C   UNL     1      -2.125   6.772 -33.986  1.00  0.00     0.002 A 
HETATM   14  C   UNL     1      -2.728   5.514 -33.896  1.00  0.00     0.012 A 
BRANCH   9  15
HETATM   15  O   UNL     1      -1.119   4.169 -30.907  1.00  0.00    -0.359 OA
HETATM   16  H   UNL     1      -0.383   3.606 -31.239  1.00  0.00     0.218 HD
ENDBRANCH   9  15
ENDBRANCH   7   8
ENDBRANCH   3   7
BRANCH   1  17
HETATM   17  C   UNL     1      -6.102   0.967 -32.095  1.00  0.00     0.127 C 
BRANCH  17  18
HETATM   18  N   UNL     1      -5.267   0.378 -33.137  1.00  0.00    -0.376 N 
HETATM   19  H   UNL     1      -5.091   1.024 -33.913  1.00  0.00     0.161 HD
BRANCH  18  20
HETATM   20  C   UNL     1      -5.377  -0.915 -33.645  1.00  0.00     0.100 A 
HETATM   21  C   UNL     1      -6.645  -1.376 -34.038  1.00  0.00     0.048 A 
HETATM   22  C   UNL     1      -6.798  -2.646 -34.589  1.00  0.00     0.005 A 
HETATM   23  C   UNL     1      -5.683  -3.450 -34.763  1.00  0.00     0.017 A 
HETATM   24  C   UNL     1      -4.442  -2.958 -34.391  1.00  0.00     0.089 A 
HETATM   25  N   UNL     1      -4.329  -1.726 -33.864  1.00  0.00    -0.353 N 
HETATM   26  H   UNL     1      -3.396  -1.410 -33.627  1.00  0.00     0.166 HD
ENDBRANCH  18  20
ENDBRANCH  17  18
ENDBRANCH   1  17
TORSDOF 6
ENDMDL
MODEL 2
REMARK VINA RESULT:      -7.3      3.302      7.708
REMARK  6 active torsions:
REMARK  status: ('A' for Active; 'I' for Inactive)
REMARK    1  A    between atoms: C_3  and  N_4 
REMARK    2  A    between atoms: N_4  and  C_5 
REMARK    3  A    between atoms: C_5  and  C_6 
REMARK    4  A    between atoms: N_8  and  C_10 
REMARK    5  A    between atoms: C_10  and  C_11 
REMARK    6  A    between atoms: C_12  and  O_13 
ROOT
HETATM    1  C   UNL     1      -5.821   1.920 -30.838  1.00  0.00     0.031 C 
HETATM    2  C   UNL     1      -6.452   1.834 -32.227  1.00  0.00     0.241 C 
HETATM    3  N   UNL     1      -6.462   0.370 -32.575  1.00  0.00    -0.067 N 
HETATM    4  H   UNL     1      -7.439   0.117 -32.823  1.00  0.00     0.280 HD
HETATM    5  C   UNL     1      -6.097  -0.424 -31.348  1.00  0.00     0.235 C 
HETATM    6  C   UNL     1      -6.220   0.581 -30.215  1.00  0.00     0.035 C 
ENDROOT
BRANCH   3   7
HETATM    7  C   UNL     1      -5.705  -0.001 -33.825  1.00  0.00     0.276 C 
BRANCH   7   8
HETATM    8  C   UNL     1      -5.778  -1.465 -34.156  1.00  0.00     0.002 A 
HETATM    9  C   UNL     1      -4.698  -2.316 -33.879  1.00  0.00     0.091 A 
HETATM   10  C   UNL     1      -4.779  -3.687 -34.133  1.00  0.00     0.044 A 
HETATM   11 BR   UNL     1      -3.320  -4.828 -33.749  1.00  0.00    -0.048 Br
HETATM   12  C   UNL     1      -5.943  -4.225 -34.676  1.00  0.00     0.022 A 
HETATM   13  C   UNL     1      -7.025  -3.390 -34.961  1.00  0.00     0.002 A 
HETATM   14  C   UNL     1      -6.947  -2.019 -34.699  1.00  0.00     0.012 A 
BRANCH   9  15
HETATM   15  O   UNL     1      -3.557  -1.745 -33.368  1.00  0.00    -0.359 OA
HETATM   16  H   UNL     1      -3.811  -0.842 -33.072  1.00  0.00     0.218 HD
ENDBRANCH   9  15
ENDBRANCH   7   8
ENDBRANCH   3   7
BRANCH   1  17
HETATM   17  C   UNL     1      -4.295   2.140 -30.850  1.00  0.00     0.127 C 
BRANCH  17  18
HETATM   18  N   UNL     1      -4.001   3.569 -30.887  1.00  0.00    -0.376 N 
HETATM   19  H   UNL     1      -4.843   4.143 -30.995  1.00  0.00     0.161 HD
BRANCH  18  20
HETATM   20  C   UNL     1      -2.953   4.173 -31.579  1.00  0.00     0.100 A 
HETATM   21  C   UNL     1      -2.991   4.176 -32.984  1.00  0.00     0.048 A 
HETATM   22  C   UNL     1      -1.988   4.805 -33.719  1.00  0.00     0.005 A 
HETATM   23  C   UNL     1      -0.955   5.443 -33.052  1.00  0.00     0.017 A 
HETATM   24  C   UNL     1      -0.960   5.447 -31.666  1.00  0.00     0.089 A 
HETATM   25  N   UNL     1      -1.945   4.833 -30.986  1.00  0.00    -0.353 N 
HETATM   26  H   UNL     1      -1.908   4.883 -29.975  1.00  0.00     0.166 HD
ENDBRANCH  18  20
ENDBRANCH  17  18
ENDBRANCH   1  17
TORSDOF 6
ENDMDL
MODEL 3
REMARK VINA RESULT:      -7.1      4.618      6.249
REMARK  6 active torsions:
REMARK  status: ('A' for Active; 'I' for Inactive)
REMARK    1  A    between atoms: C_3  and  N_4 
REMARK    2  A    between atoms: N_4  and  C_5 
REMARK    3  A    between atoms: C_5  and  C_6 
REMARK    4  A    between atoms: N_8  and  C_10 
REMARK    5  A    between atoms: C_10  and  C_11 
REMARK    6  A    between atoms: C_12  and  O_13 
ROOT
HETATM    1  C   UNL     1      -4.361   0.408 -31.641  1.00  0.00     0.031 C 
HETATM    2  C   UNL     1      -5.243   1.080 -32.692  1.00  0.00     0.241 C 
HETATM    3  N   UNL     1      -6.657   0.900 -32.207  1.00  0.00    -0.067 N 
HETATM    4  H   UNL     1      -7.095   1.841 -32.172  1.00  0.00     0.280 HD
HETATM    5  C   UNL     1      -6.623   0.374 -30.796  1.00  0.00     0.235 C 
HETATM    6  C   UNL     1      -5.182   0.588 -30.363  1.00  0.00     0.035 C 
ENDROOT
BRANCH   3   7
HETATM    7  C   UNL     1      -7.571   0.153 -33.145  1.00  0.00     0.276 C 
BRANCH   7   8
HETATM    8  C   UNL     1      -8.895   0.830 -33.354  1.00  0.00     0.002 A 
HETATM    9  C   UNL     1      -8.958   2.136 -33.862  1.00  0.00     0.091 A 
HETATM   10  C   UNL     1     -10.187   2.753 -34.111  1.00  0.00     0.044 A 
HETATM   11 BR   UNL     1     -10.261   4.512 -34.803  1.00  0.00    -0.048 Br
HETATM   12  C   UNL     1     -11.372   2.071 -33.847  1.00  0.00     0.022 A 
HETATM   13  C   UNL     1     -11.325   0.772 -33.337  1.00  0.00     0.002 A 
HETATM   14  C   UNL     1     -10.096   0.152 -33.096  1.00  0.00     0.012 A 
BRANCH   9  15
HETATM   15  O   UNL     1      -7.769   2.787 -34.085  1.00  0.00    -0.359 OA
HETATM   16  H   UNL     1      -7.929   3.733 -33.864  1.00  0.00     0.218 HD
ENDBRANCH   9  15
ENDBRANCH   7   8
ENDBRANCH   3   7
BRANCH   1  17
HETATM   17  C   UNL     1      -4.040  -1.071 -31.939  1.00  0.00     0.127 C 
BRANCH  17  18
HETATM   18  N   UNL     1      -4.303  -1.361 -33.344  1.00  0.00    -0.376 N 
HETATM   19  H   UNL     1      -4.756  -0.582 -33.831  1.00  0.00     0.161 HD
BRANCH  18  20
HETATM   20  C   UNL     1      -4.798  -2.559 -33.856  1.00  0.00     0.100 A 
HETATM   21  C   UNL     1      -6.041  -2.546 -34.512  1.00  0.00     0.048 A 
HETATM   22  C   UNL     1      -6.558  -3.710 -35.077  1.00  0.00     0.005 A 
HETATM   23  C   UNL     1      -5.827  -4.884 -35.001  1.00  0.00     0.017 A 
HETATM   24  C   UNL     1      -4.592  -4.861 -34.372  1.00  0.00     0.089 A 
HETATM   25  N   UNL     1      -4.120  -3.719 -33.839  1.00  0.00    -0.353 N 
HETATM   26  H   UNL     1      -3.205  -3.755 -33.408  1.00  0.00     0.166 HD
ENDBRANCH  18  20
ENDBRANCH  17  18
ENDBRANCH   1  17
TORSDOF 6
ENDMDL
MODEL 4
REMARK VINA RESULT:      -6.9      2.323      3.107
REMARK  6 active torsions:
REMARK  status: ('A' for Active; 'I' for Inactive)
REMARK    1  A    between atoms: C_3  and  N_4 
REMARK    2  A    between atoms: N_4  and  C_5 
REMARK    3  A    between atoms: C_5  and  C_6 
REMARK    4  A    between atoms: N_8  and  C_10 
REMARK    5  A    between atoms: C_10  and  C_11 
REMARK    6  A    between atoms: C_12  and  O_13 
ROOT
HETATM    1  C   UNL     1      -6.068   0.004 -31.465  1.00  0.00     0.031 C 
HETATM    2  C   UNL     1      -5.868   0.825 -30.192  1.00  0.00     0.241 C 
HETATM    3  N   UNL     1      -6.944   1.878 -30.217  1.00  0.00    -0.067 N 
HETATM    4  H   UNL     1      -7.464   1.811 -29.320  1.00  0.00     0.280 HD
HETATM    5  C   UNL     1      -7.917   1.551 -31.319  1.00  0.00     0.235 C 
HETATM    6  C   UNL     1      -7.577   0.117 -31.691  1.00  0.00     0.035 C 
ENDROOT
BRANCH   3   7
HETATM    7  C   UNL     1      -6.453   3.303 -30.200  1.00  0.00     0.276 C 
BRANCH   7   8
HETATM    8  C   UNL     1      -5.971   3.785 -31.539  1.00  0.00     0.002 A 
HETATM    9  C   UNL     1      -4.599   3.913 -31.802  1.00  0.00     0.091 A 
HETATM   10  C   UNL     1      -4.141   4.308 -33.061  1.00  0.00     0.044 A 
HETATM   11 BR   UNL     1      -2.289   4.470 -33.407  1.00  0.00    -0.048 Br
HETATM   12  C   UNL     1      -5.053   4.588 -34.075  1.00  0.00     0.022 A 
HETATM   13  C   UNL     1      -6.422   4.469 -33.828  1.00  0.00     0.002 A 
HETATM   14  C   UNL     1      -6.880   4.065 -32.570  1.00  0.00     0.012 A 
BRANCH   9  15
HETATM   15  O   UNL     1      -3.730   3.654 -30.769  1.00  0.00    -0.359 OA
HETATM   16  H   UNL     1      -4.289   3.460 -29.983  1.00  0.00     0.218 HD
ENDBRANCH   9  15
ENDBRANCH   7   8
ENDBRANCH   3   7
BRANCH   1  17
HETATM   17  C   UNL     1      -5.247   0.499 -32.671  1.00  0.00     0.127 C 
BRANCH  17  18
HETATM   18  N   UNL     1      -5.686  -0.184 -33.884  1.00  0.00    -0.376 N 
HETATM   19  H   UNL     1      -6.588   0.161 -34.227  1.00  0.00     0.161 HD
BRANCH  18  20
HETATM   20  C   UNL     1      -5.605  -1.553 -34.130  1.00  0.00     0.100 A 
HETATM   21  C   UNL     1      -6.774  -2.237 -34.507  1.00  0.00     0.048 A 
HETATM   22  C   UNL     1      -6.735  -3.597 -34.804  1.00  0.00     0.005 A 
HETATM   23  C   UNL     1      -5.527  -4.272 -34.740  1.00  0.00     0.017 A 
HETATM   24  C   UNL     1      -4.387  -3.566 -34.392  1.00  0.00     0.089 A 
HETATM   25  N   UNL     1      -4.458  -2.252 -34.114  1.00  0.00    -0.353 N 
HETATM   26  H   UNL     1      -3.591  -1.781 -33.883  1.00  0.00     0.166 HD
ENDBRANCH  18  20
ENDBRANCH  17  18
ENDBRANCH   1  17
TORSDOF 6
ENDMDL
MODEL 5
REMARK VINA RESULT:      -6.8      6.264     10.765
REMARK  6 active torsions:
REMARK  status: ('A' for Active; 'I' for Inactive)
REMARK    1  A    between atoms: C_3  and  N_4 
REMARK    2  A    between atoms: N_4  and  C_5 
REMARK    3  A    between atoms: C_5  and  C_6 
REMARK    4  A    between atoms: N_8  and  C_10 
REMARK    5  A    between atoms: C_10  and  C_11 
REMARK    6  A    between atoms: C_12  and  O_13 
ROOT
HETATM    1  C   UNL     1       0.162   8.196 -27.426  1.00  0.00     0.031 C 
HETATM    2  C   UNL     1      -0.638   8.032 -28.718  1.00  0.00     0.241 C 
HETATM    3  N   UNL     1      -0.243   6.688 -29.268  1.00  0.00    -0.067 N 
HETATM    4  H   UNL     1      -1.118   6.146 -29.419  1.00  0.00     0.280 HD
HETATM    5  C   UNL     1       0.559   5.953 -28.227  1.00  0.00     0.235 C 
HETATM    6  C   UNL     1       0.321   6.750 -26.955  1.00  0.00     0.035 C 
ENDROOT
BRANCH   3   7
HETATM    7  C   UNL     1       0.365   6.708 -30.647  1.00  0.00     0.276 C 
BRANCH   7   8
HETATM    8  C   UNL     1      -0.618   6.397 -31.740  1.00  0.00     0.002 A 
HETATM    9  C   UNL     1      -1.343   5.197 -31.728  1.00  0.00     0.091 A 
HETATM   10  C   UNL     1      -2.299   4.924 -32.710  1.00  0.00     0.044 A 
HETATM   11 BR   UNL     1      -3.277   3.305 -32.681  1.00  0.00    -0.048 Br
HETATM   12  C   UNL     1      -2.537   5.849 -33.723  1.00  0.00     0.022 A 
HETATM   13  C   UNL     1      -1.820   7.046 -33.750  1.00  0.00     0.002 A 
HETATM   14  C   UNL     1      -0.869   7.323 -32.762  1.00  0.00     0.012 A 
BRANCH   9  15
HETATM   15  O   UNL     1      -1.062   4.296 -30.728  1.00  0.00    -0.359 OA
HETATM   16  H   UNL     1      -0.244   4.621 -30.289  1.00  0.00     0.218 HD
ENDBRANCH   9  15
ENDBRANCH   7   8
ENDBRANCH   3   7
BRANCH   1  17
HETATM   17  C   UNL     1       1.514   8.914 -27.608  1.00  0.00     0.127 C 
BRANCH  17  18
HETATM   18  N   UNL     1       1.650   9.974 -26.614  1.00  0.00    -0.376 N 
HETATM   19  H   UNL     1       2.077  10.823 -26.996  1.00  0.00     0.161 HD
BRANCH  18  20
HETATM   20  C   UNL     1       2.073   9.813 -25.296  1.00  0.00     0.100 A 
HETATM   21  C   UNL     1       1.140  10.009 -24.263  1.00  0.00     0.048 A 
HETATM   22  C   UNL     1       1.505   9.819 -22.932  1.00  0.00     0.005 A 
HETATM   23  C   UNL     1       2.796   9.419 -22.632  1.00  0.00     0.017 A 
HETATM   24  C   UNL     1       3.687   9.207 -23.673  1.00  0.00     0.089 A 
HETATM   25  N   UNL     1       3.302   9.396 -24.947  1.00  0.00    -0.353 N 
HETATM   26  H   UNL     1       3.988   9.209 -25.669  1.00  0.00     0.166 HD
ENDBRANCH  18  20
ENDBRANCH  17  18
ENDBRANCH   1  17
TORSDOF 6
ENDMDL
MODEL 6
REMARK VINA RESULT:      -6.8      5.601      7.340
REMARK  6 active torsions:
REMARK  status: ('A' for Active; 'I' for Inactive)
REMARK    1  A    between atoms: C_3  and  N_4 
REMARK    2  A    between atoms: N_4  and  C_5 
REMARK    3  A    between atoms: C_5  and  C_6 
REMARK    4  A    between atoms: N_8  and  C_10 
REMARK    5  A    between atoms: C_10  and  C_11 
REMARK    6  A    between atoms: C_12  and  O_13 
ROOT
HETATM    1  C   UNL     1      -6.272   1.877 -32.067  1.00  0.00     0.031 C 
HETATM    2  C   UNL     1      -7.342   2.779 -32.682  1.00  0.00     0.241 C 
HETATM    3  N   UNL     1      -8.595   1.946 -32.726  1.00  0.00    -0.067 N 
HETATM    4  H   UNL     1      -9.341   2.482 -32.240  1.00  0.00     0.280 HD
HETATM    5  C   UNL     1      -8.368   0.685 -31.934  1.00  0.00     0.235 C 
HETATM    6  C   UNL     1      -7.097   0.971 -31.152  1.00  0.00     0.035 C 
ENDROOT
BRANCH   3   7
HETATM    7  C   UNL     1      -9.185   1.741 -34.098  1.00  0.00     0.276 C 
BRANCH   7   8
HETATM    8  C   UNL     1     -10.520   2.408 -34.279  1.00  0.00     0.002 A 
HETATM    9  C   UNL     1     -11.685   1.829 -33.755  1.00  0.00     0.091 A 
HETATM   10  C   UNL     1     -12.921   2.469 -33.871  1.00  0.00     0.044 A 
HETATM   11 BR   UNL     1     -14.485   1.685 -33.153  1.00  0.00    -0.048 Br
HETATM   12  C   UNL     1     -13.009   3.696 -34.523  1.00  0.00     0.022 A 
HETATM   13  C   UNL     1     -11.859   4.282 -35.054  1.00  0.00     0.002 A 
HETATM   14  C   UNL     1     -10.620   3.646 -34.930  1.00  0.00     0.012 A 
BRANCH   9  15
HETATM   15  O   UNL     1     -11.564   0.605 -33.141  1.00  0.00    -0.359 OA
HETATM   16  H   UNL     1     -10.600   0.408 -33.112  1.00  0.00     0.218 HD
ENDBRANCH   9  15
ENDBRANCH   7   8
ENDBRANCH   3   7
BRANCH   1  17
HETATM   17  C   UNL     1      -5.444   1.086 -33.099  1.00  0.00     0.127 C 
BRANCH  17  18
HETATM   18  N   UNL     1      -5.212  -0.270 -32.613  1.00  0.00    -0.376 N 
HETATM   19  H   UNL     1      -4.389  -0.338 -32.007  1.00  0.00     0.161 HD
BRANCH  18  20
HETATM   20  C   UNL     1      -5.315  -1.440 -33.363  1.00  0.00     0.100 A 
HETATM   21  C   UNL     1      -6.556  -1.761 -33.940  1.00  0.00     0.048 A 
HETATM   22  C   UNL     1      -6.697  -2.898 -34.732  1.00  0.00     0.005 A 
HETATM   23  C   UNL     1      -5.596  -3.707 -34.962  1.00  0.00     0.017 A 
HETATM   24  C   UNL     1      -4.379  -3.350 -34.403  1.00  0.00     0.089 A 
HETATM   25  N   UNL     1      -4.276  -2.244 -33.645  1.00  0.00    -0.353 N 
HETATM   26  H   UNL     1      -3.359  -2.021 -33.276  1.00  0.00     0.166 HD
ENDBRANCH  18  20
ENDBRANCH  17  18
ENDBRANCH   1  17
TORSDOF 6
ENDMDL
MODEL 7
REMARK VINA RESULT:      -6.7      3.245      7.040
REMARK  6 active torsions:
REMARK  status: ('A' for Active; 'I' for Inactive)
REMARK    1  A    between atoms: C_3  and  N_4 
REMARK    2  A    between atoms: N_4  and  C_5 
REMARK    3  A    between atoms: C_5  and  C_6 
REMARK    4  A    between atoms: N_8  and  C_10 
REMARK    5  A    between atoms: C_10  and  C_11 
REMARK    6  A    between atoms: C_12  and  O_13 
ROOT
HETATM    1  C   UNL     1      -8.251   2.973 -33.948  1.00  0.00     0.031 C 
HETATM    2  C   UNL     1      -7.677   1.633 -34.407  1.00  0.00     0.241 C 
HETATM    3  N   UNL     1      -8.721   0.606 -34.058  1.00  0.00    -0.067 N 
HETATM    4  H   UNL     1      -8.938   0.078 -34.926  1.00  0.00     0.280 HD
HETATM    5  C   UNL     1      -9.983   1.318 -33.646  1.00  0.00     0.235 C 
HETATM    6  C   UNL     1      -9.757   2.751 -34.097  1.00  0.00     0.035 C 
ENDROOT
BRANCH   3   7
HETATM    7  C   UNL     1      -8.266  -0.483 -33.121  1.00  0.00     0.276 C 
BRANCH   7   8
HETATM    8  C   UNL     1      -6.941  -1.083 -33.500  1.00  0.00     0.002 A 
HETATM    9  C   UNL     1      -5.796  -0.828 -32.732  1.00  0.00     0.091 A 
HETATM   10  C   UNL     1      -4.572  -1.425 -33.046  1.00  0.00     0.044 A 
HETATM   11 BR   UNL     1      -3.034  -1.082 -31.999  1.00  0.00    -0.048 Br
HETATM   12  C   UNL     1      -4.478  -2.282 -34.139  1.00  0.00     0.022 A 
HETATM   13  C   UNL     1      -5.609  -2.541 -34.916  1.00  0.00     0.002 A 
HETATM   14  C   UNL     1      -6.835  -1.950 -34.596  1.00  0.00     0.012 A 
BRANCH   9  15
HETATM   15  O   UNL     1      -5.921   0.043 -31.676  1.00  0.00    -0.359 OA
HETATM   16  H   UNL     1      -5.588  -0.437 -30.885  1.00  0.00     0.218 HD
ENDBRANCH   9  15
ENDBRANCH   7   8
ENDBRANCH   3   7
BRANCH   1  17
HETATM   17  C   UNL     1      -7.848   3.374 -32.515  1.00  0.00     0.127 C 
BRANCH  17  18
HETATM   18  N   UNL     1      -6.489   2.921 -32.237  1.00  0.00    -0.376 N 
HETATM   19  H   UNL     1      -6.385   2.537 -31.293  1.00  0.00     0.161 HD
BRANCH  18  20
HETATM   20  C   UNL     1      -5.315   3.587 -32.583  1.00  0.00     0.100 A 
HETATM   21  C   UNL     1      -4.088   2.930 -32.389  1.00  0.00     0.048 A 
HETATM   22  C   UNL     1      -2.890   3.538 -32.758  1.00  0.00     0.005 A 
HETATM   23  C   UNL     1      -2.918   4.797 -33.336  1.00  0.00     0.017 A 
HETATM   24  C   UNL     1      -4.145   5.409 -33.540  1.00  0.00     0.089 A 
HETATM   25  N   UNL     1      -5.283   4.793 -33.175  1.00  0.00    -0.353 N 
HETATM   26  H   UNL     1      -6.151   5.278 -33.364  1.00  0.00     0.166 HD
ENDBRANCH  18  20
ENDBRANCH  17  18
ENDBRANCH   1  17
TORSDOF 6
ENDMDL
MODEL 8
REMARK VINA RESULT:      -6.7      1.578      1.908
REMARK  6 active torsions:
REMARK  status: ('A' for Active; 'I' for Inactive)
REMARK    1  A    between atoms: C_3  and  N_4 
REMARK    2  A    between atoms: N_4  and  C_5 
REMARK    3  A    between atoms: C_5  and  C_6 
REMARK    4  A    between atoms: N_8  and  C_10 
REMARK    5  A    between atoms: C_10  and  C_11 
REMARK    6  A    between atoms: C_12  and  O_13 
ROOT
HETATM    1  C   UNL     1      -4.828   1.713 -31.298  1.00  0.00     0.031 C 
HETATM    2  C   UNL     1      -3.512   2.433 -31.005  1.00  0.00     0.241 C 
HETATM    3  N   UNL     1      -3.828   3.902 -31.094  1.00  0.00    -0.067 N 
HETATM    4  H   UNL     1      -3.519   4.339 -30.203  1.00  0.00     0.280 HD
HETATM    5  C   UNL     1      -5.322   4.073 -31.177  1.00  0.00     0.235 C 
HETATM    6  C   UNL     1      -5.866   2.710 -30.784  1.00  0.00     0.035 C 
ENDROOT
BRANCH   3   7
HETATM    7  C   UNL     1      -3.038   4.670 -32.123  1.00  0.00     0.276 C 
BRANCH   7   8
HETATM    8  C   UNL     1      -1.910   5.470 -31.535  1.00  0.00     0.002 A 
HETATM    9  C   UNL     1      -2.170   6.561 -30.693  1.00  0.00     0.091 A 
HETATM   10  C   UNL     1      -1.126   7.276 -30.099  1.00  0.00     0.044 A 
HETATM   11 BR   UNL     1      -1.487   8.740 -28.958  1.00  0.00    -0.048 Br
HETATM   12  C   UNL     1       0.194   6.911 -30.347  1.00  0.00     0.022 A 
HETATM   13  C   UNL     1       0.469   5.830 -31.187  1.00  0.00     0.002 A 
HETATM   14  C   UNL     1      -0.576   5.110 -31.774  1.00  0.00     0.012 A 
BRANCH   9  15
HETATM   15  O   UNL     1      -3.484   6.908 -30.492  1.00  0.00    -0.359 OA
HETATM   16  H   UNL     1      -4.014   6.331 -31.088  1.00  0.00     0.218 HD
ENDBRANCH   9  15
ENDBRANCH   7   8
ENDBRANCH   3   7
BRANCH   1  17
HETATM   17  C   UNL     1      -5.033   1.353 -32.784  1.00  0.00     0.127 C 
BRANCH  17  18
HETATM   18  N   UNL     1      -4.363   0.092 -33.085  1.00  0.00    -0.376 N 
HETATM   19  H   UNL     1      -3.441   0.225 -33.509  1.00  0.00     0.161 HD
BRANCH  18  20
HETATM   20  C   UNL     1      -4.956  -1.039 -33.644  1.00  0.00     0.100 A 
HETATM   21  C   UNL     1      -6.337  -1.015 -33.903  1.00  0.00     0.048 A 
HETATM   22  C   UNL     1      -6.966  -2.105 -34.499  1.00  0.00     0.005 A 
HETATM   23  C   UNL     1      -6.214  -3.214 -34.851  1.00  0.00     0.017 A 
HETATM   24  C   UNL     1      -4.850  -3.199 -34.608  1.00  0.00     0.089 A 
HETATM   25  N   UNL     1      -4.273  -2.129 -34.033  1.00  0.00    -0.353 N 
HETATM   26  H   UNL     1      -3.270  -2.163 -33.896  1.00  0.00     0.166 HD
ENDBRANCH  18  20
ENDBRANCH  17  18
ENDBRANCH   1  17
TORSDOF 6
ENDMDL
MODEL 9
REMARK VINA RESULT:      -6.7      3.257      7.140
REMARK  6 active torsions:
REMARK  status: ('A' for Active; 'I' for Inactive)
REMARK    1  A    between atoms: C_3  and  N_4 
REMARK    2  A    between atoms: N_4  and  C_5 
REMARK    3  A    between atoms: C_5  and  C_6 
REMARK    4  A    between atoms: N_8  and  C_10 
REMARK    5  A    between atoms: C_10  and  C_11 
REMARK    6  A    between atoms: C_12  and  O_13 
ROOT
HETATM    1  C   UNL     1      -6.007   3.598 -31.633  1.00  0.00     0.031 C 
HETATM    2  C   UNL     1      -7.170   3.027 -32.443  1.00  0.00     0.241 C 
HETATM    3  N   UNL     1      -8.124   2.452 -31.430  1.00  0.00    -0.067 N 
HETATM    4  H   UNL     1      -9.056   2.877 -31.605  1.00  0.00     0.280 HD
HETATM    5  C   UNL     1      -7.690   2.885 -30.055  1.00  0.00     0.235 C 
HETATM    6  C   UNL     1      -6.688   3.995 -30.322  1.00  0.00     0.035 C 
ENDROOT
BRANCH   3   7
HETATM    7  C   UNL     1      -8.408   0.979 -31.576  1.00  0.00     0.276 C 
BRANCH   7   8
HETATM    8  C   UNL     1      -7.788   0.369 -32.801  1.00  0.00     0.002 A 
HETATM    9  C   UNL     1      -6.644  -0.437 -32.697  1.00  0.00     0.091 A 
HETATM   10  C   UNL     1      -6.093  -1.053 -33.824  1.00  0.00     0.044 A 
HETATM   11 BR   UNL     1      -4.556  -2.144 -33.672  1.00  0.00    -0.048 Br
HETATM   12  C   UNL     1      -6.676  -0.863 -35.073  1.00  0.00     0.022 A 
HETATM   13  C   UNL     1      -7.812  -0.060 -35.193  1.00  0.00     0.002 A 
HETATM   14  C   UNL     1      -8.369   0.549 -34.064  1.00  0.00     0.012 A 
BRANCH   9  15
HETATM   15  O   UNL     1      -6.081  -0.580 -31.452  1.00  0.00    -0.359 OA
HETATM   16  H   UNL     1      -5.142  -0.300 -31.543  1.00  0.00     0.218 HD
ENDBRANCH   9  15
ENDBRANCH   7   8
ENDBRANCH   3   7
BRANCH   1  17
HETATM   17  C   UNL     1      -4.841   2.612 -31.423  1.00  0.00     0.127 C 
BRANCH  17  18
HETATM   18  N   UNL     1      -3.802   2.855 -32.419  1.00  0.00    -0.376 N 
HETATM   19  H   UNL     1      -3.425   1.989 -32.816  1.00  0.00     0.161 HD
BRANCH  18  20
HETATM   20  C   UNL     1      -2.774   3.790 -32.322  1.00  0.00     0.100 A 
HETATM   21  C   UNL     1      -2.283   4.372 -33.504  1.00  0.00     0.048 A 
HETATM   22  C   UNL     1      -1.284   5.343 -33.455  1.00  0.00     0.005 A 
HETATM   23  C   UNL     1      -0.786   5.743 -32.226  1.00  0.00     0.017 A 
HETATM   24  C   UNL     1      -1.309   5.171 -31.076  1.00  0.00     0.089 A 
HETATM   25  N   UNL     1      -2.275   4.238 -31.159  1.00  0.00    -0.353 N 
HETATM   26  H   UNL     1      -2.633   3.867 -30.287  1.00  0.00     0.166 HD
ENDBRANCH  18  20
ENDBRANCH  17  18
ENDBRANCH   1  17
TORSDOF 6
ENDMDL
MODEL 10
REMARK VINA RESULT:      -6.6     16.859     19.547
REMARK  6 active torsions:
REMARK  status: ('A' for Active; 'I' for Inactive)
REMARK    1  A    between atoms: C_3  and  N_4 
REMARK    2  A    between atoms: N_4  and  C_5 
REMARK    3  A    between atoms: C_5  and  C_6 
REMARK    4  A    between atoms: N_8  and  C_10 
REMARK    5  A    between atoms: C_10  and  C_11 
REMARK    6  A    between atoms: C_12  and  O_13 
ROOT
HETATM    1  C   UNL     1      -2.503 -13.541 -38.187  1.00  0.00     0.031 C 
HETATM    2  C   UNL     1      -3.016 -14.651 -39.104  1.00  0.00     0.241 C 
HETATM    3  N   UNL     1      -2.173 -14.568 -40.348  1.00  0.00    -0.067 N 
HETATM    4  H   UNL     1      -1.764 -15.509 -40.509  1.00  0.00     0.280 HD
HETATM    5  C   UNL     1      -1.027 -13.624 -40.096  1.00  0.00     0.235 C 
HETATM    6  C   UNL     1      -1.030 -13.442 -38.588  1.00  0.00     0.035 C 
ENDROOT
BRANCH   3   7
HETATM    7  C   UNL     1      -2.933 -14.323 -41.627  1.00  0.00     0.276 C 
BRANCH   7   8
HETATM    8  C   UNL     1      -2.823 -15.452 -42.613  1.00  0.00     0.002 A 
HETATM    9  C   UNL     1      -3.494 -15.394 -43.843  1.00  0.00     0.091 A 
HETATM   10  C   UNL     1      -3.353 -16.414 -44.788  1.00  0.00     0.044 A 
HETATM   11 BR   UNL     1      -4.256 -16.323 -46.447  1.00  0.00    -0.048 Br
HETATM   12  C   UNL     1      -2.542 -17.511 -44.510  1.00  0.00     0.022 A 
HETATM   13  C   UNL     1      -1.871 -17.584 -43.287  1.00  0.00     0.002 A 
HETATM   14  C   UNL     1      -2.005 -16.559 -42.346  1.00  0.00     0.012 A 
BRANCH   9  15
HETATM   15  O   UNL     1      -4.306 -14.310 -44.072  1.00  0.00    -0.359 OA
HETATM   16  H   UNL     1      -5.042 -14.377 -43.422  1.00  0.00     0.218 HD
ENDBRANCH   9  15
ENDBRANCH   7   8
ENDBRANCH   3   7
BRANCH   1  17
HETATM   17  C   UNL     1      -3.252 -12.201 -38.338  1.00  0.00     0.127 C 
BRANCH  17  18
HETATM   18  N   UNL     1      -4.617 -12.338 -37.840  1.00  0.00    -0.376 N 
HETATM   19  H   UNL     1      -4.707 -13.071 -37.130  1.00  0.00     0.161 HD
BRANCH  18  20
HETATM   20  C   UNL     1      -5.778 -12.313 -38.609  1.00  0.00     0.100 A 
HETATM   21  C   UNL     1      -5.655 -12.222 -40.006  1.00  0.00     0.048 A 
HETATM   22  C   UNL     1      -6.786 -12.235 -40.820  1.00  0.00     0.005 A 
HETATM   23  C   UNL     1      -8.038 -12.355 -40.240  1.00  0.00     0.017 A 
HETATM   24  C   UNL     1      -8.127 -12.470 -38.862  1.00  0.00     0.089 A 
HETATM   25  N   UNL     1      -7.015 -12.457 -38.105  1.00  0.00    -0.353 N 
HETATM   26  H   UNL     1      -7.136 -12.563 -37.105  1.00  0.00     0.166 HD
ENDBRANCH  18  20
ENDBRANCH  17  18
ENDBRANCH   1  17
TORSDOF 6
ENDMDL
