MODEL 1
REMARK VINA RESULT:      -8.9      0.000      0.000
REMARK  6 active torsions:
REMARK  status: ('A' for Active; 'I' for Inactive)
REMARK    1  A    between atoms: C_2  and  C_3 
REMARK    2  A    between atoms: C_4  and  O_5 
REMARK    3  A    between atoms: O_5  and  C_6 
REMARK    4  A    between atoms: C_6  and  C_7 
REMARK       I    between atoms: C_7  and  N_8 
REMARK    5  A    between atoms: N_8  and  C_9 
REMARK    6  A    between atoms: C_16  and  C_17 
REMARK       I    between atoms: C_17  and  N_18 
ROOT
HETATM    1  C   UNL     1      -3.178   0.354 -31.881  1.00  0.00     0.246 C 
HETATM    2  N   UNL     1      -3.887   1.395 -32.465  1.00  0.00    -0.325 N 
HETATM    3  O   UNL     1      -2.497   0.411 -30.862  1.00  0.00    -0.271 OA
HETATM    4  H   UNL     1      -4.462   1.148 -33.261  1.00  0.00     0.169 HD
ENDROOT
BRANCH   2   5
HETATM    5  C   UNL     1      -3.938   2.742 -32.053  1.00  0.00     0.035 A 
HETATM    6  C   UNL     1      -3.317   3.791 -32.743  1.00  0.00     0.046 A 
HETATM    7  C   UNL     1      -3.450   5.114 -32.261  1.00  0.00     0.030 A 
HETATM    8  C   UNL     1      -4.173   5.334 -31.095  1.00  0.00     0.063 A 
HETATM    9  C   UNL     1      -3.029   6.414 -32.682  1.00  0.00     0.156 A 
HETATM   10  N   UNL     1      -4.112   6.681 -30.877  1.00  0.00    -0.277 N 
HETATM   11  C   UNL     1      -4.797   4.310 -30.380  1.00  0.00     0.034 A 
HETATM   12  H   UNL     1      -4.522   7.198 -30.106  1.00  0.00     0.189 HD
HETATM   13  N   UNL     1      -3.442   7.367 -31.816  1.00  0.00    -0.168 NA
HETATM   14  C   UNL     1      -4.676   3.014 -30.892  1.00  0.00     0.032 A 
BRANCH   9  15
HETATM   15  C   UNL     1      -2.267   6.765 -33.888  1.00  0.00     0.270 C 
HETATM   16  N   UNL     1      -2.599   6.026 -34.991  1.00  0.00    -0.365 N 
HETATM   17  H   UNL     1      -3.301   5.303 -34.895  1.00  0.00     0.159 HD
HETATM   18  H   UNL     1      -2.098   6.167 -35.854  1.00  0.00     0.159 HD
HETATM   19  O   UNL     1      -1.394   7.624 -33.940  1.00  0.00    -0.266 OA
ENDBRANCH   9  15
ENDBRANCH   2   5
BRANCH   1  20
HETATM   20  C   UNL     1      -3.381  -0.969 -32.628  1.00  0.00     0.278 C 
BRANCH  20  21
HETATM   21  O   UNL     1      -4.244  -0.833 -33.745  1.00  0.00    -0.342 OA
BRANCH  21  22
HETATM   22  C   UNL     1      -5.022  -1.894 -34.133  1.00  0.00     0.076 A 
HETATM   23  C   UNL     1      -6.429  -1.720 -34.048  1.00  0.00    -0.017 A 
HETATM   24  C   UNL     1      -7.237  -2.846 -34.330  1.00  0.00     0.011 A 
HETATM   25  C   UNL     1      -6.692  -4.070 -34.721  1.00  0.00     0.001 A 
HETATM   26  C   UNL     1      -5.320  -4.201 -34.855  1.00  0.00     0.003 A 
HETATM   27  C   UNL     1      -4.491  -3.119 -34.566  1.00  0.00     0.037 A 
BRANCH  23  28
HETATM   28  C   UNL     1      -7.087  -0.372 -33.655  1.00  0.00    -0.021 C 
HETATM   29  C   UNL     1      -6.539   0.807 -34.495  1.00  0.00     0.019 C 
HETATM   30  C   UNL     1      -6.841  -0.104 -32.157  1.00  0.00     0.019 C 
HETATM   31  C   UNL     1      -8.624  -0.352 -33.875  1.00  0.00     0.019 C 
ENDBRANCH  23  28
ENDBRANCH  21  22
ENDBRANCH  20  21
ENDBRANCH   1  20
TORSDOF 6
ENDMDL
MODEL 2
REMARK VINA RESULT:      -8.8      5.051      7.675
REMARK  6 active torsions:
REMARK  status: ('A' for Active; 'I' for Inactive)
REMARK    1  A    between atoms: C_2  and  C_3 
REMARK    2  A    between atoms: C_4  and  O_5 
REMARK    3  A    between atoms: O_5  and  C_6 
REMARK    4  A    between atoms: C_6  and  C_7 
REMARK       I    between atoms: C_7  and  N_8 
REMARK    5  A    between atoms: N_8  and  C_9 
REMARK    6  A    between atoms: C_16  and  C_17 
REMARK       I    between atoms: C_17  and  N_18 
ROOT
HETATM    1  C   UNL     1      -8.140   0.306 -34.200  1.00  0.00     0.246 C 
HETATM    2  N   UNL     1      -8.952   1.291 -34.746  1.00  0.00    -0.325 N 
HETATM    3  O   UNL     1      -8.312  -0.279 -33.136  1.00  0.00    -0.271 OA
HETATM    4  H   UNL     1      -8.702   1.608 -35.675  1.00  0.00     0.169 HD
ENDROOT
BRANCH   2   5
HETATM    5  C   UNL     1     -10.108   1.868 -34.182  1.00  0.00     0.035 A 
HETATM    6  C   UNL     1     -11.386   1.301 -34.276  1.00  0.00     0.046 A 
HETATM    7  C   UNL     1     -12.480   1.946 -33.653  1.00  0.00     0.030 A 
HETATM    8  C   UNL     1     -12.259   3.144 -32.984  1.00  0.00     0.063 A 
HETATM    9  C   UNL     1     -13.873   1.682 -33.481  1.00  0.00     0.156 A 
HETATM   10  N   UNL     1     -13.481   3.526 -32.509  1.00  0.00    -0.277 N 
HETATM   11  C   UNL     1     -11.000   3.739 -32.878  1.00  0.00     0.034 A 
HETATM   12  H   UNL     1     -13.700   4.364 -31.979  1.00  0.00     0.189 HD
HETATM   13  N   UNL     1     -14.477   2.668 -32.779  1.00  0.00    -0.168 NA
HETATM   14  C   UNL     1      -9.930   3.067 -33.478  1.00  0.00     0.032 A 
BRANCH   9  15
HETATM   15  C   UNL     1     -14.632   0.514 -33.952  1.00  0.00     0.270 C 
HETATM   16  N   UNL     1     -14.216  -0.673 -33.412  1.00  0.00    -0.365 N 
HETATM   17  H   UNL     1     -13.432  -0.665 -32.771  1.00  0.00     0.159 HD
HETATM   18  H   UNL     1     -14.649  -1.533 -33.708  1.00  0.00     0.159 HD
HETATM   19  O   UNL     1     -15.549   0.555 -34.764  1.00  0.00    -0.266 OA
ENDBRANCH   9  15
ENDBRANCH   2   5
BRANCH   1  20
HETATM   20  C   UNL     1      -6.974  -0.054 -35.127  1.00  0.00     0.278 C 
BRANCH  20  21
HETATM   21  O   UNL     1      -5.863  -0.580 -34.421  1.00  0.00    -0.342 OA
BRANCH  21  22
HETATM   22  C   UNL     1      -5.638  -1.933 -34.420  1.00  0.00     0.076 A 
HETATM   23  C   UNL     1      -4.595  -2.407 -33.581  1.00  0.00    -0.017 A 
HETATM   24  C   UNL     1      -4.275  -3.782 -33.664  1.00  0.00     0.011 A 
HETATM   25  C   UNL     1      -4.976  -4.657 -34.495  1.00  0.00     0.001 A 
HETATM   26  C   UNL     1      -6.028  -4.186 -35.260  1.00  0.00     0.003 A 
HETATM   27  C   UNL     1      -6.359  -2.832 -35.221  1.00  0.00     0.037 A 
BRANCH  23  28
HETATM   28  C   UNL     1      -3.810  -1.485 -32.613  1.00  0.00    -0.021 C 
HETATM   29  C   UNL     1      -3.008  -0.399 -33.370  1.00  0.00     0.019 C 
HETATM   30  C   UNL     1      -2.853  -2.340 -31.760  1.00  0.00     0.019 C 
HETATM   31  C   UNL     1      -4.725  -0.707 -31.629  1.00  0.00     0.019 C 
ENDBRANCH  23  28
ENDBRANCH  21  22
ENDBRANCH  20  21
ENDBRANCH   1  20
TORSDOF 6
ENDMDL
MODEL 3
REMARK VINA RESULT:      -8.7      2.848      8.506
REMARK  6 active torsions:
REMARK  status: ('A' for Active; 'I' for Inactive)
REMARK    1  A    between atoms: C_2  and  C_3 
REMARK    2  A    between atoms: C_4  and  O_5 
REMARK    3  A    between atoms: O_5  and  C_6 
REMARK    4  A    between atoms: C_6  and  C_7 
REMARK       I    between atoms: C_7  and  N_8 
REMARK    5  A    between atoms: N_8  and  C_9 
REMARK    6  A    between atoms: C_16  and  C_17 
REMARK       I    between atoms: C_17  and  N_18 
ROOT
HETATM    1  C   UNL     1      -3.746   1.823 -31.638  1.00  0.00     0.246 C 
HETATM    2  N   UNL     1      -4.671   1.703 -32.666  1.00  0.00    -0.325 N 
HETATM    3  O   UNL     1      -3.111   0.915 -31.113  1.00  0.00    -0.271 OA
HETATM    4  H   UNL     1      -5.042   2.571 -33.034  1.00  0.00     0.169 HD
ENDROOT
BRANCH   2   5
HETATM    5  C   UNL     1      -5.120   0.521 -33.290  1.00  0.00     0.035 A 
HETATM    6  C   UNL     1      -4.462  -0.712 -33.187  1.00  0.00     0.046 A 
HETATM    7  C   UNL     1      -5.008  -1.846 -33.831  1.00  0.00     0.030 A 
HETATM    8  C   UNL     1      -6.172  -1.700 -34.576  1.00  0.00     0.063 A 
HETATM    9  C   UNL     1      -4.685  -3.235 -33.928  1.00  0.00     0.156 A 
HETATM   10  N   UNL     1      -6.441  -2.939 -35.081  1.00  0.00    -0.277 N 
HETATM   11  C   UNL     1      -6.847  -0.484 -34.705  1.00  0.00     0.034 A 
HETATM   12  H   UNL     1      -7.214  -3.204 -35.682  1.00  0.00     0.189 HD
HETATM   13  N   UNL     1      -5.575  -3.893 -34.705  1.00  0.00    -0.168 NA
HETATM   14  C   UNL     1      -6.304   0.617 -34.035  1.00  0.00     0.032 A 
BRANCH   9  15
HETATM   15  C   UNL     1      -3.568  -3.945 -33.288  1.00  0.00     0.270 C 
HETATM   16  N   UNL     1      -3.135  -5.042 -33.984  1.00  0.00    -0.365 N 
HETATM   17  H   UNL     1      -3.612  -5.289 -34.842  1.00  0.00     0.159 HD
HETATM   18  H   UNL     1      -2.402  -5.617 -33.601  1.00  0.00     0.159 HD
HETATM   19  O   UNL     1      -3.054  -3.626 -32.222  1.00  0.00    -0.266 OA
ENDBRANCH   9  15
ENDBRANCH   2   5
BRANCH   1  20
HETATM   20  C   UNL     1      -3.526   3.284 -31.233  1.00  0.00     0.278 C 
BRANCH  20  21
HETATM   21  O   UNL     1      -2.185   3.704 -31.424  1.00  0.00    -0.342 OA
BRANCH  21  22
HETATM   22  C   UNL     1      -1.875   4.522 -32.480  1.00  0.00     0.076 A 
HETATM   23  C   UNL     1      -1.120   5.688 -32.184  1.00  0.00    -0.017 A 
HETATM   24  C   UNL     1      -0.899   6.599 -33.243  1.00  0.00     0.011 A 
HETATM   25  C   UNL     1      -1.356   6.355 -34.539  1.00  0.00     0.001 A 
HETATM   26  C   UNL     1      -2.039   5.185 -34.818  1.00  0.00     0.003 A 
HETATM   27  C   UNL     1      -2.294   4.272 -33.796  1.00  0.00     0.037 A 
BRANCH  23  28
HETATM   28  C   UNL     1      -0.556   5.989 -30.771  1.00  0.00    -0.021 C 
HETATM   29  C   UNL     1       0.192   4.772 -30.175  1.00  0.00     0.019 C 
HETATM   30  C   UNL     1      -1.713   6.398 -29.839  1.00  0.00     0.019 C 
HETATM   31  C   UNL     1       0.474   7.151 -30.756  1.00  0.00     0.019 C 
ENDBRANCH  23  28
ENDBRANCH  21  22
ENDBRANCH  20  21
ENDBRANCH   1  20
TORSDOF 6
ENDMDL
MODEL 4
REMARK VINA RESULT:      -8.6      5.574      7.884
REMARK  6 active torsions:
REMARK  status: ('A' for Active; 'I' for Inactive)
REMARK    1  A    between atoms: C_2  and  C_3 
REMARK    2  A    between atoms: C_4  and  O_5 
REMARK    3  A    between atoms: O_5  and  C_6 
REMARK    4  A    between atoms: C_6  and  C_7 
REMARK       I    between atoms: C_7  and  N_8 
REMARK    5  A    between atoms: N_8  and  C_9 
REMARK    6  A    between atoms: C_16  and  C_17 
REMARK       I    between atoms: C_17  and  N_18 
ROOT
HETATM    1  C   UNL     1      -9.222   0.711 -33.970  1.00  0.00     0.246 C 
HETATM    2  N   UNL     1     -10.189   1.491 -34.589  1.00  0.00    -0.325 N 
HETATM    3  O   UNL     1      -9.362   0.037 -32.955  1.00  0.00    -0.271 OA
HETATM    4  H   UNL     1      -9.921   1.917 -35.468  1.00  0.00     0.169 HD
ENDROOT
BRANCH   2   5
HETATM    5  C   UNL     1     -11.514   1.721 -34.165  1.00  0.00     0.035 A 
HETATM    6  C   UNL     1     -11.852   2.533 -33.075  1.00  0.00     0.046 A 
HETATM    7  C   UNL     1     -13.214   2.722 -32.745  1.00  0.00     0.030 A 
HETATM    8  C   UNL     1     -14.183   2.070 -33.499  1.00  0.00     0.063 A 
HETATM    9  C   UNL     1     -13.948   3.478 -31.780  1.00  0.00     0.156 A 
HETATM   10  N   UNL     1     -15.378   2.427 -32.943  1.00  0.00    -0.277 N 
HETATM   11  C   UNL     1     -13.880   1.249 -34.586  1.00  0.00     0.034 A 
HETATM   12  H   UNL     1     -16.304   2.128 -33.232  1.00  0.00     0.189 HD
HETATM   13  N   UNL     1     -15.280   3.281 -31.912  1.00  0.00    -0.168 NA
HETATM   14  C   UNL     1     -12.527   1.101 -34.910  1.00  0.00     0.032 A 
BRANCH   9  15
HETATM   15  C   UNL     1     -13.416   4.388 -30.756  1.00  0.00     0.270 C 
HETATM   16  N   UNL     1     -12.619   3.774 -29.827  1.00  0.00    -0.365 N 
HETATM   17  H   UNL     1     -12.480   2.773 -29.895  1.00  0.00     0.159 HD
HETATM   18  H   UNL     1     -12.244   4.310 -29.061  1.00  0.00     0.159 HD
HETATM   19  O   UNL     1     -13.652   5.589 -30.694  1.00  0.00    -0.266 OA
ENDBRANCH   9  15
ENDBRANCH   2   5
BRANCH   1  20
HETATM   20  C   UNL     1      -7.901   0.713 -34.746  1.00  0.00     0.278 C 
BRANCH  20  21
HETATM   21  O   UNL     1      -6.778   0.504 -33.906  1.00  0.00    -0.342 OA
BRANCH  21  22
HETATM   22  C   UNL     1      -6.089  -0.679 -33.975  1.00  0.00     0.076 A 
HETATM   23  C   UNL     1      -5.026  -0.856 -33.051  1.00  0.00    -0.017 A 
HETATM   24  C   UNL     1      -4.233  -2.018 -33.193  1.00  0.00     0.011 A 
HETATM   25  C   UNL     1      -4.499  -2.982 -34.167  1.00  0.00     0.001 A 
HETATM   26  C   UNL     1      -5.576  -2.819 -35.020  1.00  0.00     0.003 A 
HETATM   27  C   UNL     1      -6.368  -1.676 -34.924  1.00  0.00     0.037 A 
BRANCH  23  28
HETATM   28  C   UNL     1      -4.711   0.165 -31.927  1.00  0.00    -0.021 C 
HETATM   29  C   UNL     1      -3.406  -0.188 -31.173  1.00  0.00     0.019 C 
HETATM   30  C   UNL     1      -5.890   0.211 -30.936  1.00  0.00     0.019 C 
HETATM   31  C   UNL     1      -4.502   1.611 -32.453  1.00  0.00     0.019 C 
ENDBRANCH  23  28
ENDBRANCH  21  22
ENDBRANCH  20  21
ENDBRANCH   1  20
TORSDOF 6
ENDMDL
MODEL 5
REMARK VINA RESULT:      -8.5      2.194      3.069
REMARK  6 active torsions:
REMARK  status: ('A' for Active; 'I' for Inactive)
REMARK    1  A    between atoms: C_2  and  C_3 
REMARK    2  A    between atoms: C_4  and  O_5 
REMARK    3  A    between atoms: O_5  and  C_6 
REMARK    4  A    between atoms: C_6  and  C_7 
REMARK       I    between atoms: C_7  and  N_8 
REMARK    5  A    between atoms: N_8  and  C_9 
REMARK    6  A    between atoms: C_16  and  C_17 
REMARK       I    between atoms: C_17  and  N_18 
ROOT
HETATM    1  C   UNL     1      -5.176   2.360 -30.440  1.00  0.00     0.246 C 
HETATM    2  N   UNL     1      -4.388   2.416 -31.581  1.00  0.00    -0.325 N 
HETATM    3  O   UNL     1      -5.525   3.306 -29.742  1.00  0.00    -0.271 OA
HETATM    4  H   UNL     1      -4.267   1.543 -32.080  1.00  0.00     0.169 HD
ENDROOT
BRANCH   2   5
HETATM    5  C   UNL     1      -3.777   3.550 -32.153  1.00  0.00     0.035 A 
HETATM    6  C   UNL     1      -2.577   4.105 -31.689  1.00  0.00     0.046 A 
HETATM    7  C   UNL     1      -2.031   5.230 -32.349  1.00  0.00     0.030 A 
HETATM    8  C   UNL     1      -2.718   5.773 -33.428  1.00  0.00     0.063 A 
HETATM    9  C   UNL     1      -0.854   6.031 -32.224  1.00  0.00     0.156 A 
HETATM   10  N   UNL     1      -1.968   6.838 -33.839  1.00  0.00    -0.277 N 
HETATM   11  C   UNL     1      -3.918   5.249 -33.911  1.00  0.00     0.034 A 
HETATM   12  H   UNL     1      -2.172   7.476 -34.601  1.00  0.00     0.189 HD
HETATM   13  N   UNL     1      -0.833   7.020 -33.146  1.00  0.00    -0.168 NA
HETATM   14  C   UNL     1      -4.423   4.118 -33.260  1.00  0.00     0.032 A 
BRANCH   9  15
HETATM   15  C   UNL     1       0.248   5.866 -31.266  1.00  0.00     0.270 C 
HETATM   16  N   UNL     1       0.564   7.008 -30.580  1.00  0.00    -0.365 N 
HETATM   17  H   UNL     1       0.053   7.856 -30.791  1.00  0.00     0.159 HD
HETATM   18  H   UNL     1       1.336   7.002 -29.932  1.00  0.00     0.159 HD
HETATM   19  O   UNL     1       0.864   4.823 -31.079  1.00  0.00    -0.266 OA
ENDBRANCH   9  15
ENDBRANCH   2   5
BRANCH   1  20
HETATM   20  C   UNL     1      -5.657   0.935 -30.144  1.00  0.00     0.278 C 
BRANCH  20  21
HETATM   21  O   UNL     1      -6.366   0.365 -31.231  1.00  0.00    -0.342 OA
BRANCH  21  22
HETATM   22  C   UNL     1      -5.706  -0.435 -32.127  1.00  0.00     0.076 A 
HETATM   23  C   UNL     1      -6.281  -0.558 -33.420  1.00  0.00    -0.017 A 
HETATM   24  C   UNL     1      -5.676  -1.475 -34.311  1.00  0.00     0.011 A 
HETATM   25  C   UNL     1      -4.535  -2.201 -33.966  1.00  0.00     0.001 A 
HETATM   26  C   UNL     1      -3.956  -2.023 -32.721  1.00  0.00     0.003 A 
HETATM   27  C   UNL     1      -4.536  -1.143 -31.809  1.00  0.00     0.037 A 
BRANCH  23  28
HETATM   28  C   UNL     1      -7.525   0.253 -33.867  1.00  0.00    -0.021 C 
HETATM   29  C   UNL     1      -8.790  -0.139 -33.066  1.00  0.00     0.019 C 
HETATM   30  C   UNL     1      -7.768   0.022 -35.372  1.00  0.00     0.019 C 
HETATM   31  C   UNL     1      -7.366   1.784 -33.660  1.00  0.00     0.019 C 
ENDBRANCH  23  28
ENDBRANCH  21  22
ENDBRANCH  20  21
ENDBRANCH   1  20
TORSDOF 6
ENDMDL
MODEL 6
REMARK VINA RESULT:      -8.2      2.855      4.348
REMARK  6 active torsions:
REMARK  status: ('A' for Active; 'I' for Inactive)
REMARK    1  A    between atoms: C_2  and  C_3 
REMARK    2  A    between atoms: C_4  and  O_5 
REMARK    3  A    between atoms: O_5  and  C_6 
REMARK    4  A    between atoms: C_6  and  C_7 
REMARK       I    between atoms: C_7  and  N_8 
REMARK    5  A    between atoms: N_8  and  C_9 
REMARK    6  A    between atoms: C_16  and  C_17 
REMARK       I    between atoms: C_17  and  N_18 
ROOT
HETATM    1  C   UNL     1      -4.748   4.970 -33.818  1.00  0.00     0.246 C 
HETATM    2  N   UNL     1      -4.564   4.990 -32.442  1.00  0.00    -0.325 N 
HETATM    3  O   UNL     1      -4.094   5.586 -34.654  1.00  0.00    -0.271 OA
HETATM    4  H   UNL     1      -5.145   4.355 -31.907  1.00  0.00     0.169 HD
ENDROOT
BRANCH   2   5
HETATM    5  C   UNL     1      -3.636   5.754 -31.705  1.00  0.00     0.035 A 
HETATM    6  C   UNL     1      -2.377   5.282 -31.314  1.00  0.00     0.046 A 
HETATM    7  C   UNL     1      -1.507   6.137 -30.597  1.00  0.00     0.030 A 
HETATM    8  C   UNL     1      -1.939   7.418 -30.276  1.00  0.00     0.063 A 
HETATM    9  C   UNL     1      -0.178   6.059 -30.079  1.00  0.00     0.156 A 
HETATM   10  N   UNL     1      -0.909   7.988 -29.585  1.00  0.00    -0.277 N 
HETATM   11  C   UNL     1      -3.191   7.916 -30.645  1.00  0.00     0.034 A 
HETATM   12  H   UNL     1      -0.879   8.920 -29.184  1.00  0.00     0.189 HD
HETATM   13  N   UNL     1       0.174   7.205 -29.453  1.00  0.00    -0.168 NA
HETATM   14  C   UNL     1      -4.022   7.061 -31.377  1.00  0.00     0.032 A 
BRANCH   9  15
HETATM   15  C   UNL     1       0.762   4.933 -30.179  1.00  0.00     0.270 C 
HETATM   16  N   UNL     1       1.075   4.360 -28.976  1.00  0.00    -0.365 N 
HETATM   17  H   UNL     1       0.671   4.753 -28.134  1.00  0.00     0.159 HD
HETATM   18  H   UNL     1       1.745   3.610 -28.941  1.00  0.00     0.159 HD
HETATM   19  O   UNL     1       1.257   4.524 -31.224  1.00  0.00    -0.266 OA
ENDBRANCH   9  15
ENDBRANCH   2   5
BRANCH   1  20
HETATM   20  C   UNL     1      -5.862   4.004 -34.234  1.00  0.00     0.278 C 
BRANCH  20  21
HETATM   21  O   UNL     1      -6.054   2.961 -33.293  1.00  0.00    -0.342 OA
BRANCH  21  22
HETATM   22  C   UNL     1      -6.282   1.683 -33.735  1.00  0.00     0.076 A 
HETATM   23  C   UNL     1      -5.539   0.648 -33.107  1.00  0.00    -0.017 A 
HETATM   24  C   UNL     1      -5.675  -0.656 -33.636  1.00  0.00     0.011 A 
HETATM   25  C   UNL     1      -6.534  -0.939 -34.700  1.00  0.00     0.001 A 
HETATM   26  C   UNL     1      -7.293   0.074 -35.259  1.00  0.00     0.003 A 
HETATM   27  C   UNL     1      -7.170   1.376 -34.778  1.00  0.00     0.037 A 
BRANCH  23  28
HETATM   28  C   UNL     1      -4.601   0.901 -31.899  1.00  0.00    -0.021 C 
HETATM   29  C   UNL     1      -3.994  -0.414 -31.352  1.00  0.00     0.019 C 
HETATM   30  C   UNL     1      -5.388   1.616 -30.784  1.00  0.00     0.019 C 
HETATM   31  C   UNL     1      -3.383   1.800 -32.246  1.00  0.00     0.019 C 
ENDBRANCH  23  28
ENDBRANCH  21  22
ENDBRANCH  20  21
ENDBRANCH   1  20
TORSDOF 6
ENDMDL
MODEL 7
REMARK VINA RESULT:      -8.2      2.406      3.771
REMARK  6 active torsions:
REMARK  status: ('A' for Active; 'I' for Inactive)
REMARK    1  A    between atoms: C_2  and  C_3 
REMARK    2  A    between atoms: C_4  and  O_5 
REMARK    3  A    between atoms: O_5  and  C_6 
REMARK    4  A    between atoms: C_6  and  C_7 
REMARK       I    between atoms: C_7  and  N_8 
REMARK    5  A    between atoms: N_8  and  C_9 
REMARK    6  A    between atoms: C_16  and  C_17 
REMARK       I    between atoms: C_17  and  N_18 
ROOT
HETATM    1  C   UNL     1      -6.295   3.258 -32.501  1.00  0.00     0.246 C 
HETATM    2  N   UNL     1      -4.995   3.105 -32.961  1.00  0.00    -0.325 N 
HETATM    3  O   UNL     1      -6.824   4.300 -32.129  1.00  0.00    -0.271 OA
HETATM    4  H   UNL     1      -4.751   2.184 -33.305  1.00  0.00     0.169 HD
ENDROOT
BRANCH   2   5
HETATM    5  C   UNL     1      -3.990   4.089 -33.053  1.00  0.00     0.035 A 
HETATM    6  C   UNL     1      -2.998   4.281 -32.082  1.00  0.00     0.046 A 
HETATM    7  C   UNL     1      -2.017   5.281 -32.280  1.00  0.00     0.030 A 
HETATM    8  C   UNL     1      -2.082   6.068 -33.423  1.00  0.00     0.063 A 
HETATM    9  C   UNL     1      -0.859   5.744 -31.583  1.00  0.00     0.156 A 
HETATM   10  N   UNL     1      -1.033   6.937 -33.328  1.00  0.00    -0.277 N 
HETATM   11  C   UNL     1      -3.062   5.907 -34.406  1.00  0.00     0.034 A 
HETATM   12  H   UNL     1      -0.778   7.667 -33.985  1.00  0.00     0.189 HD
HETATM   13  N   UNL     1      -0.267   6.767 -32.239  1.00  0.00    -0.168 NA
HETATM   14  C   UNL     1      -4.003   4.893 -34.202  1.00  0.00     0.032 A 
BRANCH   9  15
HETATM   15  C   UNL     1      -0.299   5.226 -30.326  1.00  0.00     0.270 C 
HETATM   16  N   UNL     1      -0.764   5.862 -29.207  1.00  0.00    -0.365 N 
HETATM   17  H   UNL     1      -1.416   6.628 -29.321  1.00  0.00     0.159 HD
HETATM   18  H   UNL     1      -0.404   5.604 -28.302  1.00  0.00     0.159 HD
HETATM   19  O   UNL     1       0.524   4.321 -30.246  1.00  0.00    -0.266 OA
ENDBRANCH   9  15
ENDBRANCH   2   5
BRANCH   1  20
HETATM   20  C   UNL     1      -7.083   1.944 -32.559  1.00  0.00     0.278 C 
BRANCH  20  21
HETATM   21  O   UNL     1      -6.300   0.825 -32.178  1.00  0.00    -0.342 OA
BRANCH  21  22
HETATM   22  C   UNL     1      -6.285  -0.294 -32.969  1.00  0.00     0.076 A 
HETATM   23  C   UNL     1      -5.078  -1.042 -32.997  1.00  0.00    -0.017 A 
HETATM   24  C   UNL     1      -5.012  -2.126 -33.902  1.00  0.00     0.011 A 
HETATM   25  C   UNL     1      -6.094  -2.488 -34.706  1.00  0.00     0.001 A 
HETATM   26  C   UNL     1      -7.281  -1.782 -34.621  1.00  0.00     0.003 A 
HETATM   27  C   UNL     1      -7.377  -0.693 -33.756  1.00  0.00     0.037 A 
BRANCH  23  28
HETATM   28  C   UNL     1      -3.861  -0.706 -32.097  1.00  0.00    -0.021 C 
HETATM   29  C   UNL     1      -2.942  -1.934 -31.885  1.00  0.00     0.019 C 
HETATM   30  C   UNL     1      -4.362  -0.188 -30.735  1.00  0.00     0.019 C 
HETATM   31  C   UNL     1      -2.942   0.395 -32.693  1.00  0.00     0.019 C 
ENDBRANCH  23  28
ENDBRANCH  21  22
ENDBRANCH  20  21
ENDBRANCH   1  20
TORSDOF 6
ENDMDL
MODEL 8
REMARK VINA RESULT:      -8.1      3.266      3.942
REMARK  6 active torsions:
REMARK  status: ('A' for Active; 'I' for Inactive)
REMARK    1  A    between atoms: C_2  and  C_3 
REMARK    2  A    between atoms: C_4  and  O_5 
REMARK    3  A    between atoms: O_5  and  C_6 
REMARK    4  A    between atoms: C_6  and  C_7 
REMARK       I    between atoms: C_7  and  N_8 
REMARK    5  A    between atoms: N_8  and  C_9 
REMARK    6  A    between atoms: C_16  and  C_17 
REMARK       I    between atoms: C_17  and  N_18 
ROOT
HETATM    1  C   UNL     1      -5.271   0.838 -30.316  1.00  0.00     0.246 C 
HETATM    2  N   UNL     1      -5.430   2.129 -30.800  1.00  0.00    -0.325 N 
HETATM    3  O   UNL     1      -5.795   0.360 -29.316  1.00  0.00    -0.271 OA
HETATM    4  H   UNL     1      -4.984   2.329 -31.687  1.00  0.00     0.169 HD
ENDROOT
BRANCH   2   5
HETATM    5  C   UNL     1      -6.175   3.180 -30.228  1.00  0.00     0.035 A 
HETATM    6  C   UNL     1      -5.640   4.118 -29.335  1.00  0.00     0.046 A 
HETATM    7  C   UNL     1      -6.467   5.152 -28.836  1.00  0.00     0.030 A 
HETATM    8  C   UNL     1      -7.800   5.191 -29.225  1.00  0.00     0.063 A 
HETATM    9  C   UNL     1      -6.301   6.285 -27.981  1.00  0.00     0.156 A 
HETATM   10  N   UNL     1      -8.336   6.269 -28.580  1.00  0.00    -0.277 N 
HETATM   11  C   UNL     1      -8.366   4.267 -30.106  1.00  0.00     0.034 A 
HETATM   12  H   UNL     1      -9.296   6.596 -28.622  1.00  0.00     0.189 HD
HETATM   13  N   UNL     1      -7.464   6.960 -27.830  1.00  0.00    -0.168 NA
HETATM   14  C   UNL     1      -7.522   3.272 -30.609  1.00  0.00     0.032 A 
BRANCH   9  15
HETATM   15  C   UNL     1      -5.069   6.744 -27.325  1.00  0.00     0.270 C 
HETATM   16  N   UNL     1      -4.500   5.814 -26.497  1.00  0.00    -0.365 N 
HETATM   17  H   UNL     1      -4.964   4.921 -26.382  1.00  0.00     0.159 HD
HETATM   18  H   UNL     1      -3.676   6.054 -25.970  1.00  0.00     0.159 HD
HETATM   19  O   UNL     1      -4.571   7.855 -27.467  1.00  0.00    -0.266 OA
ENDBRANCH   9  15
ENDBRANCH   2   5
BRANCH   1  20
HETATM   20  C   UNL     1      -4.380  -0.011 -31.230  1.00  0.00     0.278 C 
BRANCH  20  21
HETATM   21  O   UNL     1      -4.688   0.165 -32.603  1.00  0.00    -0.342 OA
BRANCH  21  22
HETATM   22  C   UNL     1      -4.952  -0.931 -33.384  1.00  0.00     0.076 A 
HETATM   23  C   UNL     1      -6.202  -0.950 -34.056  1.00  0.00    -0.017 A 
HETATM   24  C   UNL     1      -6.536  -2.127 -34.766  1.00  0.00     0.011 A 
HETATM   25  C   UNL     1      -5.664  -3.213 -34.850  1.00  0.00     0.001 A 
HETATM   26  C   UNL     1      -4.425  -3.151 -34.236  1.00  0.00     0.003 A 
HETATM   27  C   UNL     1      -4.070  -2.015 -33.510  1.00  0.00     0.037 A 
BRANCH  23  28
HETATM   28  C   UNL     1      -7.191   0.244 -34.027  1.00  0.00    -0.021 C 
HETATM   29  C   UNL     1      -8.023   0.274 -32.722  1.00  0.00     0.019 C 
HETATM   30  C   UNL     1      -8.132   0.155 -35.244  1.00  0.00     0.019 C 
HETATM   31  C   UNL     1      -6.487   1.626 -34.096  1.00  0.00     0.019 C 
ENDBRANCH  23  28
ENDBRANCH  21  22
ENDBRANCH  20  21
ENDBRANCH   1  20
TORSDOF 6
ENDMDL
MODEL 9
REMARK VINA RESULT:      -8.1      2.861      3.931
REMARK  6 active torsions:
REMARK  status: ('A' for Active; 'I' for Inactive)
REMARK    1  A    between atoms: C_2  and  C_3 
REMARK    2  A    between atoms: C_4  and  O_5 
REMARK    3  A    between atoms: O_5  and  C_6 
REMARK    4  A    between atoms: C_6  and  C_7 
REMARK       I    between atoms: C_7  and  N_8 
REMARK    5  A    between atoms: N_8  and  C_9 
REMARK    6  A    between atoms: C_16  and  C_17 
REMARK       I    between atoms: C_17  and  N_18 
ROOT
HETATM    1  C   UNL     1      -5.354   3.870 -32.365  1.00  0.00     0.246 C 
HETATM    2  N   UNL     1      -4.130   4.372 -32.784  1.00  0.00    -0.325 N 
HETATM    3  O   UNL     1      -5.941   4.143 -31.323  1.00  0.00    -0.271 OA
HETATM    4  H   UNL     1      -3.831   4.098 -33.713  1.00  0.00     0.169 HD
ENDROOT
BRANCH   2   5
HETATM    5  C   UNL     1      -3.276   5.255 -32.091  1.00  0.00     0.035 A 
HETATM    6  C   UNL     1      -2.035   4.880 -31.560  1.00  0.00     0.046 A 
HETATM    7  C   UNL     1      -1.240   5.849 -30.903  1.00  0.00     0.030 A 
HETATM    8  C   UNL     1      -1.727   7.144 -30.779  1.00  0.00     0.063 A 
HETATM    9  C   UNL     1       0.051   5.883 -30.291  1.00  0.00     0.156 A 
HETATM   10  N   UNL     1      -0.763   7.833 -30.099  1.00  0.00    -0.277 N 
HETATM   11  C   UNL     1      -2.962   7.548 -31.291  1.00  0.00     0.034 A 
HETATM   12  H   UNL     1      -0.786   8.808 -29.821  1.00  0.00     0.189 HD
HETATM   13  N   UNL     1       0.327   7.111 -29.796  1.00  0.00    -0.168 NA
HETATM   14  C   UNL     1      -3.717   6.579 -31.961  1.00  0.00     0.032 A 
BRANCH   9  15
HETATM   15  C   UNL     1       1.024   4.787 -30.183  1.00  0.00     0.270 C 
HETATM   16  N   UNL     1       1.194   4.318 -28.908  1.00  0.00    -0.365 N 
HETATM   17  H   UNL     1       0.676   4.759 -28.158  1.00  0.00     0.159 HD
HETATM   18  H   UNL     1       1.874   3.597 -28.729  1.00  0.00     0.159 HD
HETATM   19  O   UNL     1       1.658   4.318 -31.121  1.00  0.00    -0.266 OA
ENDBRANCH   9  15
ENDBRANCH   2   5
BRANCH   1  20
HETATM   20  C   UNL     1      -5.977   2.935 -33.407  1.00  0.00     0.278 C 
BRANCH  20  21
HETATM   21  O   UNL     1      -6.299   1.663 -32.871  1.00  0.00    -0.342 OA
BRANCH  21  22
HETATM   22  C   UNL     1      -5.331   0.695 -32.793  1.00  0.00     0.076 A 
HETATM   23  C   UNL     1      -5.638  -0.565 -33.372  1.00  0.00    -0.017 A 
HETATM   24  C   UNL     1      -4.698  -1.605 -33.191  1.00  0.00     0.011 A 
HETATM   25  C   UNL     1      -3.494  -1.406 -32.513  1.00  0.00     0.001 A 
HETATM   26  C   UNL     1      -3.188  -0.155 -32.007  1.00  0.00     0.003 A 
HETATM   27  C   UNL     1      -4.100   0.890 -32.148  1.00  0.00     0.037 A 
BRANCH  23  28
HETATM   28  C   UNL     1      -6.943  -0.829 -34.166  1.00  0.00    -0.021 C 
HETATM   29  C   UNL     1      -8.206  -0.523 -33.324  1.00  0.00     0.019 C 
HETATM   30  C   UNL     1      -6.969  -2.299 -34.629  1.00  0.00     0.019 C 
HETATM   31  C   UNL     1      -7.076   0.051 -35.439  1.00  0.00     0.019 C 
ENDBRANCH  23  28
ENDBRANCH  21  22
ENDBRANCH  20  21
ENDBRANCH   1  20
TORSDOF 6
ENDMDL
MODEL 10
REMARK VINA RESULT:      -8.0      5.022      8.678
REMARK  6 active torsions:
REMARK  status: ('A' for Active; 'I' for Inactive)
REMARK    1  A    between atoms: C_2  and  C_3 
REMARK    2  A    between atoms: C_4  and  O_5 
REMARK    3  A    between atoms: O_5  and  C_6 
REMARK    4  A    between atoms: C_6  and  C_7 
REMARK       I    between atoms: C_7  and  N_8 
REMARK    5  A    between atoms: N_8  and  C_9 
REMARK    6  A    between atoms: C_16  and  C_17 
REMARK       I    between atoms: C_17  and  N_18 
ROOT
HETATM    1  C   UNL     1      -9.900   0.792 -33.889  1.00  0.00     0.246 C 
HETATM    2  N   UNL     1      -8.725   0.761 -34.628  1.00  0.00    -0.325 N 
HETATM    3  O   UNL     1     -10.071   0.333 -32.764  1.00  0.00    -0.271 OA
HETATM    4  H   UNL     1      -8.742   1.262 -35.508  1.00  0.00     0.169 HD
ENDROOT
BRANCH   2   5
HETATM    5  C   UNL     1      -7.501   0.157 -34.278  1.00  0.00     0.035 A 
HETATM    6  C   UNL     1      -7.209  -1.196 -34.497  1.00  0.00     0.046 A 
HETATM    7  C   UNL     1      -5.939  -1.701 -34.133  1.00  0.00     0.030 A 
HETATM    8  C   UNL     1      -5.021  -0.843 -33.540  1.00  0.00     0.063 A 
HETATM    9  C   UNL     1      -5.260  -2.954 -34.229  1.00  0.00     0.156 A 
HETATM   10  N   UNL     1      -3.916  -1.605 -33.292  1.00  0.00    -0.277 N 
HETATM   11  C   UNL     1      -5.283   0.508 -33.301  1.00  0.00     0.034 A 
HETATM   12  H   UNL     1      -3.050  -1.309 -32.854  1.00  0.00     0.189 HD
HETATM   13  N   UNL     1      -4.016  -2.880 -33.702  1.00  0.00    -0.168 NA
HETATM   14  C   UNL     1      -6.535   0.990 -33.696  1.00  0.00     0.032 A 
BRANCH   9  15
HETATM   15  C   UNL     1      -5.757  -4.204 -34.821  1.00  0.00     0.270 C 
HETATM   16  N   UNL     1      -4.957  -5.289 -34.582  1.00  0.00    -0.365 N 
HETATM   17  H   UNL     1      -4.102  -5.153 -34.056  1.00  0.00     0.159 HD
HETATM   18  H   UNL     1      -5.195  -6.181 -34.985  1.00  0.00     0.159 HD
HETATM   19  O   UNL     1      -6.781  -4.305 -35.487  1.00  0.00    -0.266 OA
ENDBRANCH   9  15
ENDBRANCH   2   5
BRANCH   1  20
HETATM   20  C   UNL     1     -11.015   1.550 -34.615  1.00  0.00     0.278 C 
BRANCH  20  21
HETATM   21  O   UNL     1     -11.644   2.515 -33.787  1.00  0.00    -0.342 OA
BRANCH  21  22
HETATM   22  C   UNL     1     -12.960   2.355 -33.439  1.00  0.00     0.076 A 
HETATM   23  C   UNL     1     -13.444   3.167 -32.380  1.00  0.00    -0.017 A 
HETATM   24  C   UNL     1     -14.764   2.925 -31.931  1.00  0.00     0.011 A 
HETATM   25  C   UNL     1     -15.584   1.964 -32.525  1.00  0.00     0.001 A 
HETATM   26  C   UNL     1     -15.112   1.224 -33.595  1.00  0.00     0.003 A 
HETATM   27  C   UNL     1     -13.809   1.420 -34.051  1.00  0.00     0.037 A 
BRANCH  23  28
HETATM   28  C   UNL     1     -12.589   4.274 -31.710  1.00  0.00    -0.021 C 
HETATM   29  C   UNL     1     -13.223   4.777 -30.391  1.00  0.00     0.019 C 
HETATM   30  C   UNL     1     -12.422   5.451 -32.692  1.00  0.00     0.019 C 
HETATM   31  C   UNL     1     -11.162   3.797 -31.324  1.00  0.00     0.019 C 
ENDBRANCH  23  28
ENDBRANCH  21  22
ENDBRANCH  20  21
ENDBRANCH   1  20
TORSDOF 6
ENDMDL
