MODEL 1
REMARK VINA RESULT:      -9.7      0.000      0.000
REMARK  6 active torsions:
REMARK  status: ('A' for Active; 'I' for Inactive)
REMARK    1  A    between atoms: C_5  and  N_6 
REMARK    2  A    between atoms: C_8  and  C_9 
REMARK    3  A    between atoms: C_11  and  O_12 
REMARK    4  A    between atoms: C_17  and  C_18 
REMARK       I    between atoms: C_18  and  N_19 
REMARK    5  A    between atoms: N_19  and  N_20 
REMARK       I    between atoms: N_20  and  C_21 
REMARK    6  A    between atoms: C_21  and  C_22 
ROOT
HETATM    1  N   UNL     1      -9.593   1.013 -33.306  1.00  0.00    -0.244 N 
HETATM    2  N   UNL     1      -8.789  -0.043 -33.540  1.00  0.00    -0.166 NA
HETATM    3  C   UNL     1      -7.561   0.321 -33.135  1.00  0.00     0.105 A 
HETATM    4  C   UNL     1      -7.566   1.663 -32.642  1.00  0.00     0.082 A 
HETATM    5  C   UNL     1      -8.887   2.064 -32.777  1.00  0.00     0.138 A 
ENDROOT
BRANCH   4   6
HETATM    6  C   UNL     1      -6.472   2.484 -32.138  1.00  0.00     0.274 C 
HETATM    7  N   UNL     1      -5.542   2.856 -33.093  1.00  0.00    -0.263 N 
HETATM    8  H   UNL     1      -5.704   2.736 -34.090  1.00  0.00     0.190 HD
HETATM    9  O   UNL     1      -6.366   2.845 -30.968  1.00  0.00    -0.266 OA
BRANCH   7  10
HETATM   10  N   UNL     1      -4.558   3.794 -32.751  1.00  0.00    -0.262 N 
HETATM   11  C   UNL     1      -3.300   3.329 -32.426  1.00  0.00     0.286 C 
HETATM   12  O   UNL     1      -3.063   2.121 -32.358  1.00  0.00    -0.264 OA
HETATM   13  H   UNL     1      -4.774   4.774 -32.910  1.00  0.00     0.190 HD
BRANCH  11  14
HETATM   14  C   UNL     1      -2.294   4.337 -32.184  1.00  0.00     0.102 A 
HETATM   15  N   UNL     1      -1.895   4.654 -30.902  1.00  0.00    -0.361 N 
HETATM   16  H   UNL     1      -2.270   4.213 -30.070  1.00  0.00     0.165 HD
HETATM   17  C   UNL     1      -0.939   5.632 -30.930  1.00  0.00     0.088 A 
HETATM   18  C   UNL     1      -0.709   5.958 -32.246  1.00  0.00     0.019 A 
HETATM   19  C   UNL     1      -1.561   5.146 -33.036  1.00  0.00     0.036 A 
ENDBRANCH  11  14
ENDBRANCH   7  10
ENDBRANCH   4   6
BRANCH   3  20
HETATM   20  C   UNL     1      -6.465  -0.653 -33.245  1.00  0.00    -0.002 A 
HETATM   21  C   UNL     1      -6.433  -1.618 -34.262  1.00  0.00     0.050 A 
HETATM   22  C   UNL     1      -5.377  -2.530 -34.345  1.00  0.00     0.069 A 
HETATM   23  C   UNL     1      -4.313  -2.442 -33.447  1.00  0.00     0.037 A 
HETATM   24  C   UNL     1      -4.318  -1.476 -32.444  1.00  0.00     0.004 A 
HETATM   25  C   UNL     1      -5.391  -0.591 -32.341  1.00  0.00     0.014 A 
BRANCH  22  26
HETATM   26  O   UNL     1      -5.266  -3.523 -35.282  1.00  0.00    -0.356 OA
HETATM   27  C   UNL     1      -6.285  -4.517 -35.240  1.00  0.00     0.210 C 
ENDBRANCH  22  26
ENDBRANCH   3  20
BRANCH   1  28
HETATM   28  C   UNL     1     -10.985   0.953 -33.601  1.00  0.00     0.058 A 
HETATM   29  C   UNL     1     -11.704  -0.211 -33.296  1.00  0.00     0.032 A 
HETATM   30  C   UNL     1     -13.074  -0.289 -33.565  1.00  0.00     0.009 A 
HETATM   31  C   UNL     1     -13.744   0.792 -34.150  1.00  0.00    -0.062 A 
HETATM   32  C   UNL     1     -15.220   0.730 -34.408  1.00  0.00     0.048 C 
HETATM   33  C   UNL     1     -13.027   1.956 -34.445  1.00  0.00     0.009 A 
HETATM   34  C   UNL     1     -11.656   2.040 -34.178  1.00  0.00     0.032 A 
ENDBRANCH   1  28
TORSDOF 6
ENDMDL
MODEL 2
REMARK VINA RESULT:      -9.7      1.836      8.213
REMARK  6 active torsions:
REMARK  status: ('A' for Active; 'I' for Inactive)
REMARK    1  A    between atoms: C_5  and  N_6 
REMARK    2  A    between atoms: C_8  and  C_9 
REMARK    3  A    between atoms: C_11  and  O_12 
REMARK    4  A    between atoms: C_17  and  C_18 
REMARK       I    between atoms: C_18  and  N_19 
REMARK    5  A    between atoms: N_19  and  N_20 
REMARK       I    between atoms: N_20  and  C_21 
REMARK    6  A    between atoms: C_21  and  C_22 
ROOT
HETATM    1  N   UNL     1      -4.822   2.863 -32.288  1.00  0.00    -0.244 N 
HETATM    2  N   UNL     1      -4.522   1.685 -32.868  1.00  0.00    -0.166 NA
HETATM    3  C   UNL     1      -5.663   0.977 -32.895  1.00  0.00     0.105 A 
HETATM    4  C   UNL     1      -6.733   1.713 -32.295  1.00  0.00     0.082 A 
HETATM    5  C   UNL     1      -6.143   2.911 -31.917  1.00  0.00     0.138 A 
ENDROOT
BRANCH   4   6
HETATM    6  C   UNL     1      -8.122   1.338 -32.069  1.00  0.00     0.274 C 
HETATM    7  N   UNL     1      -9.050   2.166 -32.677  1.00  0.00    -0.263 N 
HETATM    8  H   UNL     1      -8.791   2.857 -33.376  1.00  0.00     0.190 HD
HETATM    9  O   UNL     1      -8.472   0.360 -31.411  1.00  0.00    -0.266 OA
BRANCH   7  10
HETATM   10  N   UNL     1     -10.400   1.786 -32.676  1.00  0.00    -0.262 N 
HETATM   11  C   UNL     1     -11.215   2.279 -33.673  1.00  0.00     0.286 C 
HETATM   12  O   UNL     1     -10.797   3.095 -34.497  1.00  0.00    -0.264 OA
HETATM   13  H   UNL     1     -10.674   1.045 -32.036  1.00  0.00     0.190 HD
BRANCH  11  14
HETATM   14  C   UNL     1     -12.570   1.777 -33.691  1.00  0.00     0.102 A 
HETATM   15  N   UNL     1     -13.475   2.128 -32.712  1.00  0.00    -0.361 N 
HETATM   16  H   UNL     1     -13.256   2.745 -31.937  1.00  0.00     0.165 HD
HETATM   17  C   UNL     1     -14.683   1.529 -32.943  1.00  0.00     0.088 A 
HETATM   18  C   UNL     1     -14.567   0.777 -34.089  1.00  0.00     0.019 A 
HETATM   19  C   UNL     1     -13.239   0.930 -34.560  1.00  0.00     0.036 A 
ENDBRANCH  11  14
ENDBRANCH   7  10
ENDBRANCH   4   6
BRANCH   3  20
HETATM   20  C   UNL     1      -5.649  -0.361 -33.505  1.00  0.00    -0.002 A 
HETATM   21  C   UNL     1      -4.650  -1.299 -33.204  1.00  0.00     0.050 A 
HETATM   22  C   UNL     1      -4.661  -2.565 -33.796  1.00  0.00     0.069 A 
HETATM   23  C   UNL     1      -5.708  -2.924 -34.645  1.00  0.00     0.037 A 
HETATM   24  C   UNL     1      -6.720  -2.013 -34.937  1.00  0.00     0.004 A 
HETATM   25  C   UNL     1      -6.686  -0.737 -34.374  1.00  0.00     0.014 A 
BRANCH  22  26
HETATM   26  O   UNL     1      -3.721  -3.539 -33.588  1.00  0.00    -0.356 OA
HETATM   27  C   UNL     1      -4.112  -4.855 -33.968  1.00  0.00     0.210 C 
ENDBRANCH  22  26
ENDBRANCH   3  20
BRANCH   1  28
HETATM   28  C   UNL     1      -3.831   3.873 -32.123  1.00  0.00     0.058 A 
HETATM   29  C   UNL     1      -2.696   3.864 -32.948  1.00  0.00     0.032 A 
HETATM   30  C   UNL     1      -1.715   4.851 -32.813  1.00  0.00     0.009 A 
HETATM   31  C   UNL     1      -1.849   5.856 -31.848  1.00  0.00    -0.062 A 
HETATM   32  C   UNL     1      -0.819   6.940 -31.722  1.00  0.00     0.048 C 
HETATM   33  C   UNL     1      -2.985   5.869 -31.034  1.00  0.00     0.009 A 
HETATM   34  C   UNL     1      -3.971   4.884 -31.164  1.00  0.00     0.032 A 
ENDBRANCH   1  28
TORSDOF 6
ENDMDL
MODEL 3
REMARK VINA RESULT:      -9.7      1.399      1.504
REMARK  6 active torsions:
REMARK  status: ('A' for Active; 'I' for Inactive)
REMARK    1  A    between atoms: C_5  and  N_6 
REMARK    2  A    between atoms: C_8  and  C_9 
REMARK    3  A    between atoms: C_11  and  O_12 
REMARK    4  A    between atoms: C_17  and  C_18 
REMARK       I    between atoms: C_18  and  N_19 
REMARK    5  A    between atoms: N_19  and  N_20 
REMARK       I    between atoms: N_20  and  C_21 
REMARK    6  A    between atoms: C_21  and  C_22 
ROOT
HETATM    1  N   UNL     1      -9.629   1.019 -33.462  1.00  0.00    -0.244 N 
HETATM    2  N   UNL     1      -8.824  -0.040 -33.680  1.00  0.00    -0.166 NA
HETATM    3  C   UNL     1      -7.591   0.339 -33.306  1.00  0.00     0.105 A 
HETATM    4  C   UNL     1      -7.594   1.695 -32.850  1.00  0.00     0.082 A 
HETATM    5  C   UNL     1      -8.918   2.087 -32.975  1.00  0.00     0.138 A 
ENDROOT
BRANCH   4   6
HETATM    6  C   UNL     1      -6.495   2.533 -32.388  1.00  0.00     0.274 C 
HETATM    7  N   UNL     1      -5.661   2.996 -33.390  1.00  0.00    -0.263 N 
HETATM    8  H   UNL     1      -5.899   2.924 -34.376  1.00  0.00     0.190 HD
HETATM    9  O   UNL     1      -6.308   2.835 -31.211  1.00  0.00    -0.266 OA
BRANCH   7  10
HETATM   10  N   UNL     1      -4.689   3.956 -33.073  1.00  0.00    -0.262 N 
HETATM   11  C   UNL     1      -4.384   4.911 -34.021  1.00  0.00     0.286 C 
HETATM   12  O   UNL     1      -4.887   4.879 -35.146  1.00  0.00    -0.264 OA
HETATM   13  H   UNL     1      -4.372   3.997 -32.109  1.00  0.00     0.190 HD
BRANCH  11  14
HETATM   14  C   UNL     1      -3.456   5.939 -33.610  1.00  0.00     0.102 A 
HETATM   15  N   UNL     1      -2.404   6.318 -34.419  1.00  0.00    -0.361 N 
HETATM   16  H   UNL     1      -2.220   5.911 -35.329  1.00  0.00     0.165 HD
HETATM   17  C   UNL     1      -1.670   7.300 -33.815  1.00  0.00     0.088 A 
HETATM   18  C   UNL     1      -2.248   7.570 -32.597  1.00  0.00     0.019 A 
HETATM   19  C   UNL     1      -3.371   6.714 -32.465  1.00  0.00     0.036 A 
ENDBRANCH  11  14
ENDBRANCH   7  10
ENDBRANCH   4   6
BRANCH   3  20
HETATM   20  C   UNL     1      -6.493  -0.633 -33.406  1.00  0.00    -0.002 A 
HETATM   21  C   UNL     1      -6.509  -1.671 -34.349  1.00  0.00     0.050 A 
HETATM   22  C   UNL     1      -5.450  -2.580 -34.425  1.00  0.00     0.069 A 
HETATM   23  C   UNL     1      -4.338  -2.419 -33.599  1.00  0.00     0.037 A 
HETATM   24  C   UNL     1      -4.296  -1.382 -32.671  1.00  0.00     0.004 A 
HETATM   25  C   UNL     1      -5.371  -0.498 -32.573  1.00  0.00     0.014 A 
BRANCH  22  26
HETATM   26  O   UNL     1      -5.383  -3.639 -35.291  1.00  0.00    -0.356 OA
HETATM   27  C   UNL     1      -6.538  -4.471 -35.329  1.00  0.00     0.210 C 
ENDBRANCH  22  26
ENDBRANCH   3  20
BRANCH   1  28
HETATM   28  C   UNL     1     -11.025   0.946 -33.732  1.00  0.00     0.058 A 
HETATM   29  C   UNL     1     -11.754  -0.168 -33.290  1.00  0.00     0.032 A 
HETATM   30  C   UNL     1     -13.129  -0.256 -33.533  1.00  0.00     0.009 A 
HETATM   31  C   UNL     1     -13.793   0.762 -34.226  1.00  0.00    -0.062 A 
HETATM   32  C   UNL     1     -15.273   0.692 -34.458  1.00  0.00     0.048 C 
HETATM   33  C   UNL     1     -13.066   1.876 -34.657  1.00  0.00     0.009 A 
HETATM   34  C   UNL     1     -11.690   1.971 -34.418  1.00  0.00     0.032 A 
ENDBRANCH   1  28
TORSDOF 6
ENDMDL
MODEL 4
REMARK VINA RESULT:      -9.3      1.382      2.150
REMARK  6 active torsions:
REMARK  status: ('A' for Active; 'I' for Inactive)
REMARK    1  A    between atoms: C_5  and  N_6 
REMARK    2  A    between atoms: C_8  and  C_9 
REMARK    3  A    between atoms: C_11  and  O_12 
REMARK    4  A    between atoms: C_17  and  C_18 
REMARK       I    between atoms: C_18  and  N_19 
REMARK    5  A    between atoms: N_19  and  N_20 
REMARK       I    between atoms: N_20  and  C_21 
REMARK    6  A    between atoms: C_21  and  C_22 
ROOT
HETATM    1  N   UNL     1      -9.558   1.443 -33.506  1.00  0.00    -0.244 N 
HETATM    2  N   UNL     1      -8.890   0.283 -33.660  1.00  0.00    -0.166 NA
HETATM    3  C   UNL     1      -7.585   0.598 -33.676  1.00  0.00     0.105 A 
HETATM    4  C   UNL     1      -7.403   2.012 -33.547  1.00  0.00     0.082 A 
HETATM    5  C   UNL     1      -8.694   2.507 -33.448  1.00  0.00     0.138 A 
ENDROOT
BRANCH   4   6
HETATM    6  C   UNL     1      -6.181   2.806 -33.551  1.00  0.00     0.274 C 
HETATM    7  N   UNL     1      -5.392   2.657 -32.424  1.00  0.00    -0.263 N 
HETATM    8  H   UNL     1      -5.546   1.918 -31.743  1.00  0.00     0.190 HD
HETATM    9  O   UNL     1      -5.844   3.546 -34.473  1.00  0.00    -0.266 OA
BRANCH   7  10
HETATM   10  N   UNL     1      -4.113   3.232 -32.412  1.00  0.00    -0.262 N 
HETATM   11  C   UNL     1      -3.895   4.317 -31.588  1.00  0.00     0.286 C 
HETATM   12  O   UNL     1      -4.813   4.823 -30.940  1.00  0.00    -0.264 OA
HETATM   13  H   UNL     1      -3.371   2.726 -32.888  1.00  0.00     0.190 HD
BRANCH  11  14
HETATM   14  C   UNL     1      -2.537   4.807 -31.531  1.00  0.00     0.102 A 
HETATM   15  N   UNL     1      -2.019   5.343 -30.370  1.00  0.00    -0.361 N 
HETATM   16  H   UNL     1      -2.542   5.425 -29.506  1.00  0.00     0.165 HD
HETATM   17  C   UNL     1      -0.724   5.735 -30.564  1.00  0.00     0.088 A 
HETATM   18  C   UNL     1      -0.389   5.452 -31.868  1.00  0.00     0.019 A 
HETATM   19  C   UNL     1      -1.528   4.869 -32.478  1.00  0.00     0.036 A 
ENDBRANCH  11  14
ENDBRANCH   7  10
ENDBRANCH   4   6
BRANCH   3  20
HETATM   20  C   UNL     1      -6.598  -0.484 -33.806  1.00  0.00    -0.002 A 
HETATM   21  C   UNL     1      -5.523  -0.615 -32.915  1.00  0.00     0.050 A 
HETATM   22  C   UNL     1      -4.601  -1.656 -33.060  1.00  0.00     0.069 A 
HETATM   23  C   UNL     1      -4.785  -2.609 -34.062  1.00  0.00     0.037 A 
HETATM   24  C   UNL     1      -5.859  -2.507 -34.942  1.00  0.00     0.004 A 
HETATM   25  C   UNL     1      -6.757  -1.446 -34.817  1.00  0.00     0.014 A 
BRANCH  22  26
HETATM   26  O   UNL     1      -3.507  -1.855 -32.261  1.00  0.00    -0.356 OA
HETATM   27  C   UNL     1      -2.939  -0.676 -31.699  1.00  0.00     0.210 C 
ENDBRANCH  22  26
ENDBRANCH   3  20
BRANCH   1  28
HETATM   28  C   UNL     1     -10.980   1.464 -33.423  1.00  0.00     0.058 A 
HETATM   29  C   UNL     1     -11.634   2.665 -33.113  1.00  0.00     0.032 A 
HETATM   30  C   UNL     1     -13.029   2.713 -33.038  1.00  0.00     0.009 A 
HETATM   31  C   UNL     1     -13.791   1.562 -33.262  1.00  0.00    -0.062 A 
HETATM   32  C   UNL     1     -15.290   1.613 -33.218  1.00  0.00     0.048 C 
HETATM   33  C   UNL     1     -13.138   0.366 -33.580  1.00  0.00     0.009 A 
HETATM   34  C   UNL     1     -11.742   0.312 -33.658  1.00  0.00     0.032 A 
ENDBRANCH   1  28
TORSDOF 6
ENDMDL
MODEL 5
REMARK VINA RESULT:      -9.0      2.949      8.615
REMARK  6 active torsions:
REMARK  status: ('A' for Active; 'I' for Inactive)
REMARK    1  A    between atoms: C_5  and  N_6 
REMARK    2  A    between atoms: C_8  and  C_9 
REMARK    3  A    between atoms: C_11  and  O_12 
REMARK    4  A    between atoms: C_17  and  C_18 
REMARK       I    between atoms: C_18  and  N_19 
REMARK    5  A    between atoms: N_19  and  N_20 
REMARK       I    between atoms: N_20  and  C_21 
REMARK    6  A    between atoms: C_21  and  C_22 
ROOT
HETATM    1  N   UNL     1      -6.855  -0.136 -33.946  1.00  0.00    -0.244 N 
HETATM    2  N   UNL     1      -6.144   0.996 -33.781  1.00  0.00    -0.166 NA
HETATM    3  C   UNL     1      -7.039   1.990 -33.664  1.00  0.00     0.105 A 
HETATM    4  C   UNL     1      -8.374   1.488 -33.779  1.00  0.00     0.082 A 
HETATM    5  C   UNL     1      -8.203   0.124 -33.964  1.00  0.00     0.138 A 
ENDROOT
BRANCH   4   6
HETATM    6  C   UNL     1      -9.648   2.193 -33.753  1.00  0.00     0.274 C 
HETATM    7  N   UNL     1     -10.582   1.667 -32.877  1.00  0.00    -0.263 N 
HETATM    8  H   UNL     1     -10.341   0.975 -32.173  1.00  0.00     0.190 HD
HETATM    9  O   UNL     1      -9.898   3.187 -34.432  1.00  0.00    -0.266 OA
BRANCH   7  10
HETATM   10  N   UNL     1     -11.767   2.379 -32.643  1.00  0.00    -0.262 N 
HETATM   11  C   UNL     1     -12.959   1.805 -33.034  1.00  0.00     0.286 C 
HETATM   12  O   UNL     1     -12.983   0.736 -33.646  1.00  0.00    -0.264 OA
HETATM   13  H   UNL     1     -11.704   3.207 -32.057  1.00  0.00     0.190 HD
BRANCH  11  14
HETATM   14  C   UNL     1     -14.158   2.528 -32.677  1.00  0.00     0.102 A 
HETATM   15  N   UNL     1     -14.139   3.894 -32.488  1.00  0.00    -0.361 N 
HETATM   16  H   UNL     1     -13.307   4.465 -32.586  1.00  0.00     0.165 HD
HETATM   17  C   UNL     1     -15.387   4.346 -32.157  1.00  0.00     0.088 A 
HETATM   18  C   UNL     1     -16.233   3.262 -32.129  1.00  0.00     0.019 A 
HETATM   19  C   UNL     1     -15.462   2.117 -32.454  1.00  0.00     0.036 A 
ENDBRANCH  11  14
ENDBRANCH   7  10
ENDBRANCH   4   6
BRANCH   3  20
HETATM   20  C   UNL     1      -6.548   3.359 -33.444  1.00  0.00    -0.002 A 
HETATM   21  C   UNL     1      -5.543   3.921 -34.244  1.00  0.00     0.050 A 
HETATM   22  C   UNL     1      -5.096   5.225 -34.015  1.00  0.00     0.069 A 
HETATM   23  C   UNL     1      -5.699   5.999 -33.022  1.00  0.00     0.037 A 
HETATM   24  C   UNL     1      -6.714   5.464 -32.233  1.00  0.00     0.004 A 
HETATM   25  C   UNL     1      -7.131   4.149 -32.440  1.00  0.00     0.014 A 
BRANCH  22  26
HETATM   26  O   UNL     1      -4.106   5.854 -34.721  1.00  0.00    -0.356 OA
HETATM   27  C   UNL     1      -2.891   5.122 -34.852  1.00  0.00     0.210 C 
ENDBRANCH  22  26
ENDBRANCH   3  20
BRANCH   1  28
HETATM   28  C   UNL     1      -6.206  -1.398 -34.077  1.00  0.00     0.058 A 
HETATM   29  C   UNL     1      -4.897  -1.551 -33.597  1.00  0.00     0.032 A 
HETATM   30  C   UNL     1      -4.244  -2.783 -33.703  1.00  0.00     0.009 A 
HETATM   31  C   UNL     1      -4.885  -3.876 -34.297  1.00  0.00    -0.062 A 
HETATM   32  C   UNL     1      -4.204  -5.210 -34.382  1.00  0.00     0.048 C 
HETATM   33  C   UNL     1      -6.193  -3.724 -34.766  1.00  0.00     0.009 A 
HETATM   34  C   UNL     1      -6.853  -2.494 -34.663  1.00  0.00     0.032 A 
ENDBRANCH   1  28
TORSDOF 6
ENDMDL
MODEL 6
REMARK VINA RESULT:      -8.9      3.409      6.045
REMARK  6 active torsions:
REMARK  status: ('A' for Active; 'I' for Inactive)
REMARK    1  A    between atoms: C_5  and  N_6 
REMARK    2  A    between atoms: C_8  and  C_9 
REMARK    3  A    between atoms: C_11  and  O_12 
REMARK    4  A    between atoms: C_17  and  C_18 
REMARK       I    between atoms: C_18  and  N_19 
REMARK    5  A    between atoms: N_19  and  N_20 
REMARK       I    between atoms: N_20  and  C_21 
REMARK    6  A    between atoms: C_21  and  C_22 
ROOT
HETATM    1  N   UNL     1      -5.952   0.340 -32.973  1.00  0.00    -0.244 N 
HETATM    2  N   UNL     1      -6.959   1.203 -33.211  1.00  0.00    -0.166 NA
HETATM    3  C   UNL     1      -6.672   2.318 -32.519  1.00  0.00     0.105 A 
HETATM    4  C   UNL     1      -5.449   2.164 -31.793  1.00  0.00     0.082 A 
HETATM    5  C   UNL     1      -5.030   0.881 -32.112  1.00  0.00     0.138 A 
ENDROOT
BRANCH   4   6
HETATM    6  C   UNL     1      -4.771   3.083 -30.889  1.00  0.00     0.274 C 
HETATM    7  N   UNL     1      -3.568   3.578 -31.363  1.00  0.00    -0.263 N 
HETATM    8  H   UNL     1      -3.276   3.469 -32.330  1.00  0.00     0.190 HD
HETATM    9  O   UNL     1      -5.213   3.423 -29.793  1.00  0.00    -0.266 OA
BRANCH   7  10
HETATM   10  N   UNL     1      -2.932   4.608 -30.653  1.00  0.00    -0.262 N 
HETATM   11  C   UNL     1      -1.677   5.004 -31.067  1.00  0.00     0.286 C 
HETATM   12  O   UNL     1      -1.091   4.421 -31.981  1.00  0.00    -0.264 OA
HETATM   13  H   UNL     1      -3.489   5.115 -29.971  1.00  0.00     0.190 HD
BRANCH  11  14
HETATM   14  C   UNL     1      -1.109   6.136 -30.372  1.00  0.00     0.102 A 
HETATM   15  N   UNL     1      -1.790   6.762 -29.348  1.00  0.00    -0.361 N 
HETATM   16  H   UNL     1      -2.707   6.476 -29.026  1.00  0.00     0.165 HD
HETATM   17  C   UNL     1      -1.052   7.801 -28.852  1.00  0.00     0.088 A 
HETATM   18  C   UNL     1       0.126   7.856 -29.558  1.00  0.00     0.019 A 
HETATM   19  C   UNL     1       0.093   6.811 -30.516  1.00  0.00     0.036 A 
ENDBRANCH  11  14
ENDBRANCH   7  10
ENDBRANCH   4   6
BRANCH   3  20
HETATM   20  C   UNL     1      -7.593   3.461 -32.608  1.00  0.00    -0.002 A 
HETATM   21  C   UNL     1      -7.928   4.045 -33.838  1.00  0.00     0.050 A 
HETATM   22  C   UNL     1      -8.808   5.129 -33.895  1.00  0.00     0.069 A 
HETATM   23  C   UNL     1      -9.409   5.596 -32.725  1.00  0.00     0.037 A 
HETATM   24  C   UNL     1      -9.104   5.014 -31.498  1.00  0.00     0.004 A 
HETATM   25  C   UNL     1      -8.196   3.956 -31.441  1.00  0.00     0.014 A 
BRANCH  22  26
HETATM   26  O   UNL     1      -9.178   5.784 -35.039  1.00  0.00    -0.356 OA
HETATM   27  C   UNL     1     -10.509   6.289 -35.051  1.00  0.00     0.210 C 
ENDBRANCH  22  26
ENDBRANCH   3  20
BRANCH   1  28
HETATM   28  C   UNL     1      -5.930  -0.946 -33.583  1.00  0.00     0.058 A 
HETATM   29  C   UNL     1      -4.708  -1.617 -33.731  1.00  0.00     0.032 A 
HETATM   30  C   UNL     1      -4.663  -2.887 -34.317  1.00  0.00     0.009 A 
HETATM   31  C   UNL     1      -5.836  -3.501 -34.769  1.00  0.00    -0.062 A 
HETATM   32  C   UNL     1      -5.801  -4.877 -35.364  1.00  0.00     0.048 C 
HETATM   33  C   UNL     1      -7.056  -2.834 -34.611  1.00  0.00     0.009 A 
HETATM   34  C   UNL     1      -7.107  -1.564 -34.026  1.00  0.00     0.032 A 
ENDBRANCH   1  28
TORSDOF 6
ENDMDL
MODEL 7
REMARK VINA RESULT:      -8.9      3.852      6.803
REMARK  6 active torsions:
REMARK  status: ('A' for Active; 'I' for Inactive)
REMARK    1  A    between atoms: C_5  and  N_6 
REMARK    2  A    between atoms: C_8  and  C_9 
REMARK    3  A    between atoms: C_11  and  O_12 
REMARK    4  A    between atoms: C_17  and  C_18 
REMARK       I    between atoms: C_18  and  N_19 
REMARK    5  A    between atoms: N_19  and  N_20 
REMARK       I    between atoms: N_20  and  C_21 
REMARK    6  A    between atoms: C_21  and  C_22 
ROOT
HETATM    1  N   UNL     1      -5.412   0.802 -32.704  1.00  0.00    -0.244 N 
HETATM    2  N   UNL     1      -4.323   1.527 -33.027  1.00  0.00    -0.166 NA
HETATM    3  C   UNL     1      -4.382   2.647 -32.288  1.00  0.00     0.105 A 
HETATM    4  C   UNL     1      -5.560   2.657 -31.475  1.00  0.00     0.082 A 
HETATM    5  C   UNL     1      -6.187   1.459 -31.781  1.00  0.00     0.138 A 
ENDROOT
BRANCH   4   6
HETATM    6  C   UNL     1      -6.056   3.670 -30.554  1.00  0.00     0.274 C 
HETATM    7  N   UNL     1      -5.265   3.872 -29.437  1.00  0.00    -0.263 N 
HETATM    8  H   UNL     1      -4.325   3.495 -29.357  1.00  0.00     0.190 HD
HETATM    9  O   UNL     1      -7.084   4.320 -30.734  1.00  0.00    -0.266 OA
BRANCH   7  10
HETATM   10  N   UNL     1      -5.555   4.950 -28.587  1.00  0.00    -0.262 N 
HETATM   11  C   UNL     1      -4.939   6.159 -28.835  1.00  0.00     0.286 C 
HETATM   12  O   UNL     1      -4.094   6.275 -29.725  1.00  0.00    -0.264 OA
HETATM   13  H   UNL     1      -6.321   4.830 -27.930  1.00  0.00     0.190 HD
BRANCH  11  14
HETATM   14  C   UNL     1      -5.349   7.263 -27.999  1.00  0.00     0.102 A 
HETATM   15  N   UNL     1      -4.482   7.833 -27.091  1.00  0.00    -0.361 N 
HETATM   16  H   UNL     1      -3.526   7.523 -26.954  1.00  0.00     0.165 HD
HETATM   17  C   UNL     1      -5.097   8.854 -26.420  1.00  0.00     0.088 A 
HETATM   18  C   UNL     1      -6.384   8.954 -26.896  1.00  0.00     0.019 A 
HETATM   19  C   UNL     1      -6.545   7.954 -27.888  1.00  0.00     0.036 A 
ENDBRANCH  11  14
ENDBRANCH   7  10
ENDBRANCH   4   6
BRANCH   3  20
HETATM   20  C   UNL     1      -3.297   3.631 -32.411  1.00  0.00    -0.002 A 
HETATM   21  C   UNL     1      -2.303   3.760 -31.430  1.00  0.00     0.050 A 
HETATM   22  C   UNL     1      -1.280   4.702 -31.572  1.00  0.00     0.069 A 
HETATM   23  C   UNL     1      -1.211   5.480 -32.728  1.00  0.00     0.037 A 
HETATM   24  C   UNL     1      -2.177   5.350 -33.722  1.00  0.00     0.004 A 
HETATM   25  C   UNL     1      -3.217   4.434 -33.560  1.00  0.00     0.014 A 
BRANCH  22  26
HETATM   26  O   UNL     1      -0.281   4.922 -30.662  1.00  0.00    -0.356 OA
HETATM   27  C   UNL     1       0.388   6.174 -30.781  1.00  0.00     0.210 C 
ENDBRANCH  22  26
ENDBRANCH   3  20
BRANCH   1  28
HETATM   28  C   UNL     1      -5.645  -0.473 -33.295  1.00  0.00     0.058 A 
HETATM   29  C   UNL     1      -6.958  -0.861 -33.597  1.00  0.00     0.032 A 
HETATM   30  C   UNL     1      -7.211  -2.103 -34.188  1.00  0.00     0.009 A 
HETATM   31  C   UNL     1      -6.158  -2.978 -34.478  1.00  0.00    -0.062 A 
HETATM   32  C   UNL     1      -6.418  -4.296 -35.145  1.00  0.00     0.048 C 
HETATM   33  C   UNL     1      -4.848  -2.584 -34.185  1.00  0.00     0.009 A 
HETATM   34  C   UNL     1      -4.588  -1.343 -33.594  1.00  0.00     0.032 A 
ENDBRANCH   1  28
TORSDOF 6
ENDMDL
MODEL 8
REMARK VINA RESULT:      -8.7      2.310      5.826
REMARK  6 active torsions:
REMARK  status: ('A' for Active; 'I' for Inactive)
REMARK    1  A    between atoms: C_5  and  N_6 
REMARK    2  A    between atoms: C_8  and  C_9 
REMARK    3  A    between atoms: C_11  and  O_12 
REMARK    4  A    between atoms: C_17  and  C_18 
REMARK       I    between atoms: C_18  and  N_19 
REMARK    5  A    between atoms: N_19  and  N_20 
REMARK       I    between atoms: N_20  and  C_21 
REMARK    6  A    between atoms: C_21  and  C_22 
ROOT
HETATM    1  N   UNL     1      -6.337   0.065 -33.206  1.00  0.00    -0.244 N 
HETATM    2  N   UNL     1      -7.580   0.489 -32.905  1.00  0.00    -0.166 NA
HETATM    3  C   UNL     1      -7.452   1.754 -32.471  1.00  0.00     0.105 A 
HETATM    4  C   UNL     1      -6.078   2.154 -32.472  1.00  0.00     0.082 A 
HETATM    5  C   UNL     1      -5.405   1.038 -32.945  1.00  0.00     0.138 A 
ENDROOT
BRANCH   4   6
HETATM    6  C   UNL     1      -5.465   3.407 -32.053  1.00  0.00     0.274 C 
HETATM    7  N   UNL     1      -4.504   3.278 -31.064  1.00  0.00    -0.263 N 
HETATM    8  H   UNL     1      -4.119   2.378 -30.791  1.00  0.00     0.190 HD
HETATM    9  O   UNL     1      -5.745   4.505 -32.531  1.00  0.00    -0.266 OA
BRANCH   7  10
HETATM   10  N   UNL     1      -3.727   4.395 -30.725  1.00  0.00    -0.262 N 
HETATM   11  C   UNL     1      -2.501   4.546 -31.341  1.00  0.00     0.286 C 
HETATM   12  O   UNL     1      -2.060   3.686 -32.106  1.00  0.00    -0.264 OA
HETATM   13  H   UNL     1      -4.169   5.117 -30.164  1.00  0.00     0.190 HD
BRANCH  11  14
HETATM   14  C   UNL     1      -1.785   5.763 -31.038  1.00  0.00     0.102 A 
HETATM   15  N   UNL     1      -1.782   6.293 -29.765  1.00  0.00    -0.361 N 
HETATM   16  H   UNL     1      -2.268   5.874 -28.980  1.00  0.00     0.165 HD
HETATM   17  C   UNL     1      -1.041   7.442 -29.729  1.00  0.00     0.088 A 
HETATM   18  C   UNL     1      -0.552   7.667 -30.994  1.00  0.00     0.019 A 
HETATM   19  C   UNL     1      -1.020   6.614 -31.820  1.00  0.00     0.036 A 
ENDBRANCH  11  14
ENDBRANCH   7  10
ENDBRANCH   4   6
BRANCH   3  20
HETATM   20  C   UNL     1      -8.663   2.495 -32.090  1.00  0.00    -0.002 A 
HETATM   21  C   UNL     1      -9.724   2.688 -32.986  1.00  0.00     0.050 A 
HETATM   22  C   UNL     1     -10.865   3.394 -32.597  1.00  0.00     0.069 A 
HETATM   23  C   UNL     1     -10.980   3.858 -31.287  1.00  0.00     0.037 A 
HETATM   24  C   UNL     1      -9.945   3.657 -30.377  1.00  0.00     0.004 A 
HETATM   25  C   UNL     1      -8.791   2.983 -30.779  1.00  0.00     0.014 A 
BRANCH  22  26
HETATM   26  O   UNL     1     -11.941   3.657 -33.403  1.00  0.00    -0.356 OA
HETATM   27  C   UNL     1     -12.988   2.692 -33.358  1.00  0.00     0.210 C 
ENDBRANCH  22  26
ENDBRANCH   3  20
BRANCH   1  28
HETATM   28  C   UNL     1      -6.114  -1.242 -33.726  1.00  0.00     0.058 A 
HETATM   29  C   UNL     1      -4.812  -1.761 -33.752  1.00  0.00     0.032 A 
HETATM   30  C   UNL     1      -4.571  -3.046 -34.247  1.00  0.00     0.009 A 
HETATM   31  C   UNL     1      -5.625  -3.829 -34.730  1.00  0.00    -0.062 A 
HETATM   32  C   UNL     1      -5.379  -5.222 -35.229  1.00  0.00     0.048 C 
HETATM   33  C   UNL     1      -6.925  -3.314 -34.695  1.00  0.00     0.009 A 
HETATM   34  C   UNL     1      -7.173  -2.029 -34.201  1.00  0.00     0.032 A 
ENDBRANCH   1  28
TORSDOF 6
ENDMDL
MODEL 9
REMARK VINA RESULT:      -8.7      4.767      7.670
REMARK  6 active torsions:
REMARK  status: ('A' for Active; 'I' for Inactive)
REMARK    1  A    between atoms: C_5  and  N_6 
REMARK    2  A    between atoms: C_8  and  C_9 
REMARK    3  A    between atoms: C_11  and  O_12 
REMARK    4  A    between atoms: C_17  and  C_18 
REMARK       I    between atoms: C_18  and  N_19 
REMARK    5  A    between atoms: N_19  and  N_20 
REMARK       I    between atoms: N_20  and  C_21 
REMARK    6  A    between atoms: C_21  and  C_22 
ROOT
HETATM    1  N   UNL     1      -4.178   0.436 -32.188  1.00  0.00    -0.244 N 
HETATM    2  N   UNL     1      -3.257   1.342 -32.573  1.00  0.00    -0.166 NA
HETATM    3  C   UNL     1      -3.627   2.512 -32.028  1.00  0.00     0.105 A 
HETATM    4  C   UNL     1      -4.840   2.364 -31.283  1.00  0.00     0.082 A 
HETATM    5  C   UNL     1      -5.154   1.020 -31.420  1.00  0.00     0.138 A 
ENDROOT
BRANCH   4   6
HETATM    6  C   UNL     1      -5.626   3.355 -30.561  1.00  0.00     0.274 C 
HETATM    7  N   UNL     1      -5.072   3.769 -29.362  1.00  0.00    -0.263 N 
HETATM    8  H   UNL     1      -4.115   3.553 -29.098  1.00  0.00     0.190 HD
HETATM    9  O   UNL     1      -6.691   3.817 -30.966  1.00  0.00    -0.266 OA
BRANCH   7  10
HETATM   10  N   UNL     1      -5.655   4.851 -28.685  1.00  0.00    -0.262 N 
HETATM   11  C   UNL     1      -5.155   6.114 -28.926  1.00  0.00     0.286 C 
HETATM   12  O   UNL     1      -4.174   6.286 -29.651  1.00  0.00    -0.264 OA
HETATM   13  H   UNL     1      -6.514   4.671 -28.173  1.00  0.00     0.190 HD
BRANCH  11  14
HETATM   14  C   UNL     1      -5.855   7.205 -28.287  1.00  0.00     0.102 A 
HETATM   15  N   UNL     1      -7.199   7.420 -28.511  1.00  0.00    -0.361 N 
HETATM   16  H   UNL     1      -7.768   6.843 -29.120  1.00  0.00     0.165 HD
HETATM   17  C   UNL     1      -7.632   8.506 -27.801  1.00  0.00     0.088 A 
HETATM   18  C   UNL     1      -6.558   9.007 -27.103  1.00  0.00     0.019 A 
HETATM   19  C   UNL     1      -5.439   8.192 -27.408  1.00  0.00     0.036 A 
ENDBRANCH  11  14
ENDBRANCH   7  10
ENDBRANCH   4   6
BRANCH   3  20
HETATM   20  C   UNL     1      -2.785   3.695 -32.256  1.00  0.00    -0.002 A 
HETATM   21  C   UNL     1      -1.956   4.216 -31.253  1.00  0.00     0.050 A 
HETATM   22  C   UNL     1      -1.163   5.341 -31.497  1.00  0.00     0.069 A 
HETATM   23  C   UNL     1      -1.146   5.914 -32.769  1.00  0.00     0.037 A 
HETATM   24  C   UNL     1      -1.947   5.396 -33.783  1.00  0.00     0.004 A 
HETATM   25  C   UNL     1      -2.765   4.296 -33.526  1.00  0.00     0.014 A 
BRANCH  22  26
HETATM   26  O   UNL     1      -0.342   5.940 -30.579  1.00  0.00    -0.356 OA
HETATM   27  C   UNL     1       0.509   6.959 -31.094  1.00  0.00     0.210 C 
ENDBRANCH  22  26
ENDBRANCH   3  20
BRANCH   1  28
HETATM   28  C   UNL     1      -4.069  -0.930 -32.576  1.00  0.00     0.058 A 
HETATM   29  C   UNL     1      -3.292  -1.805 -31.803  1.00  0.00     0.032 A 
HETATM   30  C   UNL     1      -3.180  -3.153 -32.157  1.00  0.00     0.009 A 
HETATM   31  C   UNL     1      -3.835  -3.645 -33.292  1.00  0.00    -0.062 A 
HETATM   32  C   UNL     1      -3.749  -5.097 -33.657  1.00  0.00     0.048 C 
HETATM   33  C   UNL     1      -4.617  -2.773 -34.056  1.00  0.00     0.009 A 
HETATM   34  C   UNL     1      -4.733  -1.423 -33.707  1.00  0.00     0.032 A 
ENDBRANCH   1  28
TORSDOF 6
ENDMDL
MODEL 10
REMARK VINA RESULT:      -8.6      2.826      6.710
REMARK  6 active torsions:
REMARK  status: ('A' for Active; 'I' for Inactive)
REMARK    1  A    between atoms: C_5  and  N_6 
REMARK    2  A    between atoms: C_8  and  C_9 
REMARK    3  A    between atoms: C_11  and  O_12 
REMARK    4  A    between atoms: C_17  and  C_18 
REMARK       I    between atoms: C_18  and  N_19 
REMARK    5  A    between atoms: N_19  and  N_20 
REMARK       I    between atoms: N_20  and  C_21 
REMARK    6  A    between atoms: C_21  and  C_22 
ROOT
HETATM    1  N   UNL     1      -8.301   4.146 -34.105  1.00  0.00    -0.244 N 
HETATM    2  N   UNL     1      -7.127   4.807 -34.105  1.00  0.00    -0.166 NA
HETATM    3  C   UNL     1      -6.180   3.895 -33.834  1.00  0.00     0.105 A 
HETATM    4  C   UNL     1      -6.762   2.604 -33.632  1.00  0.00     0.082 A 
HETATM    5  C   UNL     1      -8.121   2.818 -33.810  1.00  0.00     0.138 A 
ENDROOT
BRANCH   4   6
HETATM    6  C   UNL     1      -6.136   1.335 -33.283  1.00  0.00     0.274 C 
HETATM    7  N   UNL     1      -6.219   0.362 -34.263  1.00  0.00    -0.263 N 
HETATM    8  H   UNL     1      -6.514   0.567 -35.214  1.00  0.00     0.190 HD
HETATM    9  O   UNL     1      -5.561   1.122 -32.217  1.00  0.00    -0.266 OA
BRANCH   7  10
HETATM   10  N   UNL     1      -5.491  -0.826 -34.100  1.00  0.00    -0.262 N 
HETATM   11  C   UNL     1      -6.146  -2.024 -34.303  1.00  0.00     0.286 C 
HETATM   12  O   UNL     1      -7.355  -2.059 -34.541  1.00  0.00    -0.264 OA
HETATM   13  H   UNL     1      -4.484  -0.744 -33.996  1.00  0.00     0.190 HD
BRANCH  11  14
HETATM   14  C   UNL     1      -5.330  -3.213 -34.228  1.00  0.00     0.102 A 
HETATM   15  N   UNL     1      -4.092  -3.193 -33.620  1.00  0.00    -0.361 N 
HETATM   16  H   UNL     1      -3.685  -2.366 -33.199  1.00  0.00     0.165 HD
HETATM   17  C   UNL     1      -3.514  -4.432 -33.676  1.00  0.00     0.088 A 
HETATM   18  C   UNL     1      -4.386  -5.274 -34.327  1.00  0.00     0.019 A 
HETATM   19  C   UNL     1      -5.528  -4.509 -34.676  1.00  0.00     0.036 A 
ENDBRANCH  11  14
ENDBRANCH   7  10
ENDBRANCH   4   6
BRANCH   3  20
HETATM   20  C   UNL     1      -4.775   4.326 -33.795  1.00  0.00    -0.002 A 
HETATM   21  C   UNL     1      -3.940   4.024 -32.710  1.00  0.00     0.050 A 
HETATM   22  C   UNL     1      -2.606   4.444 -32.699  1.00  0.00     0.069 A 
HETATM   23  C   UNL     1      -2.083   5.117 -33.804  1.00  0.00     0.037 A 
HETATM   24  C   UNL     1      -2.893   5.406 -34.899  1.00  0.00     0.004 A 
HETATM   25  C   UNL     1      -4.233   5.017 -34.891  1.00  0.00     0.014 A 
BRANCH  22  26
HETATM   26  O   UNL     1      -1.720   4.222 -31.679  1.00  0.00    -0.356 OA
HETATM   27  C   UNL     1      -0.678   5.185 -31.556  1.00  0.00     0.210 C 
ENDBRANCH  22  26
ENDBRANCH   3  20
BRANCH   1  28
HETATM   28  C   UNL     1      -9.523   4.822 -34.387  1.00  0.00     0.058 A 
HETATM   29  C   UNL     1     -10.649   4.078 -34.769  1.00  0.00     0.032 A 
HETATM   30  C   UNL     1     -11.862   4.718 -35.040  1.00  0.00     0.009 A 
HETATM   31  C   UNL     1     -11.967   6.109 -34.941  1.00  0.00    -0.062 A 
HETATM   32  C   UNL     1     -13.275   6.799 -35.194  1.00  0.00     0.048 C 
HETATM   33  C   UNL     1     -10.846   6.849 -34.550  1.00  0.00     0.009 A 
HETATM   34  C   UNL     1      -9.629   6.215 -34.278  1.00  0.00     0.032 A 
ENDBRANCH   1  28
TORSDOF 6
ENDMDL
