MODEL 1
REMARK VINA RESULT:      -9.5      0.000      0.000
REMARK  7 active torsions:
REMARK  status: ('A' for Active; 'I' for Inactive)
REMARK    1  A    between atoms: C_9  and  C_10 
REMARK       I    between atoms: C_10  and  N_11 
REMARK    2  A    between atoms: N_11  and  C_12 
REMARK    3  A    between atoms: C_12  and  C_13 
REMARK    4  A    between atoms: C_12  and  C_22 
REMARK       I    between atoms: C_13  and  N_14 
REMARK    5  A    between atoms: N_14  and  C_15 
REMARK    6  A    between atoms: C_15  and  C_16 
REMARK    7  A    between atoms: C_22  and  C_23 
ROOT
HETATM    1  C   UNL     1      -5.449   3.655 -30.695  1.00  0.00     0.180 C 
ENDROOT
BRANCH   1   2
HETATM    2  N   UNL     1      -5.053   2.339 -31.240  1.00  0.00    -0.346 N 
HETATM    3  C   UNL     1      -5.310   1.174 -30.561  1.00  0.00     0.249 C 
HETATM    4  O   UNL     1      -5.706   1.107 -29.397  1.00  0.00    -0.271 OA
HETATM    5  H   UNL     1      -5.057   2.309 -32.253  1.00  0.00     0.163 HD
BRANCH   3   6
HETATM    6  C   UNL     1      -5.154  -0.126 -31.358  1.00  0.00     0.281 C 
HETATM    7  N   UNL     1      -3.823  -0.101 -32.084  1.00  0.00    -0.058 N 
HETATM    8  C   UNL     1      -3.493  -1.391 -32.725  1.00  0.00     0.272 C 
HETATM    9  H   UNL     1      -3.854   0.655 -32.781  1.00  0.00     0.278 HD
HETATM   10  H   UNL     1      -3.102   0.201 -31.411  1.00  0.00     0.278 HD
HETATM   11  C   UNL     1      -4.649  -1.965 -33.499  1.00  0.00    -0.026 A 
HETATM   12  C   UNL     1      -5.964  -1.483 -33.323  1.00  0.00    -0.048 A 
HETATM   13  C   UNL     1      -4.421  -3.036 -34.375  1.00  0.00     0.009 A 
HETATM   14  C   UNL     1      -7.014  -2.058 -34.052  1.00  0.00     0.008 A 
HETATM   15  C   UNL     1      -6.259  -0.325 -32.394  1.00  0.00     0.082 C 
HETATM   16  C   UNL     1      -6.770  -3.118 -34.923  1.00  0.00     0.001 A 
HETATM   17  C   UNL     1      -5.478  -3.608 -35.083  1.00  0.00     0.001 A 
ENDBRANCH   3   6
ENDBRANCH   1   2
BRANCH   1  18
HETATM   18  C   UNL     1      -4.183   4.544 -30.698  1.00  0.00     0.241 C 
HETATM   19  N   UNL     1      -3.004   3.931 -31.028  1.00  0.00    -0.353 N 
HETATM   20  H   UNL     1      -2.953   2.950 -31.280  1.00  0.00     0.162 HD
HETATM   21  O   UNL     1      -4.257   5.762 -30.507  1.00  0.00    -0.271 OA
BRANCH  19  22
HETATM   22  C   UNL     1      -1.793   4.700 -31.205  1.00  0.00     0.187 C 
BRANCH  22  23
HETATM   23  C   UNL     1      -1.661   5.156 -32.612  1.00  0.00     0.070 A 
HETATM   24  O   UNL     1      -2.124   4.330 -33.600  1.00  0.00    -0.325 OA
HETATM   25  C   UNL     1      -1.887   4.956 -34.782  1.00  0.00     0.142 A 
HETATM   26  C   UNL     1      -1.288   6.176 -34.571  1.00  0.00     0.027 A 
HETATM   27  C   UNL     1      -1.144   6.308 -33.171  1.00  0.00     0.036 A 
ENDBRANCH  22  23
ENDBRANCH  19  22
ENDBRANCH   1  18
BRANCH   1  28
HETATM   28  C   UNL     1      -6.690   4.287 -31.347  1.00  0.00     0.075 C 
BRANCH  28  29
HETATM   29  C   UNL     1      -7.859   3.342 -31.379  1.00  0.00    -0.028 A 
HETATM   30  C   UNL     1      -8.289   2.526 -32.477  1.00  0.00    -0.002 A 
HETATM   31  C   UNL     1      -9.392   1.789 -32.042  1.00  0.00     0.042 A 
HETATM   32  C   UNL     1      -7.849   2.348 -33.806  1.00  0.00     0.014 A 
HETATM   33  C   UNL     1     -10.064   0.873 -32.860  1.00  0.00     0.030 A 
HETATM   34  N   UNL     1      -9.650   2.168 -30.746  1.00  0.00    -0.365 N 
HETATM   35  C   UNL     1      -9.603   0.712 -34.170  1.00  0.00     0.002 A 
HETATM   36  C   UNL     1      -8.515   1.441 -34.640  1.00  0.00     0.001 A 
HETATM   37  H   UNL     1     -10.418   1.816 -30.189  1.00  0.00     0.165 HD
HETATM   38  C   UNL     1      -8.733   3.097 -30.335  1.00  0.00     0.096 A 
ENDBRANCH  28  29
ENDBRANCH   1  28
TORSDOF 7
ENDMDL
MODEL 2
REMARK VINA RESULT:      -9.4      2.369      7.771
REMARK  7 active torsions:
REMARK  status: ('A' for Active; 'I' for Inactive)
REMARK    1  A    between atoms: C_9  and  C_10 
REMARK       I    between atoms: C_10  and  N_11 
REMARK    2  A    between atoms: N_11  and  C_12 
REMARK    3  A    between atoms: C_12  and  C_13 
REMARK    4  A    between atoms: C_12  and  C_22 
REMARK       I    between atoms: C_13  and  N_14 
REMARK    5  A    between atoms: N_14  and  C_15 
REMARK    6  A    between atoms: C_15  and  C_16 
REMARK    7  A    between atoms: C_22  and  C_23 
ROOT
HETATM    1  C   UNL     1      -7.018   0.891 -32.909  1.00  0.00     0.180 C 
ENDROOT
BRANCH   1   2
HETATM    2  N   UNL     1      -6.406   2.232 -32.811  1.00  0.00    -0.346 N 
HETATM    3  C   UNL     1      -5.436   2.513 -31.879  1.00  0.00     0.249 C 
HETATM    4  O   UNL     1      -5.119   1.775 -30.946  1.00  0.00    -0.271 OA
HETATM    5  H   UNL     1      -6.366   2.719 -33.698  1.00  0.00     0.163 HD
BRANCH   3   6
HETATM    6  C   UNL     1      -4.655   3.815 -32.083  1.00  0.00     0.281 C 
HETATM    7  N   UNL     1      -4.749   4.222 -33.542  1.00  0.00    -0.058 N 
HETATM    8  C   UNL     1      -4.191   5.565 -33.801  1.00  0.00     0.272 C 
HETATM    9  H   UNL     1      -4.262   3.510 -34.103  1.00  0.00     0.278 HD
HETATM   10  H   UNL     1      -5.736   4.142 -33.829  1.00  0.00     0.278 HD
HETATM   11  C   UNL     1      -2.850   5.770 -33.151  1.00  0.00    -0.026 A 
HETATM   12  C   UNL     1      -2.379   4.900 -32.144  1.00  0.00    -0.048 A 
HETATM   13  C   UNL     1      -2.074   6.880 -33.518  1.00  0.00     0.009 A 
HETATM   14  C   UNL     1      -1.131   5.139 -31.552  1.00  0.00     0.008 A 
HETATM   15  C   UNL     1      -3.177   3.686 -31.719  1.00  0.00     0.082 C 
HETATM   16  C   UNL     1      -0.370   6.242 -31.932  1.00  0.00     0.001 A 
HETATM   17  C   UNL     1      -0.841   7.112 -32.910  1.00  0.00     0.001 A 
ENDBRANCH   3   6
ENDBRANCH   1   2
BRANCH   1  18
HETATM   18  C   UNL     1      -8.528   1.061 -32.621  1.00  0.00     0.241 C 
HETATM   19  N   UNL     1      -9.391   0.575 -33.567  1.00  0.00    -0.353 N 
HETATM   20  H   UNL     1      -9.069   0.106 -34.407  1.00  0.00     0.162 HD
HETATM   21  O   UNL     1      -8.927   1.524 -31.548  1.00  0.00    -0.271 OA
BRANCH  19  22
HETATM   22  C   UNL     1     -10.816   0.549 -33.327  1.00  0.00     0.187 C 
BRANCH  22  23
HETATM   23  C   UNL     1     -11.496   1.636 -34.076  1.00  0.00     0.070 A 
HETATM   24  O   UNL     1     -11.289   2.925 -33.666  1.00  0.00    -0.325 OA
HETATM   25  C   UNL     1     -12.012   3.725 -34.492  1.00  0.00     0.142 A 
HETATM   26  C   UNL     1     -12.673   2.973 -35.435  1.00  0.00     0.027 A 
HETATM   27  C   UNL     1     -12.338   1.624 -35.170  1.00  0.00     0.036 A 
ENDBRANCH  22  23
ENDBRANCH  19  22
ENDBRANCH   1  18
BRANCH   1  28
HETATM   28  C   UNL     1      -6.684   0.111 -34.192  1.00  0.00     0.075 C 
BRANCH  28  29
HETATM   29  C   UNL     1      -5.635  -0.941 -33.961  1.00  0.00    -0.028 A 
HETATM   30  C   UNL     1      -5.716  -2.336 -34.284  1.00  0.00    -0.002 A 
HETATM   31  C   UNL     1      -4.499  -2.919 -33.923  1.00  0.00     0.042 A 
HETATM   32  C   UNL     1      -6.712  -3.164 -34.843  1.00  0.00     0.014 A 
HETATM   33  C   UNL     1      -4.223  -4.278 -34.109  1.00  0.00     0.030 A 
HETATM   34  N   UNL     1      -3.723  -1.930 -33.367  1.00  0.00    -0.365 N 
HETATM   35  C   UNL     1      -5.226  -5.074 -34.671  1.00  0.00     0.002 A 
HETATM   36  C   UNL     1      -6.455  -4.528 -35.029  1.00  0.00     0.001 A 
HETATM   37  H   UNL     1      -2.798  -2.075 -32.986  1.00  0.00     0.165 HD
HETATM   38  C   UNL     1      -4.393  -0.736 -33.388  1.00  0.00     0.096 A 
ENDBRANCH  28  29
ENDBRANCH   1  28
TORSDOF 7
ENDMDL
MODEL 3
REMARK VINA RESULT:      -9.4      1.771      2.369
REMARK  7 active torsions:
REMARK  status: ('A' for Active; 'I' for Inactive)
REMARK    1  A    between atoms: C_9  and  C_10 
REMARK       I    between atoms: C_10  and  N_11 
REMARK    2  A    between atoms: N_11  and  C_12 
REMARK    3  A    between atoms: C_12  and  C_13 
REMARK    4  A    between atoms: C_12  and  C_22 
REMARK       I    between atoms: C_13  and  N_14 
REMARK    5  A    between atoms: N_14  and  C_15 
REMARK    6  A    between atoms: C_15  and  C_16 
REMARK    7  A    between atoms: C_22  and  C_23 
ROOT
HETATM    1  C   UNL     1      -4.528   3.044 -31.308  1.00  0.00     0.180 C 
ENDROOT
BRANCH   1   2
HETATM    2  N   UNL     1      -4.531   1.661 -31.828  1.00  0.00    -0.346 N 
HETATM    3  C   UNL     1      -3.597   0.739 -31.422  1.00  0.00     0.249 C 
HETATM    4  O   UNL     1      -2.592   0.997 -30.760  1.00  0.00    -0.271 OA
HETATM    5  H   UNL     1      -5.457   1.326 -32.065  1.00  0.00     0.163 HD
BRANCH   3   6
HETATM    6  C   UNL     1      -3.892  -0.725 -31.768  1.00  0.00     0.281 C 
HETATM    7  N   UNL     1      -2.599  -1.515 -31.708  1.00  0.00    -0.058 N 
HETATM    8  C   UNL     1      -2.808  -2.971 -31.836  1.00  0.00     0.272 C 
HETATM    9  H   UNL     1      -1.979  -1.168 -32.452  1.00  0.00     0.278 HD
HETATM   10  H   UNL     1      -2.114  -1.261 -30.833  1.00  0.00     0.278 HD
HETATM   11  C   UNL     1      -3.738  -3.325 -32.965  1.00  0.00    -0.026 A 
HETATM   12  C   UNL     1      -4.558  -2.352 -33.576  1.00  0.00    -0.048 A 
HETATM   13  C   UNL     1      -3.828  -4.661 -33.384  1.00  0.00     0.009 A 
HETATM   14  C   UNL     1      -5.422  -2.729 -34.613  1.00  0.00     0.008 A 
HETATM   15  C   UNL     1      -4.492  -0.898 -33.163  1.00  0.00     0.082 C 
HETATM   16  C   UNL     1      -5.495  -4.059 -35.022  1.00  0.00     0.001 A 
HETATM   17  C   UNL     1      -4.703  -5.023 -34.408  1.00  0.00     0.001 A 
ENDBRANCH   3   6
ENDBRANCH   1   2
BRANCH   1  18
HETATM   18  C   UNL     1      -3.292   3.751 -31.913  1.00  0.00     0.241 C 
HETATM   19  N   UNL     1      -2.404   4.300 -31.026  1.00  0.00    -0.353 N 
HETATM   20  H   UNL     1      -2.528   4.233 -30.022  1.00  0.00     0.162 HD
HETATM   21  O   UNL     1      -3.076   3.734 -33.129  1.00  0.00    -0.271 OA
BRANCH  19  22
HETATM   22  C   UNL     1      -1.147   4.850 -31.480  1.00  0.00     0.187 C 
BRANCH  22  23
HETATM   23  C   UNL     1      -0.680   5.921 -30.564  1.00  0.00     0.070 A 
HETATM   24  O   UNL     1      -1.599   6.496 -29.729  1.00  0.00    -0.325 OA
HETATM   25  C   UNL     1      -0.940   7.439 -29.006  1.00  0.00     0.142 A 
HETATM   26  C   UNL     1       0.390   7.473 -29.354  1.00  0.00     0.027 A 
HETATM   27  C   UNL     1       0.560   6.492 -30.358  1.00  0.00     0.036 A 
ENDBRANCH  22  23
ENDBRANCH  19  22
ENDBRANCH   1  18
BRANCH   1  28
HETATM   28  C   UNL     1      -5.855   3.806 -31.465  1.00  0.00     0.075 C 
BRANCH  28  29
HETATM   29  C   UNL     1      -7.034   2.879 -31.565  1.00  0.00    -0.028 A 
HETATM   30  C   UNL     1      -7.419   2.080 -32.692  1.00  0.00    -0.002 A 
HETATM   31  C   UNL     1      -8.554   1.355 -32.321  1.00  0.00     0.042 A 
HETATM   32  C   UNL     1      -6.916   1.908 -33.999  1.00  0.00     0.014 A 
HETATM   33  C   UNL     1      -9.196   0.457 -33.181  1.00  0.00     0.030 A 
HETATM   34  N   UNL     1      -8.871   1.725 -31.036  1.00  0.00    -0.365 N 
HETATM   35  C   UNL     1      -8.672   0.302 -34.468  1.00  0.00     0.002 A 
HETATM   36  C   UNL     1      -7.551   1.020 -34.875  1.00  0.00     0.001 A 
HETATM   37  H   UNL     1      -9.671   1.380 -30.522  1.00  0.00     0.165 HD
HETATM   38  C   UNL     1      -7.963   2.637 -30.569  1.00  0.00     0.096 A 
ENDBRANCH  28  29
ENDBRANCH   1  28
TORSDOF 7
ENDMDL
MODEL 4
REMARK VINA RESULT:      -9.2      2.257      5.564
REMARK  7 active torsions:
REMARK  status: ('A' for Active; 'I' for Inactive)
REMARK    1  A    between atoms: C_9  and  C_10 
REMARK       I    between atoms: C_10  and  N_11 
REMARK    2  A    between atoms: N_11  and  C_12 
REMARK    3  A    between atoms: C_12  and  C_13 
REMARK    4  A    between atoms: C_12  and  C_22 
REMARK       I    between atoms: C_13  and  N_14 
REMARK    5  A    between atoms: N_14  and  C_15 
REMARK    6  A    between atoms: C_15  and  C_16 
REMARK    7  A    between atoms: C_22  and  C_23 
ROOT
HETATM    1  C   UNL     1      -6.018   1.784 -32.369  1.00  0.00     0.180 C 
ENDROOT
BRANCH   1   2
HETATM    2  N   UNL     1      -7.381   2.000 -32.895  1.00  0.00    -0.346 N 
HETATM    3  C   UNL     1      -7.700   1.719 -34.202  1.00  0.00     0.249 C 
HETATM    4  O   UNL     1      -6.885   1.450 -35.085  1.00  0.00    -0.271 OA
HETATM    5  H   UNL     1      -8.103   1.881 -32.195  1.00  0.00     0.163 HD
BRANCH   3   6
HETATM    6  C   UNL     1      -9.193   1.671 -34.542  1.00  0.00     0.281 C 
HETATM    7  N   UNL     1      -9.781   3.060 -34.375  1.00  0.00    -0.058 N 
HETATM    8  C   UNL     1     -11.171   3.158 -34.865  1.00  0.00     0.272 C 
HETATM    9  H   UNL     1      -9.727   3.311 -33.379  1.00  0.00     0.278 HD
HETATM   10  H   UNL     1      -9.149   3.728 -34.842  1.00  0.00     0.278 HD
HETATM   11  C   UNL     1     -12.035   2.022 -34.389  1.00  0.00    -0.026 A 
HETATM   12  C   UNL     1     -11.472   0.849 -33.840  1.00  0.00    -0.048 A 
HETATM   13  C   UNL     1     -13.426   2.109 -34.543  1.00  0.00     0.009 A 
HETATM   14  C   UNL     1     -12.313  -0.192 -33.425  1.00  0.00     0.008 A 
HETATM   15  C   UNL     1      -9.977   0.711 -33.648  1.00  0.00     0.082 C 
HETATM   16  C   UNL     1     -13.694  -0.088 -33.578  1.00  0.00     0.001 A 
HETATM   17  C   UNL     1     -14.249   1.058 -34.139  1.00  0.00     0.001 A 
ENDBRANCH   3   6
ENDBRANCH   1   2
BRANCH   1  18
HETATM   18  C   UNL     1      -5.523   3.145 -31.825  1.00  0.00     0.241 C 
HETATM   19  N   UNL     1      -4.171   3.364 -31.862  1.00  0.00    -0.353 N 
HETATM   20  H   UNL     1      -3.521   2.687 -32.245  1.00  0.00     0.162 HD
HETATM   21  O   UNL     1      -6.318   4.019 -31.467  1.00  0.00    -0.271 OA
BRANCH  19  22
HETATM   22  C   UNL     1      -3.621   4.656 -31.518  1.00  0.00     0.187 C 
BRANCH  22  23
HETATM   23  C   UNL     1      -2.822   5.204 -32.643  1.00  0.00     0.070 A 
HETATM   24  O   UNL     1      -2.646   6.559 -32.705  1.00  0.00    -0.325 OA
HETATM   25  C   UNL     1      -1.898   6.812 -33.811  1.00  0.00     0.142 A 
HETATM   26  C   UNL     1      -1.580   5.640 -34.456  1.00  0.00     0.027 A 
HETATM   27  C   UNL     1      -2.174   4.600 -33.703  1.00  0.00     0.036 A 
ENDBRANCH  22  23
ENDBRANCH  19  22
ENDBRANCH   1  18
BRANCH   1  28
HETATM   28  C   UNL     1      -5.871   0.602 -31.395  1.00  0.00     0.075 C 
BRANCH  28  29
HETATM   29  C   UNL     1      -5.036  -0.508 -31.971  1.00  0.00    -0.028 A 
HETATM   30  C   UNL     1      -5.416  -1.443 -32.990  1.00  0.00    -0.002 A 
HETATM   31  C   UNL     1      -4.315  -2.268 -33.229  1.00  0.00     0.042 A 
HETATM   32  C   UNL     1      -6.595  -1.672 -33.731  1.00  0.00     0.014 A 
HETATM   33  C   UNL     1      -4.328  -3.295 -34.180  1.00  0.00     0.030 A 
HETATM   34  N   UNL     1      -3.320  -1.880 -32.365  1.00  0.00    -0.365 N 
HETATM   35  C   UNL     1      -5.507  -3.496 -34.903  1.00  0.00     0.002 A 
HETATM   36  C   UNL     1      -6.627  -2.701 -34.680  1.00  0.00     0.001 A 
HETATM   37  H   UNL     1      -2.415  -2.328 -32.295  1.00  0.00     0.165 HD
HETATM   38  C   UNL     1      -3.739  -0.821 -31.606  1.00  0.00     0.096 A 
ENDBRANCH  28  29
ENDBRANCH   1  28
TORSDOF 7
ENDMDL
MODEL 5
REMARK VINA RESULT:      -9.1      1.587      2.195
REMARK  7 active torsions:
REMARK  status: ('A' for Active; 'I' for Inactive)
REMARK    1  A    between atoms: C_9  and  C_10 
REMARK       I    between atoms: C_10  and  N_11 
REMARK    2  A    between atoms: N_11  and  C_12 
REMARK    3  A    between atoms: C_12  and  C_13 
REMARK    4  A    between atoms: C_12  and  C_22 
REMARK       I    between atoms: C_13  and  N_14 
REMARK    5  A    between atoms: N_14  and  C_15 
REMARK    6  A    between atoms: C_15  and  C_16 
REMARK    7  A    between atoms: C_22  and  C_23 
ROOT
HETATM    1  C   UNL     1      -5.208   3.724 -31.911  1.00  0.00     0.180 C 
ENDROOT
BRANCH   1   2
HETATM    2  N   UNL     1      -5.239   2.555 -32.815  1.00  0.00    -0.346 N 
HETATM    3  C   UNL     1      -4.867   1.305 -32.384  1.00  0.00     0.249 C 
HETATM    4  O   UNL     1      -4.314   1.063 -31.311  1.00  0.00    -0.271 OA
HETATM    5  H   UNL     1      -5.960   2.617 -33.524  1.00  0.00     0.163 HD
BRANCH   3   6
HETATM    6  C   UNL     1      -5.247   0.132 -33.294  1.00  0.00     0.281 C 
HETATM    7  N   UNL     1      -6.722  -0.174 -33.113  1.00  0.00    -0.058 N 
HETATM    8  C   UNL     1      -7.229  -1.161 -34.088  1.00  0.00     0.272 C 
HETATM    9  H   UNL     1      -6.862  -0.508 -32.150  1.00  0.00     0.278 HD
HETATM   10  H   UNL     1      -7.236   0.719 -33.151  1.00  0.00     0.278 HD
HETATM   11  C   UNL     1      -6.325  -2.357 -34.224  1.00  0.00    -0.026 A 
HETATM   12  C   UNL     1      -5.002  -2.340 -33.732  1.00  0.00    -0.048 A 
HETATM   13  C   UNL     1      -6.792  -3.494 -34.900  1.00  0.00     0.009 A 
HETATM   14  C   UNL     1      -4.190  -3.470 -33.895  1.00  0.00     0.008 A 
HETATM   15  C   UNL     1      -4.456  -1.139 -32.990  1.00  0.00     0.082 C 
HETATM   16  C   UNL     1      -4.670  -4.594 -34.564  1.00  0.00     0.001 A 
HETATM   17  C   UNL     1      -5.967  -4.605 -35.068  1.00  0.00     0.001 A 
ENDBRANCH   3   6
ENDBRANCH   1   2
BRANCH   1  18
HETATM   18  C   UNL     1      -4.114   4.678 -32.445  1.00  0.00     0.241 C 
HETATM   19  N   UNL     1      -2.867   4.141 -32.626  1.00  0.00    -0.353 N 
HETATM   20  H   UNL     1      -2.664   3.165 -32.443  1.00  0.00     0.162 HD
HETATM   21  O   UNL     1      -4.383   5.836 -32.780  1.00  0.00    -0.271 OA
BRANCH  19  22
HETATM   22  C   UNL     1      -1.815   4.905 -33.258  1.00  0.00     0.187 C 
BRANCH  22  23
HETATM   23  C   UNL     1      -0.893   5.473 -32.242  1.00  0.00     0.070 A 
HETATM   24  O   UNL     1      -0.412   4.635 -31.274  1.00  0.00    -0.325 OA
HETATM   25  C   UNL     1       0.393   5.379 -30.471  1.00  0.00     0.142 A 
HETATM   26  C   UNL     1       0.447   6.680 -30.914  1.00  0.00     0.027 A 
HETATM   27  C   UNL     1      -0.381   6.742 -32.059  1.00  0.00     0.036 A 
ENDBRANCH  22  23
ENDBRANCH  19  22
ENDBRANCH   1  18
BRANCH   1  28
HETATM   28  C   UNL     1      -6.572   4.383 -31.645  1.00  0.00     0.075 C 
BRANCH  28  29
HETATM   29  C   UNL     1      -7.693   3.381 -31.626  1.00  0.00    -0.028 A 
HETATM   30  C   UNL     1      -8.678   3.159 -32.644  1.00  0.00    -0.002 A 
HETATM   31  C   UNL     1      -9.496   2.112 -32.213  1.00  0.00     0.042 A 
HETATM   32  C   UNL     1      -8.960   3.753 -33.893  1.00  0.00     0.014 A 
HETATM   33  C   UNL     1     -10.564   1.620 -32.971  1.00  0.00     0.030 A 
HETATM   34  N   UNL     1      -9.053   1.737 -30.967  1.00  0.00    -0.365 N 
HETATM   35  C   UNL     1     -10.816   2.223 -34.206  1.00  0.00     0.002 A 
HETATM   36  C   UNL     1     -10.030   3.278 -34.661  1.00  0.00     0.001 A 
HETATM   37  H   UNL     1      -9.482   1.019 -30.399  1.00  0.00     0.165 HD
HETATM   38  C   UNL     1      -7.968   2.489 -30.605  1.00  0.00     0.096 A 
ENDBRANCH  28  29
ENDBRANCH   1  28
TORSDOF 7
ENDMDL
MODEL 6
REMARK VINA RESULT:      -9.0      2.601      6.309
REMARK  7 active torsions:
REMARK  status: ('A' for Active; 'I' for Inactive)
REMARK    1  A    between atoms: C_9  and  C_10 
REMARK       I    between atoms: C_10  and  N_11 
REMARK    2  A    between atoms: N_11  and  C_12 
REMARK    3  A    between atoms: C_12  and  C_13 
REMARK    4  A    between atoms: C_12  and  C_22 
REMARK       I    between atoms: C_13  and  N_14 
REMARK    5  A    between atoms: N_14  and  C_15 
REMARK    6  A    between atoms: C_15  and  C_16 
REMARK    7  A    between atoms: C_22  and  C_23 
ROOT
HETATM    1  C   UNL     1      -7.769   3.493 -32.165  1.00  0.00     0.180 C 
ENDROOT
BRANCH   1   2
HETATM    2  N   UNL     1      -7.385   2.066 -32.159  1.00  0.00    -0.346 N 
HETATM    3  C   UNL     1      -7.341   1.329 -33.318  1.00  0.00     0.249 C 
HETATM    4  O   UNL     1      -7.776   1.702 -34.408  1.00  0.00    -0.271 OA
HETATM    5  H   UNL     1      -6.730   1.831 -31.423  1.00  0.00     0.163 HD
BRANCH   3   6
HETATM    6  C   UNL     1      -6.626  -0.023 -33.237  1.00  0.00     0.281 C 
HETATM    7  N   UNL     1      -5.154   0.179 -33.544  1.00  0.00    -0.058 N 
HETATM    8  C   UNL     1      -4.344  -1.032 -33.302  1.00  0.00     0.272 C 
HETATM    9  H   UNL     1      -5.072   0.483 -34.524  1.00  0.00     0.278 HD
HETATM   10  H   UNL     1      -4.826   0.990 -32.998  1.00  0.00     0.278 HD
HETATM   11  C   UNL     1      -4.968  -2.271 -33.883  1.00  0.00    -0.026 A 
HETATM   12  C   UNL     1      -6.319  -2.293 -34.292  1.00  0.00    -0.048 A 
HETATM   13  C   UNL     1      -4.204  -3.445 -33.972  1.00  0.00     0.009 A 
HETATM   14  C   UNL     1      -6.865  -3.475 -34.812  1.00  0.00     0.008 A 
HETATM   15  C   UNL     1      -7.181  -1.052 -34.221  1.00  0.00     0.082 C 
HETATM   16  C   UNL     1      -6.091  -4.631 -34.899  1.00  0.00     0.001 A 
HETATM   17  C   UNL     1      -4.765  -4.617 -34.478  1.00  0.00     0.001 A 
ENDBRANCH   3   6
ENDBRANCH   1   2
BRANCH   1  18
HETATM   18  C   UNL     1      -9.268   3.559 -31.793  1.00  0.00     0.241 C 
HETATM   19  N   UNL     1     -10.137   3.874 -32.804  1.00  0.00    -0.353 N 
HETATM   20  H   UNL     1      -9.828   4.036 -33.756  1.00  0.00     0.162 HD
HETATM   21  O   UNL     1      -9.662   3.249 -30.664  1.00  0.00    -0.271 OA
BRANCH  19  22
HETATM   22  C   UNL     1     -11.567   3.816 -32.598  1.00  0.00     0.187 C 
BRANCH  22  23
HETATM   23  C   UNL     1     -12.114   2.519 -33.071  1.00  0.00     0.070 A 
HETATM   24  O   UNL     1     -13.466   2.324 -32.984  1.00  0.00    -0.325 OA
HETATM   25  C   UNL     1     -13.717   1.079 -33.465  1.00  0.00     0.142 A 
HETATM   26  C   UNL     1     -12.551   0.473 -33.870  1.00  0.00     0.027 A 
HETATM   27  C   UNL     1     -11.515   1.403 -33.619  1.00  0.00     0.036 A 
ENDBRANCH  22  23
ENDBRANCH  19  22
ENDBRANCH   1  18
BRANCH   1  28
HETATM   28  C   UNL     1      -6.854   4.420 -31.347  1.00  0.00     0.075 C 
BRANCH  28  29
HETATM   29  C   UNL     1      -5.397   4.137 -31.586  1.00  0.00    -0.028 A 
HETATM   30  C   UNL     1      -4.620   4.492 -32.738  1.00  0.00    -0.002 A 
HETATM   31  C   UNL     1      -3.312   4.058 -32.509  1.00  0.00     0.042 A 
HETATM   32  C   UNL     1      -4.904   5.135 -33.962  1.00  0.00     0.014 A 
HETATM   33  C   UNL     1      -2.276   4.251 -33.429  1.00  0.00     0.030 A 
HETATM   34  N   UNL     1      -3.300   3.431 -31.286  1.00  0.00    -0.365 N 
HETATM   35  C   UNL     1      -2.584   4.897 -34.630  1.00  0.00     0.002 A 
HETATM   36  C   UNL     1      -3.880   5.329 -34.897  1.00  0.00     0.001 A 
HETATM   37  H   UNL     1      -2.487   2.988 -30.878  1.00  0.00     0.165 HD
HETATM   38  C   UNL     1      -4.546   3.475 -30.720  1.00  0.00     0.096 A 
ENDBRANCH  28  29
ENDBRANCH   1  28
TORSDOF 7
ENDMDL
MODEL 7
REMARK VINA RESULT:      -9.0      2.790      7.582
REMARK  7 active torsions:
REMARK  status: ('A' for Active; 'I' for Inactive)
REMARK    1  A    between atoms: C_9  and  C_10 
REMARK       I    between atoms: C_10  and  N_11 
REMARK    2  A    between atoms: N_11  and  C_12 
REMARK    3  A    between atoms: C_12  and  C_13 
REMARK    4  A    between atoms: C_12  and  C_22 
REMARK       I    between atoms: C_13  and  N_14 
REMARK    5  A    between atoms: N_14  and  C_15 
REMARK    6  A    between atoms: C_15  and  C_16 
REMARK    7  A    between atoms: C_22  and  C_23 
ROOT
HETATM    1  C   UNL     1      -3.939   2.885 -31.735  1.00  0.00     0.180 C 
ENDROOT
BRANCH   1   2
HETATM    2  N   UNL     1      -2.806   3.616 -31.130  1.00  0.00    -0.346 N 
HETATM    3  C   UNL     1      -2.062   4.516 -31.855  1.00  0.00     0.249 C 
HETATM    4  O   UNL     1      -2.129   4.666 -33.075  1.00  0.00    -0.271 OA
HETATM    5  H   UNL     1      -2.927   3.790 -30.139  1.00  0.00     0.163 HD
BRANCH   3   6
HETATM    6  C   UNL     1      -1.142   5.440 -31.051  1.00  0.00     0.281 C 
HETATM    7  N   UNL     1      -0.402   4.616 -30.013  1.00  0.00    -0.058 N 
HETATM    8  C   UNL     1       0.652   5.381 -29.317  1.00  0.00     0.272 C 
HETATM    9  H   UNL     1      -1.093   4.254 -29.342  1.00  0.00     0.278 HD
HETATM   10  H   UNL     1      -0.035   3.774 -30.481  1.00  0.00     0.278 HD
HETATM   11  C   UNL     1       0.180   6.735 -28.861  1.00  0.00    -0.026 A 
HETATM   12  C   UNL     1      -1.012   7.305 -29.358  1.00  0.00    -0.048 A 
HETATM   13  C   UNL     1       0.968   7.468 -27.961  1.00  0.00     0.009 A 
HETATM   14  C   UNL     1      -1.406   8.577 -28.920  1.00  0.00     0.008 A 
HETATM   15  C   UNL     1      -1.899   6.551 -30.326  1.00  0.00     0.082 C 
HETATM   16  C   UNL     1      -0.615   9.289 -28.020  1.00  0.00     0.001 A 
HETATM   17  C   UNL     1       0.570   8.738 -27.544  1.00  0.00     0.001 A 
ENDBRANCH   3   6
ENDBRANCH   1   2
BRANCH   1  18
HETATM   18  C   UNL     1      -3.541   1.391 -31.777  1.00  0.00     0.241 C 
HETATM   19  N   UNL     1      -4.120   0.630 -32.758  1.00  0.00    -0.353 N 
HETATM   20  H   UNL     1      -4.762   1.019 -33.440  1.00  0.00     0.162 HD
HETATM   21  O   UNL     1      -2.673   0.938 -31.025  1.00  0.00    -0.271 OA
BRANCH  19  22
HETATM   22  C   UNL     1      -3.705  -0.737 -32.977  1.00  0.00     0.187 C 
BRANCH  22  23
HETATM   23  C   UNL     1      -4.753  -1.494 -33.708  1.00  0.00     0.070 A 
HETATM   24  O   UNL     1      -4.402  -2.686 -34.280  1.00  0.00    -0.325 OA
HETATM   25  C   UNL     1      -5.514  -3.177 -34.887  1.00  0.00     0.142 A 
HETATM   26  C   UNL     1      -6.578  -2.325 -34.706  1.00  0.00     0.027 A 
HETATM   27  C   UNL     1      -6.090  -1.240 -33.943  1.00  0.00     0.036 A 
ENDBRANCH  22  23
ENDBRANCH  19  22
ENDBRANCH   1  18
BRANCH   1  28
HETATM   28  C   UNL     1      -5.314   3.174 -31.111  1.00  0.00     0.075 C 
BRANCH  28  29
HETATM   29  C   UNL     1      -6.416   3.170 -32.134  1.00  0.00    -0.028 A 
HETATM   30  C   UNL     1      -7.469   2.207 -32.274  1.00  0.00    -0.002 A 
HETATM   31  C   UNL     1      -8.276   2.623 -33.335  1.00  0.00     0.042 A 
HETATM   32  C   UNL     1      -7.812   1.014 -31.603  1.00  0.00     0.014 A 
HETATM   33  C   UNL     1      -9.414   1.919 -33.745  1.00  0.00     0.030 A 
HETATM   34  N   UNL     1      -7.717   3.769 -33.847  1.00  0.00    -0.365 N 
HETATM   35  C   UNL     1      -9.734   0.744 -33.059  1.00  0.00     0.002 A 
HETATM   36  C   UNL     1      -8.943   0.293 -32.006  1.00  0.00     0.001 A 
HETATM   37  H   UNL     1      -8.075   4.273 -34.647  1.00  0.00     0.165 HD
HETATM   38  C   UNL     1      -6.601   4.110 -33.131  1.00  0.00     0.096 A 
ENDBRANCH  28  29
ENDBRANCH   1  28
TORSDOF 7
ENDMDL
MODEL 8
REMARK VINA RESULT:      -8.9      3.073      7.790
REMARK  7 active torsions:
REMARK  status: ('A' for Active; 'I' for Inactive)
REMARK    1  A    between atoms: C_9  and  C_10 
REMARK       I    between atoms: C_10  and  N_11 
REMARK    2  A    between atoms: N_11  and  C_12 
REMARK    3  A    between atoms: C_12  and  C_13 
REMARK    4  A    between atoms: C_12  and  C_22 
REMARK       I    between atoms: C_13  and  N_14 
REMARK    5  A    between atoms: N_14  and  C_15 
REMARK    6  A    between atoms: C_15  and  C_16 
REMARK    7  A    between atoms: C_22  and  C_23 
ROOT
HETATM    1  C   UNL     1      -8.864   1.834 -32.220  1.00  0.00     0.180 C 
ENDROOT
BRANCH   1   2
HETATM    2  N   UNL     1      -7.710   2.583 -32.758  1.00  0.00    -0.346 N 
HETATM    3  C   UNL     1      -7.596   3.942 -32.593  1.00  0.00     0.249 C 
HETATM    4  O   UNL     1      -8.487   4.679 -32.167  1.00  0.00    -0.271 OA
HETATM    5  H   UNL     1      -6.858   2.036 -32.789  1.00  0.00     0.163 HD
BRANCH   3   6
HETATM    6  C   UNL     1      -6.224   4.552 -32.899  1.00  0.00     0.281 C 
HETATM    7  N   UNL     1      -5.829   4.188 -34.318  1.00  0.00    -0.058 N 
HETATM    8  C   UNL     1      -4.611   4.888 -34.773  1.00  0.00     0.272 C 
HETATM    9  H   UNL     1      -5.701   3.168 -34.361  1.00  0.00     0.278 HD
HETATM   10  H   UNL     1      -6.641   4.369 -34.928  1.00  0.00     0.278 HD
HETATM   11  C   UNL     1      -3.504   4.846 -33.756  1.00  0.00    -0.026 A 
HETATM   12  C   UNL     1      -3.750   4.480 -32.414  1.00  0.00    -0.048 A 
HETATM   13  C   UNL     1      -2.209   5.227 -34.137  1.00  0.00     0.009 A 
HETATM   14  C   UNL     1      -2.692   4.471 -31.496  1.00  0.00     0.008 A 
HETATM   15  C   UNL     1      -5.128   4.055 -31.957  1.00  0.00     0.082 C 
HETATM   16  C   UNL     1      -1.410   4.846 -31.891  1.00  0.00     0.001 A 
HETATM   17  C   UNL     1      -1.169   5.227 -33.208  1.00  0.00     0.001 A 
ENDBRANCH   3   6
ENDBRANCH   1   2
BRANCH   1  18
HETATM   18  C   UNL     1      -9.919   1.757 -33.348  1.00  0.00     0.241 C 
HETATM   19  N   UNL     1     -10.906   2.706 -33.331  1.00  0.00    -0.353 N 
HETATM   20  H   UNL     1     -10.942   3.440 -32.632  1.00  0.00     0.162 HD
HETATM   21  O   UNL     1      -9.814   0.938 -34.267  1.00  0.00    -0.271 OA
BRANCH  19  22
HETATM   22  C   UNL     1     -11.850   2.813 -34.420  1.00  0.00     0.187 C 
BRANCH  22  23
HETATM   23  C   UNL     1     -13.142   2.175 -34.060  1.00  0.00     0.070 A 
HETATM   24  O   UNL     1     -13.649   1.230 -34.909  1.00  0.00    -0.325 OA
HETATM   25  C   UNL     1     -14.823   0.806 -34.374  1.00  0.00     0.142 A 
HETATM   26  C   UNL     1     -15.076   1.456 -33.189  1.00  0.00     0.027 A 
HETATM   27  C   UNL     1     -13.991   2.338 -32.983  1.00  0.00     0.036 A 
ENDBRANCH  22  23
ENDBRANCH  19  22
ENDBRANCH   1  18
BRANCH   1  28
HETATM   28  C   UNL     1      -8.520   0.488 -31.558  1.00  0.00     0.075 C 
BRANCH  28  29
HETATM   29  C   UNL     1      -7.092   0.084 -31.800  1.00  0.00    -0.028 A 
HETATM   30  C   UNL     1      -6.594  -0.770 -32.838  1.00  0.00    -0.002 A 
HETATM   31  C   UNL     1      -5.207  -0.836 -32.694  1.00  0.00     0.042 A 
HETATM   32  C   UNL     1      -7.191  -1.502 -33.887  1.00  0.00     0.014 A 
HETATM   33  C   UNL     1      -4.389  -1.579 -33.553  1.00  0.00     0.030 A 
HETATM   34  N   UNL     1      -4.876  -0.087 -31.591  1.00  0.00    -0.365 N 
HETATM   35  C   UNL     1      -5.006  -2.289 -34.586  1.00  0.00     0.002 A 
HETATM   36  C   UNL     1      -6.388  -2.257 -34.750  1.00  0.00     0.001 A 
HETATM   37  H   UNL     1      -3.936   0.017 -31.230  1.00  0.00     0.165 HD
HETATM   38  C   UNL     1      -5.999   0.475 -31.047  1.00  0.00     0.096 A 
ENDBRANCH  28  29
ENDBRANCH   1  28
TORSDOF 7
ENDMDL
MODEL 9
REMARK VINA RESULT:      -8.8      2.691      3.545
REMARK  7 active torsions:
REMARK  status: ('A' for Active; 'I' for Inactive)
REMARK    1  A    between atoms: C_9  and  C_10 
REMARK       I    between atoms: C_10  and  N_11 
REMARK    2  A    between atoms: N_11  and  C_12 
REMARK    3  A    between atoms: C_12  and  C_13 
REMARK    4  A    between atoms: C_12  and  C_22 
REMARK       I    between atoms: C_13  and  N_14 
REMARK    5  A    between atoms: N_14  and  C_15 
REMARK    6  A    between atoms: C_15  and  C_16 
REMARK    7  A    between atoms: C_22  and  C_23 
ROOT
HETATM    1  C   UNL     1      -8.905   2.812 -32.627  1.00  0.00     0.180 C 
ENDROOT
BRANCH   1   2
HETATM    2  N   UNL     1      -8.350   1.449 -32.761  1.00  0.00    -0.346 N 
HETATM    3  C   UNL     1      -7.339   1.169 -33.648  1.00  0.00     0.249 C 
HETATM    4  O   UNL     1      -6.933   1.938 -34.521  1.00  0.00    -0.271 OA
HETATM    5  H   UNL     1      -8.387   0.917 -31.900  1.00  0.00     0.163 HD
BRANCH   3   6
HETATM    6  C   UNL     1      -6.632  -0.178 -33.469  1.00  0.00     0.281 C 
HETATM    7  N   UNL     1      -5.139   0.022 -33.653  1.00  0.00    -0.058 N 
HETATM    8  C   UNL     1      -4.352  -1.180 -33.309  1.00  0.00     0.272 C 
HETATM    9  H   UNL     1      -4.972   0.300 -34.629  1.00  0.00     0.278 HD
HETATM   10  H   UNL     1      -4.861   0.848 -33.101  1.00  0.00     0.278 HD
HETATM   11  C   UNL     1      -4.921  -2.436 -33.909  1.00  0.00    -0.026 A 
HETATM   12  C   UNL     1      -6.231  -2.473 -34.434  1.00  0.00    -0.048 A 
HETATM   13  C   UNL     1      -4.151  -3.609 -33.901  1.00  0.00     0.009 A 
HETATM   14  C   UNL     1      -6.728  -3.670 -34.968  1.00  0.00     0.008 A 
HETATM   15  C   UNL     1      -7.097  -1.234 -34.471  1.00  0.00     0.082 C 
HETATM   16  C   UNL     1      -5.948  -4.825 -34.958  1.00  0.00     0.001 A 
HETATM   17  C   UNL     1      -4.664  -4.795 -34.423  1.00  0.00     0.001 A 
ENDBRANCH   3   6
ENDBRANCH   1   2
BRANCH   1  18
HETATM   18  C   UNL     1      -7.754   3.722 -32.137  1.00  0.00     0.241 C 
HETATM   19  N   UNL     1      -7.295   4.661 -33.022  1.00  0.00    -0.353 N 
HETATM   20  H   UNL     1      -7.696   4.778 -33.946  1.00  0.00     0.162 HD
HETATM   21  O   UNL     1      -7.342   3.662 -30.974  1.00  0.00    -0.271 OA
BRANCH  19  22
HETATM   22  C   UNL     1      -6.329   5.655 -32.613  1.00  0.00     0.187 C 
BRANCH  22  23
HETATM   23  C   UNL     1      -5.113   5.587 -33.463  1.00  0.00     0.070 A 
HETATM   24  O   UNL     1      -5.214   4.969 -34.680  1.00  0.00    -0.325 OA
HETATM   25  C   UNL     1      -3.986   5.029 -35.257  1.00  0.00     0.142 A 
HETATM   26  C   UNL     1      -3.098   5.685 -34.438  1.00  0.00     0.027 A 
HETATM   27  C   UNL     1      -3.825   6.049 -33.280  1.00  0.00     0.036 A 
ENDBRANCH  22  23
ENDBRANCH  19  22
ENDBRANCH   1  18
BRANCH   1  28
HETATM   28  C   UNL     1      -9.667   3.333 -33.857  1.00  0.00     0.075 C 
BRANCH  28  29
HETATM   29  C   UNL     1     -11.152   3.386 -33.626  1.00  0.00    -0.028 A 
HETATM   30  C   UNL     1     -12.071   2.286 -33.620  1.00  0.00    -0.002 A 
HETATM   31  C   UNL     1     -13.337   2.801 -33.331  1.00  0.00     0.042 A 
HETATM   32  C   UNL     1     -11.951   0.897 -33.841  1.00  0.00     0.014 A 
HETATM   33  C   UNL     1     -14.479   1.999 -33.234  1.00  0.00     0.030 A 
HETATM   34  N   UNL     1     -13.202   4.162 -33.205  1.00  0.00    -0.365 N 
HETATM   35  C   UNL     1     -14.330   0.626 -33.451  1.00  0.00     0.002 A 
HETATM   36  C   UNL     1     -13.086   0.081 -33.756  1.00  0.00     0.001 A 
HETATM   37  H   UNL     1     -13.968   4.799 -33.027  1.00  0.00     0.165 HD
HETATM   38  C   UNL     1     -11.894   4.526 -33.376  1.00  0.00     0.096 A 
ENDBRANCH  28  29
ENDBRANCH   1  28
TORSDOF 7
ENDMDL
MODEL 10
REMARK VINA RESULT:      -8.8      2.443      3.353
REMARK  7 active torsions:
REMARK  status: ('A' for Active; 'I' for Inactive)
REMARK    1  A    between atoms: C_9  and  C_10 
REMARK       I    between atoms: C_10  and  N_11 
REMARK    2  A    between atoms: N_11  and  C_12 
REMARK    3  A    between atoms: C_12  and  C_13 
REMARK    4  A    between atoms: C_12  and  C_22 
REMARK       I    between atoms: C_13  and  N_14 
REMARK    5  A    between atoms: N_14  and  C_15 
REMARK    6  A    between atoms: C_15  and  C_16 
REMARK    7  A    between atoms: C_22  and  C_23 
ROOT
HETATM    1  C   UNL     1      -8.427   2.907 -33.472  1.00  0.00     0.180 C 
ENDROOT
BRANCH   1   2
HETATM    2  N   UNL     1      -7.506   1.759 -33.607  1.00  0.00    -0.346 N 
HETATM    3  C   UNL     1      -6.896   1.195 -32.514  1.00  0.00     0.249 C 
HETATM    4  O   UNL     1      -6.896   1.674 -31.379  1.00  0.00    -0.271 OA
HETATM    5  H   UNL     1      -7.734   1.155 -34.388  1.00  0.00     0.163 HD
BRANCH   3   6
HETATM    6  C   UNL     1      -6.235  -0.171 -32.733  1.00  0.00     0.281 C 
HETATM    7  N   UNL     1      -4.847   0.041 -33.307  1.00  0.00    -0.058 N 
HETATM    8  C   UNL     1      -4.056  -1.205 -33.373  1.00  0.00     0.272 C 
HETATM    9  H   UNL     1      -4.949   0.459 -34.242  1.00  0.00     0.278 HD
HETATM   10  H   UNL     1      -4.383   0.774 -32.750  1.00  0.00     0.278 HD
HETATM   11  C   UNL     1      -4.834  -2.354 -33.953  1.00  0.00    -0.026 A 
HETATM   12  C   UNL     1      -6.239  -2.303 -34.080  1.00  0.00    -0.048 A 
HETATM   13  C   UNL     1      -4.153  -3.522 -34.328  1.00  0.00     0.009 A 
HETATM   14  C   UNL     1      -6.926  -3.404 -34.610  1.00  0.00     0.008 A 
HETATM   15  C   UNL     1      -7.017  -1.063 -33.696  1.00  0.00     0.082 C 
HETATM   16  C   UNL     1      -6.234  -4.554 -34.984  1.00  0.00     0.001 A 
HETATM   17  C   UNL     1      -4.852  -4.614 -34.840  1.00  0.00     0.001 A 
ENDBRANCH   3   6
ENDBRANCH   1   2
BRANCH   1  18
HETATM   18  C   UNL     1      -7.607   4.182 -33.781  1.00  0.00     0.241 C 
HETATM   19  N   UNL     1      -6.296   4.179 -33.383  1.00  0.00    -0.353 N 
HETATM   20  H   UNL     1      -5.868   3.381 -32.929  1.00  0.00     0.162 HD
HETATM   21  O   UNL     1      -8.090   5.109 -34.438  1.00  0.00    -0.271 OA
BRANCH  19  22
HETATM   22  C   UNL     1      -5.407   5.257 -33.755  1.00  0.00     0.187 C 
BRANCH  22  23
HETATM   23  C   UNL     1      -4.009   4.942 -33.367  1.00  0.00     0.070 A 
HETATM   24  O   UNL     1      -3.794   4.395 -32.132  1.00  0.00    -0.325 OA
HETATM   25  C   UNL     1      -2.454   4.207 -32.010  1.00  0.00     0.142 A 
HETATM   26  C   UNL     1      -1.803   4.615 -33.151  1.00  0.00     0.027 A 
HETATM   27  C   UNL     1      -2.806   5.088 -34.029  1.00  0.00     0.036 A 
ENDBRANCH  22  23
ENDBRANCH  19  22
ENDBRANCH   1  18
BRANCH   1  28
HETATM   28  C   UNL     1      -9.750   2.781 -34.245  1.00  0.00     0.075 C 
BRANCH  28  29
HETATM   29  C   UNL     1     -10.560   1.595 -33.798  1.00  0.00    -0.028 A 
HETATM   30  C   UNL     1     -11.955   1.359 -34.026  1.00  0.00    -0.002 A 
HETATM   31  C   UNL     1     -12.267   0.121 -33.461  1.00  0.00     0.042 A 
HETATM   32  C   UNL     1     -12.990   2.084 -34.654  1.00  0.00     0.014 A 
HETATM   33  C   UNL     1     -13.550  -0.435 -33.508  1.00  0.00     0.030 A 
HETATM   34  N   UNL     1     -11.119  -0.360 -32.878  1.00  0.00    -0.365 N 
HETATM   35  C   UNL     1     -14.554   0.302 -34.142  1.00  0.00     0.002 A 
HETATM   36  C   UNL     1     -14.282   1.546 -34.704  1.00  0.00     0.001 A 
HETATM   37  H   UNL     1     -11.059  -1.230 -32.364  1.00  0.00     0.165 HD
HETATM   38  C   UNL     1     -10.085   0.515 -33.077  1.00  0.00     0.096 A 
ENDBRANCH  28  29
ENDBRANCH   1  28
TORSDOF 7
ENDMDL
