MODEL 1
REMARK VINA RESULT:      -9.4      0.000      0.000
REMARK  8 active torsions:
REMARK  status: ('A' for Active; 'I' for Inactive)
REMARK    1  A    between atoms: C_2  and  C_3 
REMARK    2  A    between atoms: C_3  and  C_4 
REMARK       I    between atoms: C_4  and  N_5 
REMARK    3  A    between atoms: N_8  and  C_9 
REMARK    4  A    between atoms: C_12  and  N_13 
REMARK    5  A    between atoms: N_13  and  C_14 
REMARK    6  A    between atoms: C_14  and  N_15 
REMARK       I    between atoms: N_15  and  C_16 
REMARK    7  A    between atoms: C_16  and  C_17 
REMARK    8  A    between atoms: C_19  and  C_20 
ROOT
HETATM    1  N   UNL     1      -1.013   5.518 -31.580  1.00  0.00    -0.333 N 
HETATM    2  H   UNL     1      -0.284   4.811 -31.665  1.00  0.00     0.168 HD
ENDROOT
BRANCH   1   3
HETATM    3  C   UNL     1      -0.866   6.445 -30.528  1.00  0.00     0.034 A 
HETATM    4  C   UNL     1       0.381   6.867 -30.081  1.00  0.00     0.031 A 
HETATM    5  C   UNL     1       0.487   7.717 -28.980  1.00  0.00     0.026 A 
HETATM    6  C   UNL     1      -0.641   8.156 -28.271  1.00  0.00     0.010 A 
HETATM    7  C   UNL     1      -1.891   7.823 -28.812  1.00  0.00     0.026 A 
HETATM    8  C   UNL     1      -2.005   6.988 -29.938  1.00  0.00     0.031 A 
BRANCH   6   9
HETATM    9  N   UNL     1      -0.460   8.893 -27.084  1.00  0.00    -0.280 NA
HETATM   10  C   UNL     1       0.972   8.963 -26.687  1.00  0.00     0.115 C 
HETATM   11  C   UNL     1       1.183   9.976 -25.551  1.00  0.00     0.140 C 
HETATM   12  N   UNL     1       0.294   9.730 -24.413  1.00  0.00    -0.350 N 
HETATM   13  C   UNL     1       0.603   9.982 -23.087  1.00  0.00     0.219 C 
HETATM   14  C   UNL     1      -1.121   9.591 -24.785  1.00  0.00     0.140 C 
HETATM   15  O   UNL     1      -0.259   9.972 -22.204  1.00  0.00    -0.273 OA
HETATM   16  C   UNL     1      -1.339   8.585 -25.933  1.00  0.00     0.115 C 
BRANCH  13  17
HETATM   17  C   UNL     1       2.054  10.210 -22.695  1.00  0.00     0.103 C 
BRANCH  17  18
HETATM   18  C   UNL     1       2.804   8.900 -22.452  1.00  0.00     0.005 C 
HETATM   19  C   UNL     1       4.126   8.792 -23.193  1.00  0.00     0.005 C 
ENDBRANCH  17  18
ENDBRANCH  13  17
ENDBRANCH   6   9
ENDBRANCH   1   3
BRANCH   1  20
HETATM   20  C   UNL     1      -1.856   5.608 -32.663  1.00  0.00     0.179 C 
HETATM   21  S   UNL     1      -1.934   6.805 -33.836  1.00  0.00    -0.040 SA
BRANCH  20  22
HETATM   22  N   UNL     1      -2.741   4.572 -32.825  1.00  0.00    -0.298 N 
HETATM   23  C   UNL     1      -3.016   3.465 -32.033  1.00  0.00     0.281 C 
HETATM   24  O   UNL     1      -2.265   3.057 -31.150  1.00  0.00    -0.265 OA
HETATM   25  H   UNL     1      -3.402   4.726 -33.579  1.00  0.00     0.171 HD
BRANCH  23  26
HETATM   26  C   UNL     1      -4.263   2.837 -32.418  1.00  0.00     0.144 A 
HETATM   27  O   UNL     1      -4.208   1.534 -32.838  1.00  0.00    -0.304 OA
HETATM   28  C   UNL     1      -5.469   1.136 -33.169  1.00  0.00     0.086 A 
HETATM   29  C   UNL     1      -6.343   2.184 -32.952  1.00  0.00     0.041 A 
HETATM   30  C   UNL     1      -5.568   3.276 -32.472  1.00  0.00     0.046 A 
BRANCH  28  31
HETATM   31  C   UNL     1      -5.585  -0.241 -33.647  1.00  0.00    -0.002 A 
HETATM   32  C   UNL     1      -4.501  -1.125 -33.567  1.00  0.00     0.016 A 
HETATM   33  C   UNL     1      -4.613  -2.441 -34.035  1.00  0.00     0.024 A 
HETATM   34  C   UNL     1      -5.812  -2.885 -34.584  1.00  0.00     0.034 A 
HETATM   35 CL   UNL     1      -5.948  -4.499 -35.162  1.00  0.00    -0.084 Cl
HETATM   36  C   UNL     1      -6.903  -2.026 -34.670  1.00  0.00     0.024 A 
HETATM   37  C   UNL     1      -6.788  -0.713 -34.203  1.00  0.00     0.016 A 
ENDBRANCH  28  31
ENDBRANCH  23  26
ENDBRANCH  20  22
ENDBRANCH   1  20
TORSDOF 8
ENDMDL
MODEL 2
REMARK VINA RESULT:      -9.0      1.425      1.831
REMARK  8 active torsions:
REMARK  status: ('A' for Active; 'I' for Inactive)
REMARK    1  A    between atoms: C_2  and  C_3 
REMARK    2  A    between atoms: C_3  and  C_4 
REMARK       I    between atoms: C_4  and  N_5 
REMARK    3  A    between atoms: N_8  and  C_9 
REMARK    4  A    between atoms: C_12  and  N_13 
REMARK    5  A    between atoms: N_13  and  C_14 
REMARK    6  A    between atoms: C_14  and  N_15 
REMARK       I    between atoms: N_15  and  C_16 
REMARK    7  A    between atoms: C_16  and  C_17 
REMARK    8  A    between atoms: C_19  and  C_20 
ROOT
HETATM    1  N   UNL     1      -1.831   4.387 -32.158  1.00  0.00    -0.333 N 
HETATM    2  H   UNL     1      -1.333   3.500 -32.076  1.00  0.00     0.168 HD
ENDROOT
BRANCH   1   3
HETATM    3  C   UNL     1      -1.408   5.425 -31.304  1.00  0.00     0.034 A 
HETATM    4  C   UNL     1      -0.063   5.697 -31.078  1.00  0.00     0.031 A 
HETATM    5  C   UNL     1       0.315   6.675 -30.158  1.00  0.00     0.026 A 
HETATM    6  C   UNL     1      -0.629   7.396 -29.412  1.00  0.00     0.010 A 
HETATM    7  C   UNL     1      -1.976   7.196 -29.744  1.00  0.00     0.026 A 
HETATM    8  C   UNL     1      -2.364   6.231 -30.691  1.00  0.00     0.031 A 
BRANCH   6   9
HETATM    9  N   UNL     1      -0.181   8.264 -28.397  1.00  0.00    -0.280 NA
HETATM   10  C   UNL     1       1.176   7.897 -27.911  1.00  0.00     0.115 C 
HETATM   11  C   UNL     1       1.754   8.992 -27.001  1.00  0.00     0.140 C 
HETATM   12  N   UNL     1       0.842   9.349 -25.910  1.00  0.00    -0.350 N 
HETATM   13  C   UNL     1       1.230   9.763 -24.648  1.00  0.00     0.219 C 
HETATM   14  C   UNL     1      -0.524   9.652 -26.356  1.00  0.00     0.140 C 
HETATM   15  O   UNL     1       0.430  10.265 -23.853  1.00  0.00    -0.273 OA
HETATM   16  C   UNL     1      -1.106   8.563 -27.279  1.00  0.00     0.115 C 
BRANCH  13  17
HETATM   17  C   UNL     1       2.664   9.531 -24.199  1.00  0.00     0.103 C 
BRANCH  17  18
HETATM   18  C   UNL     1       2.819   9.614 -22.680  1.00  0.00     0.005 C 
HETATM   19  C   UNL     1       3.281   8.320 -22.029  1.00  0.00     0.005 C 
ENDBRANCH  17  18
ENDBRANCH  13  17
ENDBRANCH   6   9
ENDBRANCH   1   3
BRANCH   1  20
HETATM   20  C   UNL     1      -2.635   4.492 -33.269  1.00  0.00     0.179 C 
HETATM   21  S   UNL     1      -2.333   5.295 -34.711  1.00  0.00    -0.040 SA
BRANCH  20  22
HETATM   22  N   UNL     1      -3.840   3.838 -33.205  1.00  0.00    -0.298 N 
HETATM   23  C   UNL     1      -5.145   4.308 -33.257  1.00  0.00     0.281 C 
HETATM   24  O   UNL     1      -5.453   5.482 -33.068  1.00  0.00    -0.265 OA
HETATM   25  H   UNL     1      -3.750   2.830 -33.279  1.00  0.00     0.171 HD
BRANCH  23  26
HETATM   26  C   UNL     1      -6.083   3.234 -33.510  1.00  0.00     0.144 A 
HETATM   27  O   UNL     1      -5.572   1.969 -33.640  1.00  0.00    -0.304 OA
HETATM   28  C   UNL     1      -6.602   1.112 -33.890  1.00  0.00     0.086 A 
HETATM   29  C   UNL     1      -7.785   1.826 -33.912  1.00  0.00     0.041 A 
HETATM   30  C   UNL     1      -7.451   3.188 -33.671  1.00  0.00     0.046 A 
BRANCH  28  31
HETATM   31  C   UNL     1      -6.223  -0.289 -34.062  1.00  0.00    -0.002 A 
HETATM   32  C   UNL     1      -7.127  -1.220 -34.591  1.00  0.00     0.016 A 
HETATM   33  C   UNL     1      -6.763  -2.565 -34.745  1.00  0.00     0.024 A 
HETATM   34  C   UNL     1      -5.489  -2.988 -34.374  1.00  0.00     0.034 A 
HETATM   35 CL   UNL     1      -5.045  -4.639 -34.561  1.00  0.00    -0.084 Cl
HETATM   36  C   UNL     1      -4.575  -2.081 -33.851  1.00  0.00     0.024 A 
HETATM   37  C   UNL     1      -4.941  -0.740 -33.697  1.00  0.00     0.016 A 
ENDBRANCH  28  31
ENDBRANCH  23  26
ENDBRANCH  20  22
ENDBRANCH   1  20
TORSDOF 8
ENDMDL
MODEL 3
REMARK VINA RESULT:      -8.7      1.708      2.229
REMARK  8 active torsions:
REMARK  status: ('A' for Active; 'I' for Inactive)
REMARK    1  A    between atoms: C_2  and  C_3 
REMARK    2  A    between atoms: C_3  and  C_4 
REMARK       I    between atoms: C_4  and  N_5 
REMARK    3  A    between atoms: N_8  and  C_9 
REMARK    4  A    between atoms: C_12  and  N_13 
REMARK    5  A    between atoms: N_13  and  C_14 
REMARK    6  A    between atoms: C_14  and  N_15 
REMARK       I    between atoms: N_15  and  C_16 
REMARK    7  A    between atoms: C_16  and  C_17 
REMARK    8  A    between atoms: C_19  and  C_20 
ROOT
HETATM    1  N   UNL     1      -3.753   6.286 -32.631  1.00  0.00    -0.333 N 
HETATM    2  H   UNL     1      -3.654   6.541 -33.613  1.00  0.00     0.168 HD
ENDROOT
BRANCH   1   3
HETATM    3  C   UNL     1      -2.946   6.990 -31.716  1.00  0.00     0.034 A 
HETATM    4  C   UNL     1      -1.650   6.590 -31.410  1.00  0.00     0.031 A 
HETATM    5  C   UNL     1      -0.914   7.262 -30.433  1.00  0.00     0.026 A 
HETATM    6  C   UNL     1      -1.451   8.337 -29.710  1.00  0.00     0.010 A 
HETATM    7  C   UNL     1      -2.709   8.803 -30.119  1.00  0.00     0.026 A 
HETATM    8  C   UNL     1      -3.444   8.147 -31.122  1.00  0.00     0.031 A 
BRANCH   6   9
HETATM    9  N   UNL     1      -0.712   8.878 -28.640  1.00  0.00    -0.280 NA
HETATM   10  C   UNL     1       0.469   8.040 -28.300  1.00  0.00     0.115 C 
HETATM   11  C   UNL     1       1.400   8.767 -27.317  1.00  0.00     0.140 C 
HETATM   12  N   UNL     1       0.690   9.249 -26.129  1.00  0.00    -0.350 N 
HETATM   13  C   UNL     1       1.233   9.351 -24.860  1.00  0.00     0.219 C 
HETATM   14  C   UNL     1      -0.519  10.025 -26.436  1.00  0.00     0.140 C 
HETATM   15  O   UNL     1       0.666   9.973 -23.957  1.00  0.00    -0.273 OA
HETATM   16  C   UNL     1      -1.453   9.307 -27.430  1.00  0.00     0.115 C 
BRANCH  13  17
HETATM   17  C   UNL     1       2.529   8.620 -24.547  1.00  0.00     0.103 C 
BRANCH  17  18
HETATM   18  C   UNL     1       3.262   9.223 -23.349  1.00  0.00     0.005 C 
HETATM   19  C   UNL     1       3.641   8.215 -22.277  1.00  0.00     0.005 C 
ENDBRANCH  17  18
ENDBRANCH  13  17
ENDBRANCH   6   9
ENDBRANCH   1   3
BRANCH   1  20
HETATM   20  C   UNL     1      -4.846   5.499 -32.350  1.00  0.00     0.179 C 
HETATM   21  S   UNL     1      -6.422   5.971 -32.019  1.00  0.00    -0.040 SA
BRANCH  20  22
HETATM   22  N   UNL     1      -4.631   4.143 -32.361  1.00  0.00    -0.298 N 
HETATM   23  C   UNL     1      -3.504   3.394 -32.669  1.00  0.00     0.281 C 
HETATM   24  O   UNL     1      -2.544   3.835 -33.297  1.00  0.00    -0.265 OA
HETATM   25  H   UNL     1      -5.384   3.617 -31.932  1.00  0.00     0.171 HD
BRANCH  23  26
HETATM   26  C   UNL     1      -3.634   2.029 -32.202  1.00  0.00     0.144 A 
HETATM   27  O   UNL     1      -4.203   1.123 -33.057  1.00  0.00    -0.304 OA
HETATM   28  C   UNL     1      -4.251  -0.087 -32.432  1.00  0.00     0.086 A 
HETATM   29  C   UNL     1      -3.702   0.037 -31.170  1.00  0.00     0.041 A 
HETATM   30  C   UNL     1      -3.308   1.396 -31.022  1.00  0.00     0.046 A 
BRANCH  28  31
HETATM   31  C   UNL     1      -4.842  -1.172 -33.214  1.00  0.00    -0.002 A 
HETATM   32  C   UNL     1      -6.142  -1.066 -33.726  1.00  0.00     0.016 A 
HETATM   33  C   UNL     1      -6.709  -2.113 -34.466  1.00  0.00     0.024 A 
HETATM   34  C   UNL     1      -5.977  -3.273 -34.703  1.00  0.00     0.034 A 
HETATM   35 CL   UNL     1      -6.675  -4.558 -35.609  1.00  0.00    -0.084 Cl
HETATM   36  C   UNL     1      -4.684  -3.399 -34.207  1.00  0.00     0.024 A 
HETATM   37  C   UNL     1      -4.122  -2.354 -33.468  1.00  0.00     0.016 A 
ENDBRANCH  28  31
ENDBRANCH  23  26
ENDBRANCH  20  22
ENDBRANCH   1  20
TORSDOF 8
ENDMDL
MODEL 4
REMARK VINA RESULT:      -8.5     21.233     22.639
REMARK  8 active torsions:
REMARK  status: ('A' for Active; 'I' for Inactive)
REMARK    1  A    between atoms: C_2  and  C_3 
REMARK    2  A    between atoms: C_3  and  C_4 
REMARK       I    between atoms: C_4  and  N_5 
REMARK    3  A    between atoms: N_8  and  C_9 
REMARK    4  A    between atoms: C_12  and  N_13 
REMARK    5  A    between atoms: N_13  and  C_14 
REMARK    6  A    between atoms: C_14  and  N_15 
REMARK       I    between atoms: N_15  and  C_16 
REMARK    7  A    between atoms: C_16  and  C_17 
REMARK    8  A    between atoms: C_19  and  C_20 
ROOT
HETATM    1  N   UNL     1      -8.748 -13.646 -38.622  1.00  0.00    -0.333 N 
HETATM    2  H   UNL     1      -9.445 -12.927 -38.431  1.00  0.00     0.168 HD
ENDROOT
BRANCH   1   3
HETATM    3  C   UNL     1      -8.033 -14.137 -37.512  1.00  0.00     0.034 A 
HETATM    4  C   UNL     1      -7.906 -15.498 -37.255  1.00  0.00     0.031 A 
HETATM    5  C   UNL     1      -7.266 -15.943 -36.098  1.00  0.00     0.026 A 
HETATM    6  C   UNL     1      -6.753 -15.051 -35.145  1.00  0.00     0.010 A 
HETATM    7  C   UNL     1      -6.780 -13.689 -35.482  1.00  0.00     0.026 A 
HETATM    8  C   UNL     1      -7.399 -13.236 -36.660  1.00  0.00     0.031 A 
BRANCH   6   9
HETATM    9  N   UNL     1      -6.250 -15.559 -33.932  1.00  0.00    -0.280 NA
HETATM   10  C   UNL     1      -7.156 -16.578 -33.338  1.00  0.00     0.115 C 
HETATM   11  C   UNL     1      -6.479 -17.307 -32.166  1.00  0.00     0.140 C 
HETATM   12  N   UNL     1      -5.945 -16.377 -31.167  1.00  0.00    -0.350 N 
HETATM   13  C   UNL     1      -5.866 -16.624 -29.807  1.00  0.00     0.219 C 
HETATM   14  C   UNL     1      -5.098 -15.320 -31.736  1.00  0.00     0.140 C 
HETATM   15  O   UNL     1      -5.202 -15.907 -29.053  1.00  0.00    -0.273 OA
HETATM   16  C   UNL     1      -5.765 -14.593 -32.919  1.00  0.00     0.115 C 
BRANCH  13  17
HETATM   17  C   UNL     1      -6.672 -17.768 -29.213  1.00  0.00     0.103 C 
BRANCH  17  18
HETATM   18  C   UNL     1      -7.678 -17.288 -28.167  1.00  0.00     0.005 C 
HETATM   19  C   UNL     1      -9.115 -17.692 -28.451  1.00  0.00     0.005 C 
ENDBRANCH  17  18
ENDBRANCH  13  17
ENDBRANCH   6   9
ENDBRANCH   1   3
BRANCH   1  20
HETATM   20  C   UNL     1      -8.823 -14.198 -39.880  1.00  0.00     0.179 C 
HETATM   21  S   UNL     1     -10.146 -14.891 -40.644  1.00  0.00    -0.040 SA
BRANCH  20  22
HETATM   22  N   UNL     1      -7.670 -14.160 -40.625  1.00  0.00    -0.298 N 
HETATM   23  C   UNL     1      -6.724 -13.160 -40.804  1.00  0.00     0.281 C 
HETATM   24  O   UNL     1      -6.926 -11.978 -40.540  1.00  0.00    -0.265 OA
HETATM   25  H   UNL     1      -7.399 -15.069 -40.984  1.00  0.00     0.171 HD
BRANCH  23  26
HETATM   26  C   UNL     1      -5.505 -13.685 -41.384  1.00  0.00     0.144 A 
HETATM   27  O   UNL     1      -4.394 -13.723 -40.585  1.00  0.00    -0.304 OA
HETATM   28  C   UNL     1      -3.357 -14.227 -41.313  1.00  0.00     0.086 A 
HETATM   29  C   UNL     1      -3.806 -14.524 -42.586  1.00  0.00     0.041 A 
HETATM   30  C   UNL     1      -5.184 -14.174 -42.632  1.00  0.00     0.046 A 
BRANCH  28  31
HETATM   31  C   UNL     1      -2.084 -14.329 -40.602  1.00  0.00    -0.002 A 
HETATM   32  C   UNL     1      -1.801 -13.500 -39.508  1.00  0.00     0.016 A 
HETATM   33  C   UNL     1      -0.576 -13.595 -38.836  1.00  0.00     0.024 A 
HETATM   34  C   UNL     1       0.376 -14.522 -39.250  1.00  0.00     0.034 A 
HETATM   35 CL   UNL     1       1.881 -14.635 -38.425  1.00  0.00    -0.084 Cl
HETATM   36  C   UNL     1       0.115 -15.358 -40.330  1.00  0.00     0.024 A 
HETATM   37  C   UNL     1      -1.108 -15.260 -41.001  1.00  0.00     0.016 A 
ENDBRANCH  28  31
ENDBRANCH  23  26
ENDBRANCH  20  22
ENDBRANCH   1  20
TORSDOF 8
ENDMDL
MODEL 5
REMARK VINA RESULT:      -8.5      3.116      4.646
REMARK  8 active torsions:
REMARK  status: ('A' for Active; 'I' for Inactive)
REMARK    1  A    between atoms: C_2  and  C_3 
REMARK    2  A    between atoms: C_3  and  C_4 
REMARK       I    between atoms: C_4  and  N_5 
REMARK    3  A    between atoms: N_8  and  C_9 
REMARK    4  A    between atoms: C_12  and  N_13 
REMARK    5  A    between atoms: N_13  and  C_14 
REMARK    6  A    between atoms: C_14  and  N_15 
REMARK       I    between atoms: N_15  and  C_16 
REMARK    7  A    between atoms: C_16  and  C_17 
REMARK    8  A    between atoms: C_19  and  C_20 
ROOT
HETATM    1  N   UNL     1      -7.703   6.139 -33.468  1.00  0.00    -0.333 N 
HETATM    2  H   UNL     1      -7.998   6.725 -34.249  1.00  0.00     0.168 HD
ENDROOT
BRANCH   1   3
HETATM    3  C   UNL     1      -6.660   6.642 -32.666  1.00  0.00     0.034 A 
HETATM    4  C   UNL     1      -5.385   6.086 -32.673  1.00  0.00     0.031 A 
HETATM    5  C   UNL     1      -4.404   6.556 -31.799  1.00  0.00     0.026 A 
HETATM    6  C   UNL     1      -4.664   7.576 -30.873  1.00  0.00     0.010 A 
HETATM    7  C   UNL     1      -5.913   8.207 -30.967  1.00  0.00     0.026 A 
HETATM    8  C   UNL     1      -6.897   7.756 -31.863  1.00  0.00     0.031 A 
BRANCH   6   9
HETATM    9  N   UNL     1      -3.677   7.905 -29.922  1.00  0.00    -0.280 NA
HETATM   10  C   UNL     1      -2.539   6.949 -29.950  1.00  0.00     0.115 C 
HETATM   11  C   UNL     1      -1.363   7.461 -29.102  1.00  0.00     0.140 C 
HETATM   12  N   UNL     1      -1.772   7.812 -27.739  1.00  0.00    -0.350 N 
HETATM   13  C   UNL     1      -0.978   7.691 -26.611  1.00  0.00     0.219 C 
HETATM   14  C   UNL     1      -2.937   8.704 -27.681  1.00  0.00     0.140 C 
HETATM   15  O   UNL     1      -1.291   8.212 -25.537  1.00  0.00    -0.273 OA
HETATM   16  C   UNL     1      -4.116   8.203 -28.539  1.00  0.00     0.115 C 
BRANCH  13  17
HETATM   17  C   UNL     1       0.278   6.837 -26.676  1.00  0.00     0.103 C 
BRANCH  17  18
HETATM   18  C   UNL     1       1.554   7.669 -26.550  1.00  0.00     0.005 C 
HETATM   19  C   UNL     1       1.735   8.703 -27.649  1.00  0.00     0.005 C 
ENDBRANCH  17  18
ENDBRANCH  13  17
ENDBRANCH   6   9
ENDBRANCH   1   3
BRANCH   1  20
HETATM   20  C   UNL     1      -8.555   5.098 -33.178  1.00  0.00     0.179 C 
HETATM   21  S   UNL     1     -10.027   5.139 -32.375  1.00  0.00    -0.040 SA
BRANCH  20  22
HETATM   22  N   UNL     1      -8.164   3.859 -33.622  1.00  0.00    -0.298 N 
HETATM   23  C   UNL     1      -7.559   2.796 -32.965  1.00  0.00     0.281 C 
HETATM   24  O   UNL     1      -6.979   2.905 -31.887  1.00  0.00    -0.265 OA
HETATM   25  H   UNL     1      -8.512   3.640 -34.549  1.00  0.00     0.171 HD
BRANCH  23  26
HETATM   26  C   UNL     1      -7.659   1.574 -33.735  1.00  0.00     0.144 A 
HETATM   27  O   UNL     1      -6.712   0.609 -33.510  1.00  0.00    -0.304 OA
HETATM   28  C   UNL     1      -6.967  -0.444 -34.337  1.00  0.00     0.086 A 
HETATM   29  C   UNL     1      -8.089  -0.161 -35.092  1.00  0.00     0.041 A 
HETATM   30  C   UNL     1      -8.531   1.135 -34.707  1.00  0.00     0.046 A 
BRANCH  28  31
HETATM   31  C   UNL     1      -6.036  -1.566 -34.226  1.00  0.00    -0.002 A 
HETATM   32  C   UNL     1      -6.342  -2.814 -34.786  1.00  0.00     0.016 A 
HETATM   33  C   UNL     1      -5.452  -3.890 -34.669  1.00  0.00     0.024 A 
HETATM   34  C   UNL     1      -4.246  -3.725 -33.993  1.00  0.00     0.034 A 
HETATM   35 CL   UNL     1      -3.156  -5.047 -33.847  1.00  0.00    -0.084 Cl
HETATM   36  C   UNL     1      -3.920  -2.495 -33.432  1.00  0.00     0.024 A 
HETATM   37  C   UNL     1      -4.811  -1.424 -33.550  1.00  0.00     0.016 A 
ENDBRANCH  28  31
ENDBRANCH  23  26
ENDBRANCH  20  22
ENDBRANCH   1  20
TORSDOF 8
ENDMDL
MODEL 6
REMARK VINA RESULT:      -8.5      5.517     12.957
REMARK  8 active torsions:
REMARK  status: ('A' for Active; 'I' for Inactive)
REMARK    1  A    between atoms: C_2  and  C_3 
REMARK    2  A    between atoms: C_3  and  C_4 
REMARK       I    between atoms: C_4  and  N_5 
REMARK    3  A    between atoms: N_8  and  C_9 
REMARK    4  A    between atoms: C_12  and  N_13 
REMARK    5  A    between atoms: N_13  and  C_14 
REMARK    6  A    between atoms: C_14  and  N_15 
REMARK       I    between atoms: N_15  and  C_16 
REMARK    7  A    between atoms: C_16  and  C_17 
REMARK    8  A    between atoms: C_19  and  C_20 
ROOT
HETATM    1  N   UNL     1      -5.611   5.174 -29.723  1.00  0.00    -0.333 N 
HETATM    2  H   UNL     1      -5.594   5.099 -28.706  1.00  0.00     0.168 HD
ENDROOT
BRANCH   1   3
HETATM    3  C   UNL     1      -6.486   4.302 -30.401  1.00  0.00     0.034 A 
HETATM    4  C   UNL     1      -6.344   4.015 -31.755  1.00  0.00     0.031 A 
HETATM    5  C   UNL     1      -7.282   3.216 -32.410  1.00  0.00     0.026 A 
HETATM    6  C   UNL     1      -8.405   2.698 -31.749  1.00  0.00     0.010 A 
HETATM    7  C   UNL     1      -8.463   2.894 -30.362  1.00  0.00     0.026 A 
HETATM    8  C   UNL     1      -7.507   3.675 -29.690  1.00  0.00     0.031 A 
BRANCH   6   9
HETATM    9  N   UNL     1      -9.389   2.023 -32.498  1.00  0.00    -0.280 NA
HETATM   10  C   UNL     1     -10.580   2.877 -32.749  1.00  0.00     0.115 C 
HETATM   11  C   UNL     1     -11.521   2.229 -33.777  1.00  0.00     0.140 C 
HETATM   12  N   UNL     1     -11.880   0.855 -33.413  1.00  0.00    -0.350 N 
HETATM   13  C   UNL     1     -13.089   0.242 -33.698  1.00  0.00     0.219 C 
HETATM   14  C   UNL     1     -10.724   0.005 -33.096  1.00  0.00     0.140 C 
HETATM   15  O   UNL     1     -13.246  -0.975 -33.573  1.00  0.00    -0.273 OA
HETATM   16  C   UNL     1      -9.769   0.655 -32.075  1.00  0.00     0.115 C 
BRANCH  13  17
HETATM   17  C   UNL     1     -14.276   1.099 -34.108  1.00  0.00     0.103 C 
BRANCH  17  18
HETATM   18  C   UNL     1     -15.182   1.442 -32.926  1.00  0.00     0.005 C 
HETATM   19  C   UNL     1     -14.736   2.659 -32.131  1.00  0.00     0.005 C 
ENDBRANCH  17  18
ENDBRANCH  13  17
ENDBRANCH   6   9
ENDBRANCH   1   3
BRANCH   1  20
HETATM   20  C   UNL     1      -4.987   6.291 -30.226  1.00  0.00     0.179 C 
HETATM   21  S   UNL     1      -5.668   7.745 -30.712  1.00  0.00    -0.040 SA
BRANCH  20  22
HETATM   22  N   UNL     1      -3.619   6.223 -30.327  1.00  0.00    -0.298 N 
HETATM   23  C   UNL     1      -2.789   5.974 -31.412  1.00  0.00     0.281 C 
HETATM   24  O   UNL     1      -3.175   5.460 -32.459  1.00  0.00    -0.265 OA
HETATM   25  H   UNL     1      -3.141   6.554 -29.496  1.00  0.00     0.171 HD
BRANCH  23  26
HETATM   26  C   UNL     1      -1.420   6.350 -31.126  1.00  0.00     0.144 A 
HETATM   27  O   UNL     1      -1.122   6.705 -29.838  1.00  0.00    -0.304 OA
HETATM   28  C   UNL     1       0.199   7.039 -29.778  1.00  0.00     0.086 A 
HETATM   29  C   UNL     1       0.756   6.889 -31.034  1.00  0.00     0.041 A 
HETATM   30  C   UNL     1      -0.283   6.449 -31.899  1.00  0.00     0.046 A 
BRANCH  28  31
HETATM   31  C   UNL     1       0.682   7.452 -28.462  1.00  0.00    -0.002 A 
HETATM   32  C   UNL     1       1.461   8.607 -28.310  1.00  0.00     0.016 A 
HETATM   33  C   UNL     1       1.931   8.994 -27.048  1.00  0.00     0.024 A 
HETATM   34  C   UNL     1       1.621   8.230 -25.925  1.00  0.00     0.034 A 
HETATM   35 CL   UNL     1       2.201   8.704 -24.377  1.00  0.00    -0.084 Cl
HETATM   36  C   UNL     1       0.846   7.083 -26.052  1.00  0.00     0.024 A 
HETATM   37  C   UNL     1       0.380   6.698 -27.313  1.00  0.00     0.016 A 
ENDBRANCH  28  31
ENDBRANCH  23  26
ENDBRANCH  20  22
ENDBRANCH   1  20
TORSDOF 8
ENDMDL
MODEL 7
REMARK VINA RESULT:      -8.4      1.897      2.671
REMARK  8 active torsions:
REMARK  status: ('A' for Active; 'I' for Inactive)
REMARK    1  A    between atoms: C_2  and  C_3 
REMARK    2  A    between atoms: C_3  and  C_4 
REMARK       I    between atoms: C_4  and  N_5 
REMARK    3  A    between atoms: N_8  and  C_9 
REMARK    4  A    between atoms: C_12  and  N_13 
REMARK    5  A    between atoms: N_13  and  C_14 
REMARK    6  A    between atoms: C_14  and  N_15 
REMARK       I    between atoms: N_15  and  C_16 
REMARK    7  A    between atoms: C_16  and  C_17 
REMARK    8  A    between atoms: C_19  and  C_20 
ROOT
HETATM    1  N   UNL     1      -4.076   6.068 -33.354  1.00  0.00    -0.333 N 
HETATM    2  H   UNL     1      -3.802   6.235 -34.322  1.00  0.00     0.168 HD
ENDROOT
BRANCH   1   3
HETATM    3  C   UNL     1      -3.198   6.546 -32.361  1.00  0.00     0.034 A 
HETATM    4  C   UNL     1      -3.308   6.166 -31.028  1.00  0.00     0.031 A 
HETATM    5  C   UNL     1      -2.475   6.729 -30.061  1.00  0.00     0.026 A 
HETATM    6  C   UNL     1      -1.522   7.707 -30.382  1.00  0.00     0.010 A 
HETATM    7  C   UNL     1      -1.342   7.984 -31.745  1.00  0.00     0.026 A 
HETATM    8  C   UNL     1      -2.160   7.400 -32.728  1.00  0.00     0.031 A 
BRANCH   6   9
HETATM    9  N   UNL     1      -0.814   8.340 -29.342  1.00  0.00    -0.280 NA
HETATM   10  C   UNL     1       0.313   7.505 -28.848  1.00  0.00     0.115 C 
HETATM   11  C   UNL     1       1.226   8.305 -27.907  1.00  0.00     0.140 C 
HETATM   12  N   UNL     1       0.481   8.944 -26.819  1.00  0.00    -0.350 N 
HETATM   13  C   UNL     1       0.966   9.171 -25.542  1.00  0.00     0.219 C 
HETATM   14  C   UNL     1      -0.679   9.724 -27.274  1.00  0.00     0.140 C 
HETATM   15  O   UNL     1       0.382   9.912 -24.746  1.00  0.00    -0.273 OA
HETATM   16  C   UNL     1      -1.593   8.930 -28.228  1.00  0.00     0.115 C 
BRANCH  13  17
HETATM   17  C   UNL     1       2.214   8.435 -25.082  1.00  0.00     0.103 C 
BRANCH  17  18
HETATM   18  C   UNL     1       3.336   9.390 -24.677  1.00  0.00     0.005 C 
HETATM   19  C   UNL     1       3.215   9.931 -23.261  1.00  0.00     0.005 C 
ENDBRANCH  17  18
ENDBRANCH  13  17
ENDBRANCH   6   9
ENDBRANCH   1   3
BRANCH   1  20
HETATM   20  C   UNL     1      -5.378   5.654 -33.190  1.00  0.00     0.179 C 
HETATM   21  S   UNL     1      -6.703   6.540 -32.667  1.00  0.00    -0.040 SA
BRANCH  20  22
HETATM   22  N   UNL     1      -5.640   4.347 -33.518  1.00  0.00    -0.298 N 
HETATM   23  C   UNL     1      -5.897   3.235 -32.727  1.00  0.00     0.281 C 
HETATM   24  O   UNL     1      -5.631   3.177 -31.530  1.00  0.00    -0.265 OA
HETATM   25  H   UNL     1      -5.817   4.212 -34.508  1.00  0.00     0.171 HD
BRANCH  23  26
HETATM   26  C   UNL     1      -6.464   2.154 -33.506  1.00  0.00     0.144 A 
HETATM   27  O   UNL     1      -5.855   0.930 -33.420  1.00  0.00    -0.304 OA
HETATM   28  C   UNL     1      -6.520   0.060 -34.233  1.00  0.00     0.086 A 
HETATM   29  C   UNL     1      -7.570   0.725 -34.838  1.00  0.00     0.041 A 
HETATM   30  C   UNL     1      -7.532   2.069 -34.374  1.00  0.00     0.046 A 
BRANCH  28  31
HETATM   31  C   UNL     1      -5.989  -1.301 -34.261  1.00  0.00    -0.002 A 
HETATM   32  C   UNL     1      -4.701  -1.582 -33.784  1.00  0.00     0.016 A 
HETATM   33  C   UNL     1      -4.191  -2.886 -33.822  1.00  0.00     0.024 A 
HETATM   34  C   UNL     1      -4.967  -3.923 -34.335  1.00  0.00     0.034 A 
HETATM   35 CL   UNL     1      -4.339  -5.523 -34.384  1.00  0.00    -0.084 Cl
HETATM   36  C   UNL     1      -6.249  -3.668 -34.810  1.00  0.00     0.024 A 
HETATM   37  C   UNL     1      -6.754  -2.365 -34.772  1.00  0.00     0.016 A 
ENDBRANCH  28  31
ENDBRANCH  23  26
ENDBRANCH  20  22
ENDBRANCH   1  20
TORSDOF 8
ENDMDL
MODEL 8
REMARK VINA RESULT:      -8.4      1.867      2.337
REMARK  8 active torsions:
REMARK  status: ('A' for Active; 'I' for Inactive)
REMARK    1  A    between atoms: C_2  and  C_3 
REMARK    2  A    between atoms: C_3  and  C_4 
REMARK       I    between atoms: C_4  and  N_5 
REMARK    3  A    between atoms: N_8  and  C_9 
REMARK    4  A    between atoms: C_12  and  N_13 
REMARK    5  A    between atoms: N_13  and  C_14 
REMARK    6  A    between atoms: C_14  and  N_15 
REMARK       I    between atoms: N_15  and  C_16 
REMARK    7  A    between atoms: C_16  and  C_17 
REMARK    8  A    between atoms: C_19  and  C_20 
ROOT
HETATM    1  N   UNL     1      -0.453   5.383 -31.570  1.00  0.00    -0.333 N 
HETATM    2  H   UNL     1       0.445   4.944 -31.772  1.00  0.00     0.168 HD
ENDROOT
BRANCH   1   3
HETATM    3  C   UNL     1      -0.469   6.328 -30.525  1.00  0.00     0.034 A 
HETATM    4  C   UNL     1       0.699   6.815 -29.949  1.00  0.00     0.031 A 
HETATM    5  C   UNL     1       0.640   7.683 -28.857  1.00  0.00     0.026 A 
HETATM    6  C   UNL     1      -0.579   8.074 -28.286  1.00  0.00     0.010 A 
HETATM    7  C   UNL     1      -1.744   7.672 -28.956  1.00  0.00     0.026 A 
HETATM    8  C   UNL     1      -1.692   6.820 -30.073  1.00  0.00     0.031 A 
BRANCH   6   9
HETATM    9  N   UNL     1      -0.567   8.832 -27.099  1.00  0.00    -0.280 NA
HETATM   10  C   UNL     1       0.816   9.182 -26.678  1.00  0.00     0.115 C 
HETATM   11  C   UNL     1       0.804  10.217 -25.542  1.00  0.00     0.140 C 
HETATM   12  N   UNL     1      -0.039   9.802 -24.418  1.00  0.00    -0.350 N 
HETATM   13  C   UNL     1       0.192  10.110 -23.088  1.00  0.00     0.219 C 
HETATM   14  C   UNL     1      -1.392   9.387 -24.814  1.00  0.00     0.140 C 
HETATM   15  O   UNL     1      -0.667   9.931 -22.220  1.00  0.00    -0.273 OA
HETATM   16  C   UNL     1      -1.388   8.358 -25.961  1.00  0.00     0.115 C 
BRANCH  13  17
HETATM   17  C   UNL     1       1.563  10.619 -22.672  1.00  0.00     0.103 C 
BRANCH  17  18
HETATM   18  C   UNL     1       2.588   9.492 -22.547  1.00  0.00     0.005 C 
HETATM   19  C   UNL     1       3.811   9.661 -23.433  1.00  0.00     0.005 C 
ENDBRANCH  17  18
ENDBRANCH  13  17
ENDBRANCH   6   9
ENDBRANCH   1   3
BRANCH   1  20
HETATM   20  C   UNL     1      -1.420   5.176 -32.527  1.00  0.00     0.179 C 
HETATM   21  S   UNL     1      -1.755   6.088 -33.894  1.00  0.00    -0.040 SA
BRANCH  20  22
HETATM   22  N   UNL     1      -2.208   4.064 -32.358  1.00  0.00    -0.298 N 
HETATM   23  C   UNL     1      -3.492   3.916 -31.851  1.00  0.00     0.281 C 
HETATM   24  O   UNL     1      -4.054   4.766 -31.165  1.00  0.00    -0.265 OA
HETATM   25  H   UNL     1      -1.836   3.240 -32.816  1.00  0.00     0.171 HD
BRANCH  23  26
HETATM   26  C   UNL     1      -4.047   2.623 -32.193  1.00  0.00     0.144 A 
HETATM   27  O   UNL     1      -5.407   2.540 -32.334  1.00  0.00    -0.304 OA
HETATM   28  C   UNL     1      -5.731   1.251 -32.635  1.00  0.00     0.086 A 
HETATM   29  C   UNL     1      -4.572   0.500 -32.697  1.00  0.00     0.041 A 
HETATM   30  C   UNL     1      -3.492   1.380 -32.411  1.00  0.00     0.046 A 
BRANCH  28  31
HETATM   31  C   UNL     1      -7.158   0.988 -32.814  1.00  0.00    -0.002 A 
HETATM   32  C   UNL     1      -7.994   0.771 -31.711  1.00  0.00     0.016 A 
HETATM   33  C   UNL     1      -9.360   0.510 -31.886  1.00  0.00     0.024 A 
HETATM   34  C   UNL     1      -9.901   0.468 -33.168  1.00  0.00     0.034 A 
HETATM   35 CL   UNL     1     -11.576   0.145 -33.383  1.00  0.00    -0.084 Cl
HETATM   36  C   UNL     1      -9.090   0.685 -34.278  1.00  0.00     0.024 A 
HETATM   37  C   UNL     1      -7.728   0.944 -34.099  1.00  0.00     0.016 A 
ENDBRANCH  28  31
ENDBRANCH  23  26
ENDBRANCH  20  22
ENDBRANCH   1  20
TORSDOF 8
ENDMDL
MODEL 9
REMARK VINA RESULT:      -8.4      5.614     13.150
REMARK  8 active torsions:
REMARK  status: ('A' for Active; 'I' for Inactive)
REMARK    1  A    between atoms: C_2  and  C_3 
REMARK    2  A    between atoms: C_3  and  C_4 
REMARK       I    between atoms: C_4  and  N_5 
REMARK    3  A    between atoms: N_8  and  C_9 
REMARK    4  A    between atoms: C_12  and  N_13 
REMARK    5  A    between atoms: N_13  and  C_14 
REMARK    6  A    between atoms: C_14  and  N_15 
REMARK       I    between atoms: N_15  and  C_16 
REMARK    7  A    between atoms: C_16  and  C_17 
REMARK    8  A    between atoms: C_19  and  C_20 
ROOT
HETATM    1  N   UNL     1       1.835  10.917 -25.917  1.00  0.00    -0.333 N 
HETATM    2  H   UNL     1       2.520  11.539 -26.346  1.00  0.00     0.168 HD
ENDROOT
BRANCH   1   3
HETATM    3  C   UNL     1       1.128  10.066 -26.790  1.00  0.00     0.034 A 
HETATM    4  C   UNL     1      -0.202  10.290 -27.128  1.00  0.00     0.031 A 
HETATM    5  C   UNL     1      -0.893   9.377 -27.925  1.00  0.00     0.026 A 
HETATM    6  C   UNL     1      -0.293   8.197 -28.390  1.00  0.00     0.010 A 
HETATM    7  C   UNL     1       1.080   8.051 -28.144  1.00  0.00     0.026 A 
HETATM    8  C   UNL     1       1.789   8.982 -27.364  1.00  0.00     0.031 A 
BRANCH   6   9
HETATM    9  N   UNL     1      -1.084   7.248 -29.066  1.00  0.00    -0.280 NA
HETATM   10  C   UNL     1      -0.311   6.522 -30.109  1.00  0.00     0.115 C 
HETATM   11  C   UNL     1      -1.104   5.323 -30.653  1.00  0.00     0.140 C 
HETATM   12  N   UNL     1      -2.445   5.701 -31.107  1.00  0.00    -0.350 N 
HETATM   13  C   UNL     1      -3.134   5.106 -32.150  1.00  0.00     0.219 C 
HETATM   14  C   UNL     1      -3.207   6.478 -30.119  1.00  0.00     0.140 C 
HETATM   15  O   UNL     1      -4.337   5.310 -32.335  1.00  0.00    -0.273 OA
HETATM   16  C   UNL     1      -2.414   7.675 -29.560  1.00  0.00     0.115 C 
BRANCH  13  17
HETATM   17  C   UNL     1      -2.375   4.232 -33.136  1.00  0.00     0.103 C 
BRANCH  17  18
HETATM   18  C   UNL     1      -2.124   4.940 -34.466  1.00  0.00     0.005 C 
HETATM   19  C   UNL     1      -1.159   6.112 -34.377  1.00  0.00     0.005 C 
ENDBRANCH  17  18
ENDBRANCH  13  17
ENDBRANCH   6   9
ENDBRANCH   1   3
BRANCH   1  20
HETATM   20  C   UNL     1       1.920  10.827 -24.547  1.00  0.00     0.179 C 
HETATM   21  S   UNL     1       0.770  11.232 -23.395  1.00  0.00    -0.040 SA
BRANCH  20  22
HETATM   22  N   UNL     1       3.094  10.319 -24.048  1.00  0.00    -0.298 N 
HETATM   23  C   UNL     1       3.418   9.059 -23.564  1.00  0.00     0.281 C 
HETATM   24  O   UNL     1       2.582   8.229 -23.215  1.00  0.00    -0.265 OA
HETATM   25  H   UNL     1       3.889  10.932 -24.197  1.00  0.00     0.171 HD
BRANCH  23  26
HETATM   26  C   UNL     1       4.853   8.879 -23.480  1.00  0.00     0.144 A 
HETATM   27  O   UNL     1       5.312   7.818 -22.746  1.00  0.00    -0.304 OA
HETATM   28  C   UNL     1       6.674   7.832 -22.774  1.00  0.00     0.086 A 
HETATM   29  C   UNL     1       7.096   8.903 -23.539  1.00  0.00     0.041 A 
HETATM   30  C   UNL     1       5.927   9.576 -23.990  1.00  0.00     0.046 A 
BRANCH  28  31
HETATM   31  C   UNL     1       7.327   6.759 -22.026  1.00  0.00    -0.002 A 
HETATM   32  C   UNL     1       7.297   6.735 -20.625  1.00  0.00     0.016 A 
HETATM   33  C   UNL     1       7.932   5.710 -19.912  1.00  0.00     0.024 A 
HETATM   34  C   UNL     1       8.601   4.698 -20.594  1.00  0.00     0.034 A 
HETATM   35 CL   UNL     1       9.384   3.442 -19.717  1.00  0.00    -0.084 Cl
HETATM   36  C   UNL     1       8.641   4.699 -21.985  1.00  0.00     0.024 A 
HETATM   37  C   UNL     1       8.007   5.724 -22.694  1.00  0.00     0.016 A 
ENDBRANCH  28  31
ENDBRANCH  23  26
ENDBRANCH  20  22
ENDBRANCH   1  20
TORSDOF 8
ENDMDL
MODEL 10
REMARK VINA RESULT:      -8.4      5.498     11.184
REMARK  8 active torsions:
REMARK  status: ('A' for Active; 'I' for Inactive)
REMARK    1  A    between atoms: C_2  and  C_3 
REMARK    2  A    between atoms: C_3  and  C_4 
REMARK       I    between atoms: C_4  and  N_5 
REMARK    3  A    between atoms: N_8  and  C_9 
REMARK    4  A    between atoms: C_12  and  N_13 
REMARK    5  A    between atoms: N_13  and  C_14 
REMARK    6  A    between atoms: C_14  and  N_15 
REMARK       I    between atoms: N_15  and  C_16 
REMARK    7  A    between atoms: C_16  and  C_17 
REMARK    8  A    between atoms: C_19  and  C_20 
ROOT
HETATM    1  N   UNL     1      -7.848   5.688 -28.148  1.00  0.00    -0.333 N 
HETATM    2  H   UNL     1      -8.262   5.212 -27.347  1.00  0.00     0.168 HD
ENDROOT
BRANCH   1   3
HETATM    3  C   UNL     1      -7.321   4.864 -29.163  1.00  0.00     0.034 A 
HETATM    4  C   UNL     1      -8.135   4.141 -30.028  1.00  0.00     0.031 A 
HETATM    5  C   UNL     1      -7.575   3.269 -30.962  1.00  0.00     0.026 A 
HETATM    6  C   UNL     1      -6.190   3.067 -31.050  1.00  0.00     0.010 A 
HETATM    7  C   UNL     1      -5.383   3.895 -30.257  1.00  0.00     0.026 A 
HETATM    8  C   UNL     1      -5.940   4.796 -29.333  1.00  0.00     0.031 A 
BRANCH   6   9
HETATM    9  N   UNL     1      -5.697   2.067 -31.912  1.00  0.00    -0.280 NA
HETATM   10  C   UNL     1      -6.754   1.544 -32.818  1.00  0.00     0.115 C 
HETATM   11  C   UNL     1      -6.153   0.654 -33.916  1.00  0.00     0.140 C 
HETATM   12  N   UNL     1      -5.304  -0.408 -33.369  1.00  0.00    -0.350 N 
HETATM   13  C   UNL     1      -5.141  -1.667 -33.923  1.00  0.00     0.219 C 
HETATM   14  C   UNL     1      -4.292   0.073 -32.419  1.00  0.00     0.140 C 
HETATM   15  O   UNL     1      -4.246  -2.431 -33.551  1.00  0.00    -0.273 OA
HETATM   16  C   UNL     1      -4.886   0.977 -31.321  1.00  0.00     0.115 C 
BRANCH  13  17
HETATM   17  C   UNL     1      -6.133  -2.150 -34.969  1.00  0.00     0.103 C 
BRANCH  17  18
HETATM   18  C   UNL     1      -6.796  -3.470 -34.575  1.00  0.00     0.005 C 
HETATM   19  C   UNL     1      -6.522  -4.617 -35.535  1.00  0.00     0.005 C 
ENDBRANCH  17  18
ENDBRANCH  13  17
ENDBRANCH   6   9
ENDBRANCH   1   3
BRANCH   1  20
HETATM   20  C   UNL     1      -8.125   7.033 -28.221  1.00  0.00     0.179 C 
HETATM   21  S   UNL     1      -9.537   7.839 -27.806  1.00  0.00    -0.040 SA
BRANCH  20  22
HETATM   22  N   UNL     1      -7.106   7.834 -28.674  1.00  0.00    -0.298 N 
HETATM   23  C   UNL     1      -5.995   8.360 -28.030  1.00  0.00     0.281 C 
HETATM   24  O   UNL     1      -5.890   8.437 -26.808  1.00  0.00    -0.265 OA
HETATM   25  H   UNL     1      -7.095   7.932 -29.684  1.00  0.00     0.171 HD
BRANCH  23  26
HETATM   26  C   UNL     1      -5.014   8.846 -28.979  1.00  0.00     0.144 A 
HETATM   27  O   UNL     1      -4.556   7.960 -29.918  1.00  0.00    -0.304 OA
HETATM   28  C   UNL     1      -3.637   8.597 -30.698  1.00  0.00     0.086 A 
HETATM   29  C   UNL     1      -3.508   9.903 -30.264  1.00  0.00     0.041 A 
HETATM   30  C   UNL     1      -4.391  10.061 -29.160  1.00  0.00     0.046 A 
BRANCH  28  31
HETATM   31  C   UNL     1      -3.041   7.782 -31.755  1.00  0.00    -0.002 A 
HETATM   32  C   UNL     1      -3.728   6.685 -32.293  1.00  0.00     0.016 A 
HETATM   33  C   UNL     1      -3.149   5.901 -33.299  1.00  0.00     0.024 A 
HETATM   34  C   UNL     1      -1.880   6.210 -33.780  1.00  0.00     0.034 A 
HETATM   35 CL   UNL     1      -1.169   5.244 -35.013  1.00  0.00    -0.084 Cl
HETATM   36  C   UNL     1      -1.182   7.297 -33.264  1.00  0.00     0.024 A 
HETATM   37  C   UNL     1      -1.761   8.077 -32.259  1.00  0.00     0.016 A 
ENDBRANCH  28  31
ENDBRANCH  23  26
ENDBRANCH  20  22
ENDBRANCH   1  20
TORSDOF 8
ENDMDL
