MODEL 1
REMARK VINA RESULT:      -7.6      0.000      0.000
REMARK  11 active torsions:
REMARK  status: ('A' for Active; 'I' for Inactive)
REMARK    1  A    between atoms: C_2  and  N_3 
REMARK    2  A    between atoms: N_3  and  C_5 
REMARK    3  A    between atoms: N_3  and  C_32 
REMARK    4  A    between atoms: C_5  and  C_6 
REMARK    5  A    between atoms: N_9  and  C_10 
REMARK    6  A    between atoms: C_14  and  N_15 
REMARK    7  A    between atoms: C_16  and  C_17 
REMARK       I    between atoms: C_17  and  N_18 
REMARK    8  A    between atoms: N_18  and  N_19 
REMARK    9  A    between atoms: C_20  and  C_21 
REMARK   10  A    between atoms: C_25  and  O_26 
REMARK   11  A    between atoms: C_27  and  O_28 
ROOT
HETATM    1  C   UNL     1     -10.932   4.260 -32.199  1.00  0.00     0.112 A 
HETATM    2  N   UNL     1     -12.029   4.815 -31.620  1.00  0.00    -0.160 NA
HETATM    3  N   UNL     1     -13.092   4.137 -32.013  1.00  0.00     0.012 NA
HETATM    4  N   UNL     1     -12.706   3.132 -32.856  1.00  0.00    -0.207 N 
HETATM    5  C   UNL     1     -11.324   3.170 -32.956  1.00  0.00     0.153 A 
ENDROOT
BRANCH   5   6
HETATM    6  C   UNL     1     -10.464   2.362 -33.765  1.00  0.00     0.292 C 
HETATM    7  N   UNL     1     -10.268   1.071 -33.291  1.00  0.00    -0.242 N 
HETATM    8  H   UNL     1     -10.600   0.829 -32.362  1.00  0.00     0.192 HD
HETATM    9  O   UNL     1      -9.827   2.877 -34.680  1.00  0.00    -0.264 OA
BRANCH   7  10
HETATM   10  N   UNL     1      -9.222   0.285 -33.710  1.00  0.00    -0.184 NA
HETATM   11  C   UNL     1      -8.198   0.234 -32.913  1.00  0.00     0.150 C 
BRANCH  11  12
HETATM   12  C   UNL     1      -7.015  -0.603 -33.197  1.00  0.00    -0.013 A 
HETATM   13  C   UNL     1      -5.861  -0.386 -32.441  1.00  0.00     0.035 A 
HETATM   14  C   UNL     1      -4.727  -1.154 -32.693  1.00  0.00     0.047 A 
HETATM   15 BR   UNL     1      -3.163  -0.836 -31.670  1.00  0.00    -0.048 Br
HETATM   16  C   UNL     1      -4.749  -2.140 -33.684  1.00  0.00     0.116 A 
HETATM   17  C   UNL     1      -5.910  -2.369 -34.438  1.00  0.00     0.103 A 
HETATM   18  C   UNL     1      -7.045  -1.590 -34.192  1.00  0.00     0.052 A 
BRANCH  16  19
HETATM   19  O   UNL     1      -3.638  -2.902 -33.943  1.00  0.00    -0.357 OA
HETATM   20  H   UNL     1      -3.909  -3.837 -33.969  1.00  0.00     0.218 HD
ENDBRANCH  16  19
BRANCH  17  21
HETATM   21  O   UNL     1      -5.829  -3.363 -35.377  1.00  0.00    -0.353 OA
HETATM   22  C   UNL     1      -6.606  -4.535 -35.176  1.00  0.00     0.210 C 
ENDBRANCH  17  21
ENDBRANCH  11  12
ENDBRANCH   7  10
ENDBRANCH   5   6
BRANCH   1  23
HETATM   23  C   UNL     1      -9.547   4.773 -31.985  1.00  0.00     0.297 C 
BRANCH  23  24
HETATM   24  N   UNL     1      -8.414   3.776 -31.782  1.00  0.00    -0.066 N 
HETATM   25  H   UNL     1      -8.648   2.975 -32.381  1.00  0.00     0.280 HD
BRANCH  24  26
HETATM   26  C   UNL     1      -8.290   3.211 -30.378  1.00  0.00     0.231 C 
HETATM   27  C   UNL     1      -6.966   2.501 -30.163  1.00  0.00     0.034 C 
ENDBRANCH  24  26
BRANCH  24  28
HETATM   28  C   UNL     1      -7.069   4.288 -32.270  1.00  0.00     0.231 C 
HETATM   29  C   UNL     1      -6.686   3.650 -33.594  1.00  0.00     0.034 C 
ENDBRANCH  24  28
ENDBRANCH  23  24
ENDBRANCH   1  23
BRANCH   4  30
HETATM   30  C   UNL     1     -13.627   2.271 -33.490  1.00  0.00     0.225 A 
HETATM   31  N   UNL     1     -13.413   1.868 -34.743  1.00  0.00    -0.081 NA
HETATM   32  O   UNL     1     -14.505   1.043 -35.020  1.00  0.00    -0.103 OA
HETATM   33  N   UNL     1     -15.365   0.965 -33.931  1.00  0.00    -0.083 NA
HETATM   34  C   UNL     1     -14.821   1.728 -32.984  1.00  0.00     0.201 A 
BRANCH  34  35
HETATM   35  N   UNL     1     -15.357   1.923 -31.768  1.00  0.00    -0.379 N 
HETATM   36  H   UNL     1     -15.889   2.771 -31.587  1.00  0.00     0.158 HD
HETATM   37  H   UNL     1     -15.053   1.426 -30.934  1.00  0.00     0.158 HD
ENDBRANCH  34  35
ENDBRANCH   4  30
TORSDOF 11
ENDMDL
MODEL 2
REMARK VINA RESULT:      -7.6      3.973      8.301
REMARK  11 active torsions:
REMARK  status: ('A' for Active; 'I' for Inactive)
REMARK    1  A    between atoms: C_2  and  N_3 
REMARK    2  A    between atoms: N_3  and  C_5 
REMARK    3  A    between atoms: N_3  and  C_32 
REMARK    4  A    between atoms: C_5  and  C_6 
REMARK    5  A    between atoms: N_9  and  C_10 
REMARK    6  A    between atoms: C_14  and  N_15 
REMARK    7  A    between atoms: C_16  and  C_17 
REMARK       I    between atoms: C_17  and  N_18 
REMARK    8  A    between atoms: N_18  and  N_19 
REMARK    9  A    between atoms: C_20  and  C_21 
REMARK   10  A    between atoms: C_25  and  O_26 
REMARK   11  A    between atoms: C_27  and  O_28 
ROOT
HETATM    1  C   UNL     1      -4.090   0.973 -31.062  1.00  0.00     0.112 A 
HETATM    2  N   UNL     1      -2.744   0.785 -31.079  1.00  0.00    -0.160 NA
HETATM    3  N   UNL     1      -2.496  -0.367 -31.678  1.00  0.00     0.012 NA
HETATM    4  N   UNL     1      -3.674  -0.948 -32.056  1.00  0.00    -0.207 N 
HETATM    5  C   UNL     1      -4.703  -0.087 -31.706  1.00  0.00     0.153 A 
ENDROOT
BRANCH   5   6
HETATM    6  C   UNL     1      -6.115  -0.281 -31.840  1.00  0.00     0.292 C 
HETATM    7  N   UNL     1      -6.617  -0.018 -33.108  1.00  0.00    -0.242 N 
HETATM    8  H   UNL     1      -6.016   0.426 -33.796  1.00  0.00     0.192 HD
HETATM    9  O   UNL     1      -6.801  -0.473 -30.839  1.00  0.00    -0.264 OA
BRANCH   7  10
HETATM   10  N   UNL     1      -7.954   0.204 -33.337  1.00  0.00    -0.184 NA
HETATM   11  C   UNL     1      -8.286   1.433 -33.592  1.00  0.00     0.150 C 
BRANCH  11  12
HETATM   12  C   UNL     1      -9.675   1.827 -33.907  1.00  0.00    -0.013 A 
HETATM   13  C   UNL     1     -10.689   0.893 -33.682  1.00  0.00     0.035 A 
HETATM   14  C   UNL     1     -12.007   1.234 -33.980  1.00  0.00     0.047 A 
HETATM   15 BR   UNL     1     -13.370  -0.050 -33.685  1.00  0.00    -0.048 Br
HETATM   16  C   UNL     1     -12.310   2.501 -34.485  1.00  0.00     0.116 A 
HETATM   17  C   UNL     1     -11.295   3.446 -34.702  1.00  0.00     0.103 A 
HETATM   18  C   UNL     1      -9.972   3.100 -34.414  1.00  0.00     0.052 A 
BRANCH  16  19
HETATM   19  O   UNL     1     -13.604   2.848 -34.783  1.00  0.00    -0.357 OA
HETATM   20  H   UNL     1     -14.012   3.221 -33.982  1.00  0.00     0.218 HD
ENDBRANCH  16  19
BRANCH  17  21
HETATM   21  O   UNL     1     -11.701   4.660 -35.191  1.00  0.00    -0.353 OA
HETATM   22  C   UNL     1     -10.731   5.690 -35.306  1.00  0.00     0.210 C 
ENDBRANCH  17  21
ENDBRANCH  11  12
ENDBRANCH   7  10
ENDBRANCH   5   6
BRANCH   1  23
HETATM   23  C   UNL     1      -4.739   2.172 -30.454  1.00  0.00     0.297 C 
BRANCH  23  24
HETATM   24  N   UNL     1      -5.090   3.353 -31.350  1.00  0.00    -0.066 N 
HETATM   25  H   UNL     1      -4.533   4.139 -30.992  1.00  0.00     0.280 HD
BRANCH  24  26
HETATM   26  C   UNL     1      -6.535   3.813 -31.281  1.00  0.00     0.231 C 
HETATM   27  C   UNL     1      -7.361   2.961 -30.335  1.00  0.00     0.034 C 
ENDBRANCH  24  26
BRANCH  24  28
HETATM   28  C   UNL     1      -4.662   3.157 -32.795  1.00  0.00     0.231 C 
HETATM   29  C   UNL     1      -5.604   3.872 -33.748  1.00  0.00     0.034 C 
ENDBRANCH  24  28
ENDBRANCH  23  24
ENDBRANCH   1  23
BRANCH   4  30
HETATM   30  C   UNL     1      -3.738  -2.218 -32.668  1.00  0.00     0.225 A 
HETATM   31  N   UNL     1      -4.433  -2.385 -33.793  1.00  0.00    -0.081 NA
HETATM   32  O   UNL     1      -4.262  -3.737 -34.095  1.00  0.00    -0.103 OA
HETATM   33  N   UNL     1      -3.471  -4.369 -33.142  1.00  0.00    -0.083 NA
HETATM   34  C   UNL     1      -3.148  -3.426 -32.257  1.00  0.00     0.201 A 
BRANCH  34  35
HETATM   35  N   UNL     1      -2.390  -3.638 -31.168  1.00  0.00    -0.379 N 
HETATM   36  H   UNL     1      -1.900  -2.855 -30.742  1.00  0.00     0.158 HD
HETATM   37  H   UNL     1      -2.049  -4.555 -30.891  1.00  0.00     0.158 HD
ENDBRANCH  34  35
ENDBRANCH   4  30
TORSDOF 11
ENDMDL
MODEL 3
REMARK VINA RESULT:      -7.6      1.947      2.729
REMARK  11 active torsions:
REMARK  status: ('A' for Active; 'I' for Inactive)
REMARK    1  A    between atoms: C_2  and  N_3 
REMARK    2  A    between atoms: N_3  and  C_5 
REMARK    3  A    between atoms: N_3  and  C_32 
REMARK    4  A    between atoms: C_5  and  C_6 
REMARK    5  A    between atoms: N_9  and  C_10 
REMARK    6  A    between atoms: C_14  and  N_15 
REMARK    7  A    between atoms: C_16  and  C_17 
REMARK       I    between atoms: C_17  and  N_18 
REMARK    8  A    between atoms: N_18  and  N_19 
REMARK    9  A    between atoms: C_20  and  C_21 
REMARK   10  A    between atoms: C_25  and  O_26 
REMARK   11  A    between atoms: C_27  and  O_28 
ROOT
HETATM    1  C   UNL     1     -10.642   4.910 -34.222  1.00  0.00     0.112 A 
HETATM    2  N   UNL     1     -11.785   5.537 -34.608  1.00  0.00    -0.160 NA
HETATM    3  N   UNL     1     -12.766   4.652 -34.595  1.00  0.00     0.012 NA
HETATM    4  N   UNL     1     -12.279   3.435 -34.205  1.00  0.00    -0.207 N 
HETATM    5  C   UNL     1     -10.930   3.590 -33.924  1.00  0.00     0.153 A 
ENDROOT
BRANCH   5   6
HETATM    6  C   UNL     1      -9.977   2.593 -33.540  1.00  0.00     0.292 C 
HETATM    7  N   UNL     1      -9.242   2.060 -34.591  1.00  0.00    -0.242 N 
HETATM    8  H   UNL     1      -9.512   2.279 -35.545  1.00  0.00     0.192 HD
HETATM    9  O   UNL     1      -9.991   2.147 -32.396  1.00  0.00    -0.264 OA
BRANCH   7  10
HETATM   10  N   UNL     1      -8.561   0.871 -34.483  1.00  0.00    -0.184 NA
HETATM   11  C   UNL     1      -7.277   0.969 -34.316  1.00  0.00     0.150 C 
BRANCH  11  12
HETATM   12  C   UNL     1      -6.411  -0.214 -34.136  1.00  0.00    -0.013 A 
HETATM   13  C   UNL     1      -6.825  -1.423 -34.701  1.00  0.00     0.035 A 
HETATM   14  C   UNL     1      -6.033  -2.557 -34.539  1.00  0.00     0.047 A 
HETATM   15 BR   UNL     1      -6.617  -4.194 -35.297  1.00  0.00    -0.048 Br
HETATM   16  C   UNL     1      -4.831  -2.483 -33.829  1.00  0.00     0.116 A 
HETATM   17  C   UNL     1      -4.406  -1.267 -33.270  1.00  0.00     0.103 A 
HETATM   18  C   UNL     1      -5.207  -0.131 -33.424  1.00  0.00     0.052 A 
BRANCH  16  19
HETATM   19  O   UNL     1      -4.043  -3.593 -33.661  1.00  0.00    -0.357 OA
HETATM   20  H   UNL     1      -3.175  -3.415 -34.066  1.00  0.00     0.218 HD
ENDBRANCH  16  19
BRANCH  17  21
HETATM   21  O   UNL     1      -3.210  -1.301 -32.603  1.00  0.00    -0.353 OA
HETATM   22  C   UNL     1      -2.999  -0.355 -31.565  1.00  0.00     0.210 C 
ENDBRANCH  17  21
ENDBRANCH  11  12
ENDBRANCH   7  10
ENDBRANCH   5   6
BRANCH   1  23
HETATM   23  C   UNL     1      -9.323   5.602 -34.126  1.00  0.00     0.297 C 
BRANCH  23  24
HETATM   24  N   UNL     1      -8.776   5.956 -32.750  1.00  0.00    -0.066 N 
HETATM   25  H   UNL     1      -8.445   6.925 -32.831  1.00  0.00     0.280 HD
BRANCH  24  26
HETATM   26  C   UNL     1      -7.568   5.150 -32.305  1.00  0.00     0.231 C 
HETATM   27  C   UNL     1      -6.271   5.711 -32.861  1.00  0.00     0.034 C 
ENDBRANCH  24  26
BRANCH  24  28
HETATM   28  C   UNL     1      -9.840   5.963 -31.665  1.00  0.00     0.231 C 
HETATM   29  C   UNL     1      -9.418   5.115 -30.477  1.00  0.00     0.034 C 
ENDBRANCH  24  28
ENDBRANCH  23  24
ENDBRANCH   1  23
BRANCH   4  30
HETATM   30  C   UNL     1     -13.078   2.273 -34.153  1.00  0.00     0.225 A 
HETATM   31  N   UNL     1     -13.133   1.451 -35.201  1.00  0.00    -0.081 NA
HETATM   32  O   UNL     1     -13.997   0.436 -34.785  1.00  0.00    -0.103 OA
HETATM   33  N   UNL     1     -14.455   0.665 -33.493  1.00  0.00    -0.083 NA
HETATM   34  C   UNL     1     -13.887   1.805 -33.103  1.00  0.00     0.201 A 
BRANCH  34  35
HETATM   35  N   UNL     1     -14.083   2.378 -31.904  1.00  0.00    -0.379 N 
HETATM   36  H   UNL     1     -14.132   3.391 -31.837  1.00  0.00     0.158 HD
HETATM   37  H   UNL     1     -13.921   1.901 -31.020  1.00  0.00     0.158 HD
ENDBRANCH  34  35
ENDBRANCH   4  30
TORSDOF 11
ENDMDL
MODEL 4
REMARK VINA RESULT:      -7.5      4.859      9.254
REMARK  11 active torsions:
REMARK  status: ('A' for Active; 'I' for Inactive)
REMARK    1  A    between atoms: C_2  and  N_3 
REMARK    2  A    between atoms: N_3  and  C_5 
REMARK    3  A    between atoms: N_3  and  C_32 
REMARK    4  A    between atoms: C_5  and  C_6 
REMARK    5  A    between atoms: N_9  and  C_10 
REMARK    6  A    between atoms: C_14  and  N_15 
REMARK    7  A    between atoms: C_16  and  C_17 
REMARK       I    between atoms: C_17  and  N_18 
REMARK    8  A    between atoms: N_18  and  N_19 
REMARK    9  A    between atoms: C_20  and  C_21 
REMARK   10  A    between atoms: C_25  and  O_26 
REMARK   11  A    between atoms: C_27  and  O_28 
ROOT
HETATM    1  C   UNL     1      -4.311   2.899 -32.358  1.00  0.00     0.112 A 
HETATM    2  N   UNL     1      -3.159   2.647 -31.681  1.00  0.00    -0.160 NA
HETATM    3  N   UNL     1      -2.317   3.638 -31.915  1.00  0.00     0.012 NA
HETATM    4  N   UNL     1      -2.903   4.548 -32.750  1.00  0.00    -0.207 N 
HETATM    5  C   UNL     1      -4.193   4.112 -33.012  1.00  0.00     0.153 A 
ENDROOT
BRANCH   5   6
HETATM    6  C   UNL     1      -5.173   4.693 -33.879  1.00  0.00     0.292 C 
HETATM    7  N   UNL     1      -6.289   5.205 -33.229  1.00  0.00    -0.242 N 
HETATM    8  H   UNL     1      -6.419   5.011 -32.241  1.00  0.00     0.192 HD
HETATM    9  O   UNL     1      -5.074   4.547 -35.094  1.00  0.00    -0.264 OA
BRANCH   7  10
HETATM   10  N   UNL     1      -7.468   5.464 -33.886  1.00  0.00    -0.184 NA
HETATM   11  C   UNL     1      -8.391   4.558 -33.767  1.00  0.00     0.150 C 
BRANCH  11  12
HETATM   12  C   UNL     1      -9.729   4.709 -34.373  1.00  0.00    -0.013 A 
HETATM   13  C   UNL     1     -10.246   6.000 -34.509  1.00  0.00     0.035 A 
HETATM   14  C   UNL     1     -11.510   6.172 -35.068  1.00  0.00     0.047 A 
HETATM   15 BR   UNL     1     -12.205   7.928 -35.230  1.00  0.00    -0.048 Br
HETATM   16  C   UNL     1     -12.247   5.065 -35.499  1.00  0.00     0.116 A 
HETATM   17  C   UNL     1     -11.727   3.767 -35.374  1.00  0.00     0.103 A 
HETATM   18  C   UNL     1     -10.462   3.594 -34.803  1.00  0.00     0.052 A 
BRANCH  16  19
HETATM   19  O   UNL     1     -13.494   5.221 -36.050  1.00  0.00    -0.357 OA
HETATM   20  H   UNL     1     -14.049   4.473 -35.766  1.00  0.00     0.218 HD
ENDBRANCH  16  19
BRANCH  17  21
HETATM   21  O   UNL     1     -12.526   2.755 -35.836  1.00  0.00    -0.353 OA
HETATM   22  C   UNL     1     -13.077   1.855 -34.885  1.00  0.00     0.210 C 
ENDBRANCH  17  21
ENDBRANCH  11  12
ENDBRANCH   7  10
ENDBRANCH   5   6
BRANCH   1  23
HETATM   23  C   UNL     1      -5.490   1.985 -32.332  1.00  0.00     0.297 C 
BRANCH  23  24
HETATM   24  N   UNL     1      -5.698   1.019 -33.490  1.00  0.00    -0.066 N 
HETATM   25  H   UNL     1      -4.846   1.090 -34.060  1.00  0.00     0.280 HD
BRANCH  24  26
HETATM   26  C   UNL     1      -6.843   1.366 -34.427  1.00  0.00     0.231 C 
HETATM   27  C   UNL     1      -7.236   0.192 -35.306  1.00  0.00     0.034 C 
ENDBRANCH  24  26
BRANCH  24  28
HETATM   28  C   UNL     1      -5.791  -0.433 -33.051  1.00  0.00     0.231 C 
HETATM   29  C   UNL     1      -4.435  -1.114 -33.116  1.00  0.00     0.034 C 
ENDBRANCH  24  28
ENDBRANCH  23  24
ENDBRANCH   1  23
BRANCH   4  30
HETATM   30  C   UNL     1      -2.227   5.690 -33.231  1.00  0.00     0.225 A 
HETATM   31  N   UNL     1      -1.279   5.564 -34.160  1.00  0.00    -0.081 NA
HETATM   32  O   UNL     1      -0.855   6.875 -34.384  1.00  0.00    -0.103 OA
HETATM   33  N   UNL     1      -1.550   7.772 -33.581  1.00  0.00    -0.083 NA
HETATM   34  C   UNL     1      -2.398   7.036 -32.866  1.00  0.00     0.201 A 
BRANCH  34  35
HETATM   35  N   UNL     1      -3.253   7.534 -31.957  1.00  0.00    -0.379 N 
HETATM   36  H   UNL     1      -3.279   7.132 -31.023  1.00  0.00     0.158 HD
HETATM   37  H   UNL     1      -4.063   8.100 -32.198  1.00  0.00     0.158 HD
ENDBRANCH  34  35
ENDBRANCH   4  30
TORSDOF 11
ENDMDL
MODEL 5
REMARK VINA RESULT:      -7.4      4.067      8.219
REMARK  11 active torsions:
REMARK  status: ('A' for Active; 'I' for Inactive)
REMARK    1  A    between atoms: C_2  and  N_3 
REMARK    2  A    between atoms: N_3  and  C_5 
REMARK    3  A    between atoms: N_3  and  C_32 
REMARK    4  A    between atoms: C_5  and  C_6 
REMARK    5  A    between atoms: N_9  and  C_10 
REMARK    6  A    between atoms: C_14  and  N_15 
REMARK    7  A    between atoms: C_16  and  C_17 
REMARK       I    between atoms: C_17  and  N_18 
REMARK    8  A    between atoms: N_18  and  N_19 
REMARK    9  A    between atoms: C_20  and  C_21 
REMARK   10  A    between atoms: C_25  and  O_26 
REMARK   11  A    between atoms: C_27  and  O_28 
ROOT
HETATM    1  C   UNL     1      -4.115   1.034 -31.159  1.00  0.00     0.112 A 
HETATM    2  N   UNL     1      -2.783   0.770 -31.087  1.00  0.00    -0.160 NA
HETATM    3  N   UNL     1      -2.558  -0.388 -31.682  1.00  0.00     0.012 NA
HETATM    4  N   UNL     1      -3.738  -0.899 -32.147  1.00  0.00    -0.207 N 
HETATM    5  C   UNL     1      -4.740   0.016 -31.857  1.00  0.00     0.153 A 
ENDROOT
BRANCH   5   6
HETATM    6  C   UNL     1      -6.147  -0.097 -32.089  1.00  0.00     0.292 C 
HETATM    7  N   UNL     1      -6.552   0.249 -33.371  1.00  0.00    -0.242 N 
HETATM    8  H   UNL     1      -5.886   0.691 -33.998  1.00  0.00     0.192 HD
HETATM    9  O   UNL     1      -6.906  -0.298 -31.144  1.00  0.00    -0.264 OA
BRANCH   7  10
HETATM   10  N   UNL     1      -7.858   0.551 -33.674  1.00  0.00    -0.184 NA
HETATM   11  C   UNL     1      -8.131   1.815 -33.796  1.00  0.00     0.150 C 
BRANCH  11  12
HETATM   12  C   UNL     1      -9.476   2.300 -34.166  1.00  0.00    -0.013 A 
HETATM   13  C   UNL     1      -9.679   3.681 -34.239  1.00  0.00     0.035 A 
HETATM   14  C   UNL     1     -10.940   4.167 -34.576  1.00  0.00     0.047 A 
HETATM   15 BR   UNL     1     -11.203   6.043 -34.654  1.00  0.00    -0.048 Br
HETATM   16  C   UNL     1     -11.987   3.283 -34.849  1.00  0.00     0.116 A 
HETATM   17  C   UNL     1     -11.785   1.895 -34.788  1.00  0.00     0.103 A 
HETATM   18  C   UNL     1     -10.522   1.407 -34.440  1.00  0.00     0.052 A 
BRANCH  16  19
HETATM   19  O   UNL     1     -13.234   3.749 -35.181  1.00  0.00    -0.357 OA
HETATM   20  H   UNL     1     -13.640   4.130 -34.382  1.00  0.00     0.218 HD
ENDBRANCH  16  19
BRANCH  17  21
HETATM   21  O   UNL     1     -12.873   1.118 -35.083  1.00  0.00    -0.353 OA
HETATM   22  C   UNL     1     -13.433   0.332 -34.042  1.00  0.00     0.210 C 
ENDBRANCH  17  21
ENDBRANCH  11  12
ENDBRANCH   7  10
ENDBRANCH   5   6
BRANCH   1  23
HETATM   23  C   UNL     1      -4.736   2.262 -30.582  1.00  0.00     0.297 C 
BRANCH  23  24
HETATM   24  N   UNL     1      -4.925   3.481 -31.475  1.00  0.00    -0.066 N 
HETATM   25  H   UNL     1      -4.761   3.144 -32.431  1.00  0.00     0.280 HD
BRANCH  24  26
HETATM   26  C   UNL     1      -3.923   4.603 -31.262  1.00  0.00     0.231 C 
HETATM   27  C   UNL     1      -2.596   4.320 -31.942  1.00  0.00     0.034 C 
ENDBRANCH  24  26
BRANCH  24  28
HETATM   28  C   UNL     1      -6.344   4.024 -31.456  1.00  0.00     0.231 C 
HETATM   29  C   UNL     1      -7.214   3.255 -30.477  1.00  0.00     0.034 C 
ENDBRANCH  24  28
ENDBRANCH  23  24
ENDBRANCH   1  23
BRANCH   4  30
HETATM   30  C   UNL     1      -3.830  -2.158 -32.778  1.00  0.00     0.225 A 
HETATM   31  N   UNL     1      -4.522  -2.290 -33.910  1.00  0.00    -0.081 NA
HETATM   32  O   UNL     1      -4.383  -3.642 -34.230  1.00  0.00    -0.103 OA
HETATM   33  N   UNL     1      -3.616  -4.307 -33.282  1.00  0.00    -0.083 NA
HETATM   34  C   UNL     1      -3.275  -3.386 -32.382  1.00  0.00     0.201 A 
BRANCH  34  35
HETATM   35  N   UNL     1      -2.530  -3.633 -31.291  1.00  0.00    -0.379 N 
HETATM   36  H   UNL     1      -1.920  -2.904 -30.928  1.00  0.00     0.158 HD
HETATM   37  H   UNL     1      -2.320  -4.569 -30.955  1.00  0.00     0.158 HD
ENDBRANCH  34  35
ENDBRANCH   4  30
TORSDOF 11
ENDMDL
MODEL 6
REMARK VINA RESULT:      -7.3      4.854      9.480
REMARK  11 active torsions:
REMARK  status: ('A' for Active; 'I' for Inactive)
REMARK    1  A    between atoms: C_2  and  N_3 
REMARK    2  A    between atoms: N_3  and  C_5 
REMARK    3  A    between atoms: N_3  and  C_32 
REMARK    4  A    between atoms: C_5  and  C_6 
REMARK    5  A    between atoms: N_9  and  C_10 
REMARK    6  A    between atoms: C_14  and  N_15 
REMARK    7  A    between atoms: C_16  and  C_17 
REMARK       I    between atoms: C_17  and  N_18 
REMARK    8  A    between atoms: N_18  and  N_19 
REMARK    9  A    between atoms: C_20  and  C_21 
REMARK   10  A    between atoms: C_25  and  O_26 
REMARK   11  A    between atoms: C_27  and  O_28 
ROOT
HETATM    1  C   UNL     1      -4.172   2.990 -32.288  1.00  0.00     0.112 A 
HETATM    2  N   UNL     1      -3.027   2.789 -31.581  1.00  0.00    -0.160 NA
HETATM    3  N   UNL     1      -2.222   3.814 -31.799  1.00  0.00     0.012 NA
HETATM    4  N   UNL     1      -2.826   4.696 -32.652  1.00  0.00    -0.207 N 
HETATM    5  C   UNL     1      -4.089   4.205 -32.945  1.00  0.00     0.153 A 
ENDROOT
BRANCH   5   6
HETATM    6  C   UNL     1      -5.071   4.741 -33.837  1.00  0.00     0.292 C 
HETATM    7  N   UNL     1      -6.190   5.277 -33.212  1.00  0.00    -0.242 N 
HETATM    8  H   UNL     1      -6.320   5.127 -32.216  1.00  0.00     0.192 HD
HETATM    9  O   UNL     1      -4.970   4.541 -35.044  1.00  0.00    -0.264 OA
BRANCH   7  10
HETATM   10  N   UNL     1      -7.370   5.499 -33.881  1.00  0.00    -0.184 NA
HETATM   11  C   UNL     1      -8.320   4.645 -33.650  1.00  0.00     0.150 C 
BRANCH  11  12
HETATM   12  C   UNL     1      -9.661   4.772 -34.254  1.00  0.00    -0.013 A 
HETATM   13  C   UNL     1     -10.447   3.621 -34.358  1.00  0.00     0.035 A 
HETATM   14  C   UNL     1     -11.712   3.710 -34.932  1.00  0.00     0.047 A 
HETATM   15 BR   UNL     1     -12.758   2.136 -35.083  1.00  0.00    -0.048 Br
HETATM   16  C   UNL     1     -12.196   4.940 -35.387  1.00  0.00     0.116 A 
HETATM   17  C   UNL     1     -11.416   6.101 -35.273  1.00  0.00     0.103 A 
HETATM   18  C   UNL     1     -10.140   6.010 -34.707  1.00  0.00     0.052 A 
BRANCH  16  19
HETATM   19  O   UNL     1     -13.441   5.040 -35.956  1.00  0.00    -0.357 OA
HETATM   20  H   UNL     1     -13.356   4.859 -36.909  1.00  0.00     0.218 HD
ENDBRANCH  16  19
BRANCH  17  21
HETATM   21  O   UNL     1     -11.987   7.255 -35.741  1.00  0.00    -0.353 OA
HETATM   22  C   UNL     1     -11.154   8.395 -35.897  1.00  0.00     0.210 C 
ENDBRANCH  17  21
ENDBRANCH  11  12
ENDBRANCH   7  10
ENDBRANCH   5   6
BRANCH   1  23
HETATM   23  C   UNL     1      -5.312   2.027 -32.287  1.00  0.00     0.297 C 
BRANCH  23  24
HETATM   24  N   UNL     1      -5.580   1.203 -33.540  1.00  0.00    -0.066 N 
HETATM   25  H   UNL     1      -4.956   1.590 -34.258  1.00  0.00     0.280 HD
BRANCH  24  26
HETATM   26  C   UNL     1      -6.982   1.327 -34.110  1.00  0.00     0.231 C 
HETATM   27  C   UNL     1      -7.203   0.397 -35.289  1.00  0.00     0.034 C 
ENDBRANCH  24  26
BRANCH  24  28
HETATM   28  C   UNL     1      -5.194  -0.259 -33.390  1.00  0.00     0.231 C 
HETATM   29  C   UNL     1      -5.432  -0.748 -31.972  1.00  0.00     0.034 C 
ENDBRANCH  24  28
ENDBRANCH  23  24
ENDBRANCH   1  23
BRANCH   4  30
HETATM   30  C   UNL     1      -2.187   5.863 -33.121  1.00  0.00     0.225 A 
HETATM   31  N   UNL     1      -1.226   5.777 -34.041  1.00  0.00    -0.081 NA
HETATM   32  O   UNL     1      -0.848   7.104 -34.255  1.00  0.00    -0.103 OA
HETATM   33  N   UNL     1      -1.582   7.971 -33.455  1.00  0.00    -0.083 NA
HETATM   34  C   UNL     1      -2.410   7.201 -32.751  1.00  0.00     0.201 A 
BRANCH  34  35
HETATM   35  N   UNL     1      -3.291   7.663 -31.848  1.00  0.00    -0.379 N 
HETATM   36  H   UNL     1      -3.795   8.525 -32.039  1.00  0.00     0.158 HD
HETATM   37  H   UNL     1      -3.301   7.372 -30.874  1.00  0.00     0.158 HD
ENDBRANCH  34  35
ENDBRANCH   4  30
TORSDOF 11
ENDMDL
MODEL 7
REMARK VINA RESULT:      -7.2      3.788      8.277
REMARK  11 active torsions:
REMARK  status: ('A' for Active; 'I' for Inactive)
REMARK    1  A    between atoms: C_2  and  N_3 
REMARK    2  A    between atoms: N_3  and  C_5 
REMARK    3  A    between atoms: N_3  and  C_32 
REMARK    4  A    between atoms: C_5  and  C_6 
REMARK    5  A    between atoms: N_9  and  C_10 
REMARK    6  A    between atoms: C_14  and  N_15 
REMARK    7  A    between atoms: C_16  and  C_17 
REMARK       I    between atoms: C_17  and  N_18 
REMARK    8  A    between atoms: N_18  and  N_19 
REMARK    9  A    between atoms: C_20  and  C_21 
REMARK   10  A    between atoms: C_25  and  O_26 
REMARK   11  A    between atoms: C_27  and  O_28 
ROOT
HETATM    1  C   UNL     1      -4.463   0.297 -32.682  1.00  0.00     0.112 A 
HETATM    2  N   UNL     1      -3.292  -0.123 -33.230  1.00  0.00    -0.160 NA
HETATM    3  N   UNL     1      -3.513  -1.270 -33.847  1.00  0.00     0.012 NA
HETATM    4  N   UNL     1      -4.828  -1.618 -33.709  1.00  0.00    -0.207 N 
HETATM    5  C   UNL     1      -5.460  -0.607 -33.000  1.00  0.00     0.153 A 
ENDROOT
BRANCH   5   6
HETATM    6  C   UNL     1      -6.819  -0.544 -32.554  1.00  0.00     0.292 C 
HETATM    7  N   UNL     1      -7.755  -0.403 -33.570  1.00  0.00    -0.242 N 
HETATM    8  H   UNL     1      -7.435  -0.204 -34.513  1.00  0.00     0.192 HD
HETATM    9  O   UNL     1      -7.062  -0.432 -31.356  1.00  0.00    -0.264 OA
BRANCH   7  10
HETATM   10  N   UNL     1      -9.037   0.032 -33.333  1.00  0.00    -0.184 NA
HETATM   11  C   UNL     1      -9.270   1.279 -33.609  1.00  0.00     0.150 C 
BRANCH  11  12
HETATM   12  C   UNL     1     -10.608   1.886 -33.455  1.00  0.00    -0.013 A 
HETATM   13  C   UNL     1     -11.723   1.111 -33.786  1.00  0.00     0.035 A 
HETATM   14  C   UNL     1     -12.996   1.660 -33.661  1.00  0.00     0.047 A 
HETATM   15 BR   UNL     1     -14.497   0.602 -34.131  1.00  0.00    -0.048 Br
HETATM   16  C   UNL     1     -13.157   2.968 -33.195  1.00  0.00     0.116 A 
HETATM   17  C   UNL     1     -12.041   3.747 -32.850  1.00  0.00     0.103 A 
HETATM   18  C   UNL     1     -10.762   3.198 -32.987  1.00  0.00     0.052 A 
BRANCH  16  19
HETATM   19  O   UNL     1     -14.406   3.522 -33.068  1.00  0.00    -0.357 OA
HETATM   20  H   UNL     1     -14.311   4.491 -33.061  1.00  0.00     0.218 HD
ENDBRANCH  16  19
BRANCH  17  21
HETATM   21  O   UNL     1     -12.309   5.011 -32.397  1.00  0.00    -0.353 OA
HETATM   22  C   UNL     1     -11.270   5.715 -31.732  1.00  0.00     0.210 C 
ENDBRANCH  17  21
ENDBRANCH  11  12
ENDBRANCH   7  10
ENDBRANCH   5   6
BRANCH   1  23
HETATM   23  C   UNL     1      -4.590   1.561 -31.898  1.00  0.00     0.297 C 
BRANCH  23  24
HETATM   24  N   UNL     1      -5.237   2.773 -32.555  1.00  0.00    -0.066 N 
HETATM   25  H   UNL     1      -5.416   2.491 -33.527  1.00  0.00     0.280 HD
BRANCH  24  26
HETATM   26  C   UNL     1      -4.357   4.008 -32.646  1.00  0.00     0.231 C 
HETATM   27  C   UNL     1      -2.885   3.654 -32.746  1.00  0.00     0.034 C 
ENDBRANCH  24  26
BRANCH  24  28
HETATM   28  C   UNL     1      -6.591   3.126 -31.962  1.00  0.00     0.231 C 
HETATM   29  C   UNL     1      -6.602   2.918 -30.458  1.00  0.00     0.034 C 
ENDBRANCH  24  28
ENDBRANCH  23  24
ENDBRANCH   1  23
BRANCH   4  30
HETATM   30  C   UNL     1      -5.356  -2.826 -34.210  1.00  0.00     0.225 A 
HETATM   31  N   UNL     1      -6.567  -2.847 -34.768  1.00  0.00    -0.081 NA
HETATM   32  O   UNL     1      -6.740  -4.181 -35.142  1.00  0.00    -0.103 OA
HETATM   33  N   UNL     1      -5.633  -4.947 -34.798  1.00  0.00    -0.083 NA
HETATM   34  C   UNL     1      -4.776  -4.106 -34.219  1.00  0.00     0.201 A 
BRANCH  34  35
HETATM   35  N   UNL     1      -3.575  -4.464 -33.735  1.00  0.00    -0.379 N 
HETATM   36  H   UNL     1      -3.513  -5.232 -33.071  1.00  0.00     0.158 HD
HETATM   37  H   UNL     1      -2.755  -3.863 -33.767  1.00  0.00     0.158 HD
ENDBRANCH  34  35
ENDBRANCH   4  30
TORSDOF 11
ENDMDL
MODEL 8
REMARK VINA RESULT:      -7.1      3.883      8.621
REMARK  11 active torsions:
REMARK  status: ('A' for Active; 'I' for Inactive)
REMARK    1  A    between atoms: C_2  and  N_3 
REMARK    2  A    between atoms: N_3  and  C_5 
REMARK    3  A    between atoms: N_3  and  C_32 
REMARK    4  A    between atoms: C_5  and  C_6 
REMARK    5  A    between atoms: N_9  and  C_10 
REMARK    6  A    between atoms: C_14  and  N_15 
REMARK    7  A    between atoms: C_16  and  C_17 
REMARK       I    between atoms: C_17  and  N_18 
REMARK    8  A    between atoms: N_18  and  N_19 
REMARK    9  A    between atoms: C_20  and  C_21 
REMARK   10  A    between atoms: C_25  and  O_26 
REMARK   11  A    between atoms: C_27  and  O_28 
ROOT
HETATM    1  C   UNL     1      -4.234  -0.730 -32.532  1.00  0.00     0.112 A 
HETATM    2  N   UNL     1      -2.997  -0.183 -32.672  1.00  0.00    -0.160 NA
HETATM    3  N   UNL     1      -3.085   1.110 -32.413  1.00  0.00     0.012 NA
HETATM    4  N   UNL     1      -4.378   1.427 -32.103  1.00  0.00    -0.207 N 
HETATM    5  C   UNL     1      -5.120   0.256 -32.136  1.00  0.00     0.153 A 
ENDROOT
BRANCH   5   6
HETATM    6  C   UNL     1      -6.528   0.085 -31.942  1.00  0.00     0.292 C 
HETATM    7  N   UNL     1      -7.296   0.277 -33.083  1.00  0.00    -0.242 N 
HETATM    8  H   UNL     1      -6.859   0.663 -33.915  1.00  0.00     0.192 HD
HETATM    9  O   UNL     1      -6.977  -0.029 -30.805  1.00  0.00    -0.264 OA
BRANCH   7  10
HETATM   10  N   UNL     1      -8.649   0.513 -33.027  1.00  0.00    -0.184 NA
HETATM   11  C   UNL     1      -9.017   1.742 -33.226  1.00  0.00     0.150 C 
BRANCH  11  12
HETATM   12  C   UNL     1     -10.436   2.149 -33.246  1.00  0.00    -0.013 A 
HETATM   13  C   UNL     1     -11.396   1.172 -33.520  1.00  0.00     0.035 A 
HETATM   14  C   UNL     1     -12.742   1.529 -33.555  1.00  0.00     0.047 A 
HETATM   15 BR   UNL     1     -14.031   0.195 -33.945  1.00  0.00    -0.048 Br
HETATM   16  C   UNL     1     -13.127   2.849 -33.305  1.00  0.00     0.116 A 
HETATM   17  C   UNL     1     -12.167   3.832 -33.017  1.00  0.00     0.103 A 
HETATM   18  C   UNL     1     -10.816   3.475 -32.994  1.00  0.00     0.052 A 
BRANCH  16  19
HETATM   19  O   UNL     1     -14.450   3.214 -33.337  1.00  0.00    -0.357 OA
HETATM   20  H   UNL     1     -14.832   3.056 -32.455  1.00  0.00     0.218 HD
ENDBRANCH  16  19
BRANCH  17  21
HETATM   21  O   UNL     1     -12.652   5.091 -32.779  1.00  0.00    -0.353 OA
HETATM   22  C   UNL     1     -12.453   6.081 -33.777  1.00  0.00     0.210 C 
ENDBRANCH  17  21
ENDBRANCH  11  12
ENDBRANCH   7  10
ENDBRANCH   5   6
BRANCH   1  23
HETATM   23  C   UNL     1      -4.516  -2.178 -32.754  1.00  0.00     0.297 C 
BRANCH  23  24
HETATM   24  N   UNL     1      -4.709  -2.680 -34.179  1.00  0.00    -0.066 N 
HETATM   25  H   UNL     1      -4.173  -2.032 -34.770  1.00  0.00     0.280 HD
BRANCH  24  26
HETATM   26  C   UNL     1      -6.135  -2.619 -34.700  1.00  0.00     0.231 C 
HETATM   27  C   UNL     1      -6.694  -4.000 -34.992  1.00  0.00     0.034 C 
ENDBRANCH  24  26
BRANCH  24  28
HETATM   28  C   UNL     1      -4.114  -4.058 -34.416  1.00  0.00     0.231 C 
HETATM   29  C   UNL     1      -3.424  -4.580 -33.167  1.00  0.00     0.034 C 
ENDBRANCH  24  28
ENDBRANCH  23  24
ENDBRANCH   1  23
BRANCH   4  30
HETATM   30  C   UNL     1      -4.799   2.747 -31.837  1.00  0.00     0.225 A 
HETATM   31  N   UNL     1      -4.649   3.696 -32.762  1.00  0.00    -0.081 NA
HETATM   32  O   UNL     1      -5.174   4.839 -32.155  1.00  0.00    -0.103 OA
HETATM   33  N   UNL     1      -5.625   4.564 -30.870  1.00  0.00    -0.083 NA
HETATM   34  C   UNL     1      -5.391   3.268 -30.674  1.00  0.00     0.201 A 
BRANCH  34  35
HETATM   35  N   UNL     1      -5.681   2.609 -29.539  1.00  0.00    -0.379 N 
HETATM   36  H   UNL     1      -6.184   3.090 -28.797  1.00  0.00     0.158 HD
HETATM   37  H   UNL     1      -5.211   1.756 -29.249  1.00  0.00     0.158 HD
ENDBRANCH  34  35
ENDBRANCH   4  30
TORSDOF 11
ENDMDL
MODEL 9
REMARK VINA RESULT:      -6.9      5.796      7.996
REMARK  11 active torsions:
REMARK  status: ('A' for Active; 'I' for Inactive)
REMARK    1  A    between atoms: C_2  and  N_3 
REMARK    2  A    between atoms: N_3  and  C_5 
REMARK    3  A    between atoms: N_3  and  C_32 
REMARK    4  A    between atoms: C_5  and  C_6 
REMARK    5  A    between atoms: N_9  and  C_10 
REMARK    6  A    between atoms: C_14  and  N_15 
REMARK    7  A    between atoms: C_16  and  C_17 
REMARK       I    between atoms: C_17  and  N_18 
REMARK    8  A    between atoms: N_18  and  N_19 
REMARK    9  A    between atoms: C_20  and  C_21 
REMARK   10  A    between atoms: C_25  and  O_26 
REMARK   11  A    between atoms: C_27  and  O_28 
ROOT
HETATM    1  C   UNL     1      -2.739   7.698 -31.290  1.00  0.00     0.112 A 
HETATM    2  N   UNL     1      -2.551   8.710 -30.402  1.00  0.00    -0.160 NA
HETATM    3  N   UNL     1      -3.273   8.455 -29.326  1.00  0.00     0.012 NA
HETATM    4  N   UNL     1      -3.946   7.277 -29.496  1.00  0.00    -0.207 N 
HETATM    5  C   UNL     1      -3.586   6.758 -30.731  1.00  0.00     0.153 A 
ENDROOT
BRANCH   5   6
HETATM    6  C   UNL     1      -4.070   5.578 -31.380  1.00  0.00     0.292 C 
HETATM    7  N   UNL     1      -3.459   4.400 -30.969  1.00  0.00    -0.242 N 
HETATM    8  H   UNL     1      -2.636   4.450 -30.377  1.00  0.00     0.192 HD
HETATM    9  O   UNL     1      -4.820   5.680 -32.347  1.00  0.00    -0.264 OA
BRANCH   7  10
HETATM   10  N   UNL     1      -3.521   3.244 -31.710  1.00  0.00    -0.184 NA
HETATM   11  C   UNL     1      -4.377   2.357 -31.300  1.00  0.00     0.150 C 
BRANCH  11  12
HETATM   12  C   UNL     1      -4.597   1.083 -32.014  1.00  0.00    -0.013 A 
HETATM   13  C   UNL     1      -3.816  -0.017 -31.651  1.00  0.00     0.035 A 
HETATM   14  C   UNL     1      -3.995  -1.229 -32.313  1.00  0.00     0.047 A 
HETATM   15 BR   UNL     1      -2.915  -2.707 -31.821  1.00  0.00    -0.048 Br
HETATM   16  C   UNL     1      -4.956  -1.346 -33.322  1.00  0.00     0.116 A 
HETATM   17  C   UNL     1      -5.751  -0.247 -33.682  1.00  0.00     0.103 A 
HETATM   18  C   UNL     1      -5.563   0.973 -33.024  1.00  0.00     0.052 A 
BRANCH  16  19
HETATM   19  O   UNL     1      -5.141  -2.534 -33.983  1.00  0.00    -0.357 OA
HETATM   20  H   UNL     1      -4.438  -2.625 -34.650  1.00  0.00     0.218 HD
ENDBRANCH  16  19
BRANCH  17  21
HETATM   21  O   UNL     1      -6.668  -0.470 -34.675  1.00  0.00    -0.353 OA
HETATM   22  C   UNL     1      -7.130   0.647 -35.418  1.00  0.00     0.210 C 
ENDBRANCH  17  21
ENDBRANCH  11  12
ENDBRANCH   7  10
ENDBRANCH   5   6
BRANCH   1  23
HETATM   23  C   UNL     1      -2.081   7.654 -32.629  1.00  0.00     0.297 C 
BRANCH  23  24
HETATM   24  N   UNL     1      -0.832   6.801 -32.808  1.00  0.00    -0.066 N 
HETATM   25  H   UNL     1      -0.261   7.299 -33.502  1.00  0.00     0.280 HD
BRANCH  24  26
HETATM   26  C   UNL     1      -1.068   5.419 -33.391  1.00  0.00     0.231 C 
HETATM   27  C   UNL     1      -1.990   5.458 -34.596  1.00  0.00     0.034 C 
ENDBRANCH  24  26
BRANCH  24  28
HETATM   28  C   UNL     1       0.017   6.710 -31.551  1.00  0.00     0.231 C 
HETATM   29  C   UNL     1       0.246   5.264 -31.147  1.00  0.00     0.034 C 
ENDBRANCH  24  28
ENDBRANCH  23  24
ENDBRANCH   1  23
BRANCH   4  30
HETATM   30  C   UNL     1      -4.849   6.767 -28.539  1.00  0.00     0.225 A 
HETATM   31  N   UNL     1      -6.145   6.656 -28.835  1.00  0.00    -0.081 NA
HETATM   32  O   UNL     1      -6.708   6.121 -27.674  1.00  0.00    -0.103 OA
HETATM   33  N   UNL     1      -5.744   5.925 -26.693  1.00  0.00    -0.083 NA
HETATM   34  C   UNL     1      -4.593   6.327 -27.230  1.00  0.00     0.201 A 
BRANCH  34  35
HETATM   35  N   UNL     1      -3.411   6.303 -26.592  1.00  0.00    -0.379 N 
HETATM   36  H   UNL     1      -2.774   7.091 -26.690  1.00  0.00     0.158 HD
HETATM   37  H   UNL     1      -2.982   5.453 -26.234  1.00  0.00     0.158 HD
ENDBRANCH  34  35
ENDBRANCH   4  30
TORSDOF 11
ENDMDL
MODEL 10
REMARK VINA RESULT:      -6.9      4.192      8.469
REMARK  11 active torsions:
REMARK  status: ('A' for Active; 'I' for Inactive)
REMARK    1  A    between atoms: C_2  and  N_3 
REMARK    2  A    between atoms: N_3  and  C_5 
REMARK    3  A    between atoms: N_3  and  C_32 
REMARK    4  A    between atoms: C_5  and  C_6 
REMARK    5  A    between atoms: N_9  and  C_10 
REMARK    6  A    between atoms: C_14  and  N_15 
REMARK    7  A    between atoms: C_16  and  C_17 
REMARK       I    between atoms: C_17  and  N_18 
REMARK    8  A    between atoms: N_18  and  N_19 
REMARK    9  A    between atoms: C_20  and  C_21 
REMARK   10  A    between atoms: C_25  and  O_26 
REMARK   11  A    between atoms: C_27  and  O_28 
ROOT
HETATM    1  C   UNL     1      -4.061  -0.823 -31.971  1.00  0.00     0.112 A 
HETATM    2  N   UNL     1      -2.777  -0.630 -31.566  1.00  0.00    -0.160 NA
HETATM    3  N   UNL     1      -2.644   0.635 -31.207  1.00  0.00     0.012 NA
HETATM    4  N   UNL     1      -3.834   1.286 -31.376  1.00  0.00    -0.207 N 
HETATM    5  C   UNL     1      -4.763   0.359 -31.826  1.00  0.00     0.153 A 
ENDROOT
BRANCH   5   6
HETATM    6  C   UNL     1      -6.128   0.573 -32.202  1.00  0.00     0.292 C 
HETATM    7  N   UNL     1      -6.299   1.180 -33.439  1.00  0.00    -0.242 N 
HETATM    8  H   UNL     1      -5.490   1.565 -33.917  1.00  0.00     0.192 HD
HETATM    9  O   UNL     1      -7.021   0.394 -31.379  1.00  0.00    -0.264 OA
BRANCH   7  10
HETATM   10  N   UNL     1      -7.478   1.785 -33.804  1.00  0.00    -0.184 NA
HETATM   11  C   UNL     1      -8.562   1.160 -33.459  1.00  0.00     0.150 C 
BRANCH  11  12
HETATM   12  C   UNL     1      -9.908   1.702 -33.735  1.00  0.00    -0.013 A 
HETATM   13  C   UNL     1     -10.001   2.993 -34.263  1.00  0.00     0.035 A 
HETATM   14  C   UNL     1     -11.258   3.533 -34.525  1.00  0.00     0.047 A 
HETATM   15 BR   UNL     1     -11.367   5.292 -35.224  1.00  0.00    -0.048 Br
HETATM   16  C   UNL     1     -12.412   2.787 -34.274  1.00  0.00     0.116 A 
HETATM   17  C   UNL     1     -12.324   1.486 -33.754  1.00  0.00     0.103 A 
HETATM   18  C   UNL     1     -11.062   0.947 -33.481  1.00  0.00     0.052 A 
BRANCH  16  19
HETATM   19  O   UNL     1     -13.656   3.308 -34.526  1.00  0.00    -0.357 OA
HETATM   20  H   UNL     1     -14.311   2.593 -34.436  1.00  0.00     0.218 HD
ENDBRANCH  16  19
BRANCH  17  21
HETATM   21  O   UNL     1     -13.514   0.838 -33.554  1.00  0.00    -0.353 OA
HETATM   22  C   UNL     1     -13.522  -0.580 -33.627  1.00  0.00     0.210 C 
ENDBRANCH  17  21
ENDBRANCH  11  12
ENDBRANCH   7  10
ENDBRANCH   5   6
BRANCH   1  23
HETATM   23  C   UNL     1      -4.575  -2.138 -32.455  1.00  0.00     0.297 C 
BRANCH  23  24
HETATM   24  N   UNL     1      -4.672  -2.384 -33.954  1.00  0.00    -0.066 N 
HETATM   25  H   UNL     1      -4.100  -1.648 -34.387  1.00  0.00     0.280 HD
BRANCH  24  26
HETATM   26  C   UNL     1      -6.060  -2.224 -34.550  1.00  0.00     0.231 C 
HETATM   27  C   UNL     1      -6.750  -3.560 -34.755  1.00  0.00     0.034 C 
ENDBRANCH  24  26
BRANCH  24  28
HETATM   28  C   UNL     1      -4.057  -3.705 -34.387  1.00  0.00     0.231 C 
HETATM   29  C   UNL     1      -3.450  -4.441 -33.205  1.00  0.00     0.034 C 
ENDBRANCH  24  28
ENDBRANCH  23  24
ENDBRANCH   1  23
BRANCH   4  30
HETATM   30  C   UNL     1      -3.991   2.667 -31.133  1.00  0.00     0.225 A 
HETATM   31  N   UNL     1      -3.186   3.547 -31.730  1.00  0.00    -0.081 NA
HETATM   32  O   UNL     1      -3.638   4.783 -31.264  1.00  0.00    -0.103 OA
HETATM   33  N   UNL     1      -4.705   4.630 -30.387  1.00  0.00    -0.083 NA
HETATM   34  C   UNL     1      -4.922   3.318 -30.305  1.00  0.00     0.201 A 
BRANCH  34  35
HETATM   35  N   UNL     1      -5.875   2.754 -29.545  1.00  0.00    -0.379 N 
HETATM   36  H   UNL     1      -5.704   1.844 -29.123  1.00  0.00     0.158 HD
HETATM   37  H   UNL     1      -6.852   3.033 -29.571  1.00  0.00     0.158 HD
ENDBRANCH  34  35
ENDBRANCH   4  30
TORSDOF 11
ENDMDL
