MODEL 1
REMARK VINA RESULT:      -8.9      0.000      0.000
REMARK  4 active torsions:
REMARK  status: ('A' for Active; 'I' for Inactive)
REMARK    1  A    between atoms: C_8  and  C_9 
REMARK       I    between atoms: C_9  and  N_10 
REMARK    2  A    between atoms: N_10  and  N_11 
REMARK       I    between atoms: N_11  and  C_12 
REMARK    3  A    between atoms: C_12  and  C_13 
REMARK    4  A    between atoms: C_13  and  C_14 
ROOT
HETATM    1  N   UNL     1      -3.364   2.443 -31.074  1.00  0.00    -0.267 N 
HETATM    2  C   UNL     1      -3.809   3.479 -31.874  1.00  0.00     0.236 C 
HETATM    3  O   UNL     1      -4.040   3.334 -33.071  1.00  0.00    -0.272 OA
HETATM    4  H   UNL     1      -3.382   2.488 -30.057  1.00  0.00     0.190 HD
ENDROOT
BRANCH   1   5
HETATM    5  N   UNL     1      -3.308   1.164 -31.636  1.00  0.00    -0.262 N 
HETATM    6  C   UNL     1      -4.201   0.192 -31.229  1.00  0.00     0.291 C 
HETATM    7  O   UNL     1      -4.971   0.354 -30.283  1.00  0.00    -0.264 OA
HETATM    8  H   UNL     1      -2.799   1.041 -32.515  1.00  0.00     0.190 HD
BRANCH   6   9
HETATM    9  C   UNL     1      -4.133  -1.033 -32.038  1.00  0.00     0.158 A 
HETATM   10  C   UNL     1      -5.027  -1.440 -33.072  1.00  0.00     0.028 A 
HETATM   11  C   UNL     1      -6.188  -0.920 -33.676  1.00  0.00     0.016 A 
HETATM   12  C   UNL     1      -4.536  -2.664 -33.514  1.00  0.00     0.063 A 
HETATM   13  C   UNL     1      -6.809  -1.649 -34.697  1.00  0.00     0.001 A 
HETATM   14  C   UNL     1      -6.291  -2.874 -35.116  1.00  0.00     0.002 A 
HETATM   15  C   UNL     1      -5.138  -3.409 -34.532  1.00  0.00     0.032 A 
HETATM   16  N   UNL     1      -3.423  -2.900 -32.756  1.00  0.00    -0.277 N 
HETATM   17  H   UNL     1      -2.805  -3.703 -32.805  1.00  0.00     0.189 HD
HETATM   18  N   UNL     1      -3.150  -1.941 -31.856  1.00  0.00    -0.168 NA
ENDBRANCH   6   9
ENDBRANCH   1   5
BRANCH   2  19
HETATM   19  C   UNL     1      -3.947   4.786 -31.107  1.00  0.00     0.114 C 
BRANCH  19  20
HETATM   20  C   UNL     1      -2.821   5.830 -31.277  1.00  0.00    -0.031 C 
HETATM   21  C   UNL     1      -1.455   5.163 -31.579  1.00  0.00     0.014 C 
HETATM   22  C   UNL     1      -0.366   6.228 -31.802  1.00  0.00    -0.013 C 
HETATM   23  C   UNL     1      -0.248   7.104 -30.544  1.00  0.00     0.009 C 
HETATM   24  C   UNL     1      -0.754   7.108 -32.999  1.00  0.00     0.009 C 
HETATM   25  C   UNL     1      -1.587   7.808 -30.261  1.00  0.00    -0.013 C 
HETATM   26  C   UNL     1      -2.680   6.747 -30.035  1.00  0.00     0.014 C 
HETATM   27  C   UNL     1      -1.967   8.679 -31.469  1.00  0.00     0.009 C 
HETATM   28  C   UNL     1      -2.095   7.804 -32.725  1.00  0.00    -0.013 C 
HETATM   29  C   UNL     1      -3.179   6.738 -32.491  1.00  0.00     0.014 C 
ENDBRANCH  19  20
ENDBRANCH   2  19
TORSDOF 4
ENDMDL
MODEL 2
REMARK VINA RESULT:      -8.9      1.633      2.564
REMARK  4 active torsions:
REMARK  status: ('A' for Active; 'I' for Inactive)
REMARK    1  A    between atoms: C_8  and  C_9 
REMARK       I    between atoms: C_9  and  N_10 
REMARK    2  A    between atoms: N_10  and  N_11 
REMARK       I    between atoms: N_11  and  C_12 
REMARK    3  A    between atoms: C_12  and  C_13 
REMARK    4  A    between atoms: C_13  and  C_14 
ROOT
HETATM    1  N   UNL     1      -4.560   2.272 -31.954  1.00  0.00    -0.267 N 
HETATM    2  C   UNL     1      -4.749   3.578 -32.364  1.00  0.00     0.236 C 
HETATM    3  O   UNL     1      -5.259   3.861 -33.444  1.00  0.00    -0.272 OA
HETATM    4  H   UNL     1      -4.349   2.025 -30.988  1.00  0.00     0.190 HD
ENDROOT
BRANCH   1   5
HETATM    5  N   UNL     1      -5.094   1.255 -32.750  1.00  0.00    -0.262 N 
HETATM    6  C   UNL     1      -4.358   0.112 -32.995  1.00  0.00     0.291 C 
HETATM    7  O   UNL     1      -3.180  -0.004 -32.655  1.00  0.00    -0.264 OA
HETATM    8  H   UNL     1      -6.103   1.246 -32.916  1.00  0.00     0.190 HD
BRANCH   6   9
HETATM    9  C   UNL     1      -5.123  -0.932 -33.691  1.00  0.00     0.158 A 
HETATM   10  C   UNL     1      -4.801  -2.317 -33.800  1.00  0.00     0.028 A 
HETATM   11  C   UNL     1      -3.764  -3.158 -33.351  1.00  0.00     0.016 A 
HETATM   12  C   UNL     1      -5.828  -2.869 -34.557  1.00  0.00     0.063 A 
HETATM   13  C   UNL     1      -3.800  -4.518 -33.681  1.00  0.00     0.001 A 
HETATM   14  C   UNL     1      -4.844  -5.040 -34.444  1.00  0.00     0.002 A 
HETATM   15  C   UNL     1      -5.885  -4.224 -34.899  1.00  0.00     0.032 A 
HETATM   16  N   UNL     1      -6.668  -1.828 -34.837  1.00  0.00    -0.277 N 
HETATM   17  H   UNL     1      -7.530  -1.861 -35.372  1.00  0.00     0.189 HD
HETATM   18  N   UNL     1      -6.277  -0.646 -34.334  1.00  0.00    -0.168 NA
ENDBRANCH   6   9
ENDBRANCH   1   5
BRANCH   2  19
HETATM   19  C   UNL     1      -4.237   4.587 -31.347  1.00  0.00     0.114 C 
BRANCH  19  20
HETATM   20  C   UNL     1      -3.042   5.472 -31.765  1.00  0.00    -0.031 C 
HETATM   21  C   UNL     1      -3.451   6.538 -32.813  1.00  0.00     0.014 C 
HETATM   22  C   UNL     1      -2.256   7.442 -33.166  1.00  0.00    -0.013 C 
HETATM   23  C   UNL     1      -1.114   6.577 -33.726  1.00  0.00     0.009 C 
HETATM   24  C   UNL     1      -1.772   8.163 -31.899  1.00  0.00     0.009 C 
HETATM   25  C   UNL     1      -0.669   5.544 -32.676  1.00  0.00    -0.013 C 
HETATM   26  C   UNL     1      -1.860   4.636 -32.320  1.00  0.00     0.014 C 
HETATM   27  C   UNL     1      -0.195   6.278 -31.411  1.00  0.00     0.009 C 
HETATM   28  C   UNL     1      -1.337   7.134 -30.845  1.00  0.00    -0.013 C 
HETATM   29  C   UNL     1      -2.529   6.225 -30.502  1.00  0.00     0.014 C 
ENDBRANCH  19  20
ENDBRANCH   2  19
TORSDOF 4
ENDMDL
MODEL 3
REMARK VINA RESULT:      -8.8      1.665      2.502
REMARK  4 active torsions:
REMARK  status: ('A' for Active; 'I' for Inactive)
REMARK    1  A    between atoms: C_8  and  C_9 
REMARK       I    between atoms: C_9  and  N_10 
REMARK    2  A    between atoms: N_10  and  N_11 
REMARK       I    between atoms: N_11  and  C_12 
REMARK    3  A    between atoms: C_12  and  C_13 
REMARK    4  A    between atoms: C_13  and  C_14 
ROOT
HETATM    1  N   UNL     1      -4.769   2.293 -31.872  1.00  0.00    -0.267 N 
HETATM    2  C   UNL     1      -4.794   3.579 -32.378  1.00  0.00     0.236 C 
HETATM    3  O   UNL     1      -5.135   3.825 -33.531  1.00  0.00    -0.272 OA
HETATM    4  H   UNL     1      -4.706   2.098 -30.873  1.00  0.00     0.190 HD
ENDROOT
BRANCH   1   5
HETATM    5  N   UNL     1      -5.278   1.267 -32.673  1.00  0.00    -0.262 N 
HETATM    6  C   UNL     1      -4.483   0.185 -32.996  1.00  0.00     0.291 C 
HETATM    7  O   UNL     1      -3.283   0.139 -32.725  1.00  0.00    -0.264 OA
HETATM    8  H   UNL     1      -6.292   1.195 -32.784  1.00  0.00     0.190 HD
BRANCH   6   9
HETATM    9  C   UNL     1      -5.215  -0.887 -33.685  1.00  0.00     0.158 A 
HETATM   10  C   UNL     1      -4.848  -2.260 -33.790  1.00  0.00     0.028 A 
HETATM   11  C   UNL     1      -3.783  -3.065 -33.341  1.00  0.00     0.016 A 
HETATM   12  C   UNL     1      -5.858  -2.849 -34.542  1.00  0.00     0.063 A 
HETATM   13  C   UNL     1      -3.774  -4.427 -33.665  1.00  0.00     0.001 A 
HETATM   14  C   UNL     1      -4.803  -4.986 -34.423  1.00  0.00     0.002 A 
HETATM   15  C   UNL     1      -5.872  -4.207 -34.878  1.00  0.00     0.032 A 
HETATM   16  N   UNL     1      -6.734  -1.838 -34.823  1.00  0.00    -0.277 N 
HETATM   17  H   UNL     1      -7.595  -1.901 -35.355  1.00  0.00     0.189 HD
HETATM   18  N   UNL     1      -6.380  -0.642 -34.326  1.00  0.00    -0.168 NA
ENDBRANCH   6   9
ENDBRANCH   1   5
BRANCH   2  19
HETATM   19  C   UNL     1      -4.335   4.613 -31.361  1.00  0.00     0.114 C 
BRANCH  19  20
HETATM   20  C   UNL     1      -3.123   5.492 -31.740  1.00  0.00    -0.031 C 
HETATM   21  C   UNL     1      -2.601   6.310 -30.532  1.00  0.00     0.014 C 
HETATM   22  C   UNL     1      -1.358   7.129 -30.925  1.00  0.00    -0.013 C 
HETATM   23  C   UNL     1      -1.721   8.081 -32.077  1.00  0.00     0.009 C 
HETATM   24  C   UNL     1      -0.245   6.176 -31.385  1.00  0.00     0.009 C 
HETATM   25  C   UNL     1      -2.197   7.276 -33.298  1.00  0.00    -0.013 C 
HETATM   26  C   UNL     1      -3.442   6.456 -32.912  1.00  0.00     0.014 C 
HETATM   27  C   UNL     1      -1.079   6.321 -33.744  1.00  0.00     0.009 C 
HETATM   28  C   UNL     1      -0.721   5.363 -32.599  1.00  0.00    -0.013 C 
HETATM   29  C   UNL     1      -1.970   4.554 -32.207  1.00  0.00     0.014 C 
ENDBRANCH  19  20
ENDBRANCH   2  19
TORSDOF 4
ENDMDL
MODEL 4
REMARK VINA RESULT:      -8.8      6.035      7.920
REMARK  4 active torsions:
REMARK  status: ('A' for Active; 'I' for Inactive)
REMARK    1  A    between atoms: C_8  and  C_9 
REMARK       I    between atoms: C_9  and  N_10 
REMARK    2  A    between atoms: N_10  and  N_11 
REMARK       I    between atoms: N_11  and  C_12 
REMARK    3  A    between atoms: C_12  and  C_13 
REMARK    4  A    between atoms: C_13  and  C_14 
ROOT
HETATM    1  N   UNL     1      -8.024   1.529 -33.043  1.00  0.00    -0.267 N 
HETATM    2  C   UNL     1      -9.071   1.507 -32.140  1.00  0.00     0.236 C 
HETATM    3  O   UNL     1      -9.312   0.530 -31.438  1.00  0.00    -0.272 OA
HETATM    4  H   UNL     1      -7.679   2.392 -33.462  1.00  0.00     0.190 HD
ENDROOT
BRANCH   1   5
HETATM    5  N   UNL     1      -7.143   0.444 -33.046  1.00  0.00    -0.262 N 
HETATM    6  C   UNL     1      -6.533   0.054 -34.223  1.00  0.00     0.291 C 
HETATM    7  O   UNL     1      -6.833   0.534 -35.316  1.00  0.00    -0.264 OA
HETATM    8  H   UNL     1      -6.758   0.127 -32.153  1.00  0.00     0.190 HD
BRANCH   6   9
HETATM    9  C   UNL     1      -5.504  -0.977 -34.028  1.00  0.00     0.158 A 
HETATM   10  C   UNL     1      -5.611  -2.373 -34.297  1.00  0.00     0.028 A 
HETATM   11  C   UNL     1      -6.604  -3.238 -34.795  1.00  0.00     0.016 A 
HETATM   12  C   UNL     1      -4.378  -2.907 -33.939  1.00  0.00     0.063 A 
HETATM   13  C   UNL     1      -6.320  -4.604 -34.912  1.00  0.00     0.001 A 
HETATM   14  C   UNL     1      -5.073  -5.108 -34.543  1.00  0.00     0.002 A 
HETATM   15  C   UNL     1      -4.072  -4.267 -34.047  1.00  0.00     0.032 A 
HETATM   16  N   UNL     1      -3.638  -1.843 -33.503  1.00  0.00    -0.277 N 
HETATM   17  H   UNL     1      -2.682  -1.858 -33.164  1.00  0.00     0.189 HD
HETATM   18  N   UNL     1      -4.282  -0.665 -33.541  1.00  0.00    -0.168 NA
ENDBRANCH   6   9
ENDBRANCH   1   5
BRANCH   2  19
HETATM   19  C   UNL     1      -9.873   2.799 -32.148  1.00  0.00     0.114 C 
BRANCH  19  20
HETATM   20  C   UNL     1     -11.032   2.908 -33.164  1.00  0.00    -0.031 C 
HETATM   21  C   UNL     1     -11.487   1.516 -33.672  1.00  0.00     0.014 C 
HETATM   22  C   UNL     1     -12.681   1.651 -34.634  1.00  0.00    -0.013 C 
HETATM   23  C   UNL     1     -12.273   2.530 -35.828  1.00  0.00     0.009 C 
HETATM   24  C   UNL     1     -13.857   2.310 -33.897  1.00  0.00     0.009 C 
HETATM   25  C   UNL     1     -11.863   3.930 -35.339  1.00  0.00    -0.013 C 
HETATM   26  C   UNL     1     -10.667   3.801 -34.377  1.00  0.00     0.014 C 
HETATM   27  C   UNL     1     -13.044   4.575 -34.597  1.00  0.00     0.009 C 
HETATM   28  C   UNL     1     -13.447   3.703 -33.398  1.00  0.00    -0.013 C 
HETATM   29  C   UNL     1     -12.247   3.567 -32.446  1.00  0.00     0.014 C 
ENDBRANCH  19  20
ENDBRANCH   2  19
TORSDOF 4
ENDMDL
MODEL 5
REMARK VINA RESULT:      -8.7      6.039      7.969
REMARK  4 active torsions:
REMARK  status: ('A' for Active; 'I' for Inactive)
REMARK    1  A    between atoms: C_8  and  C_9 
REMARK       I    between atoms: C_9  and  N_10 
REMARK    2  A    between atoms: N_10  and  N_11 
REMARK       I    between atoms: N_11  and  C_12 
REMARK    3  A    between atoms: C_12  and  C_13 
REMARK    4  A    between atoms: C_13  and  C_14 
ROOT
HETATM    1  N   UNL     1      -8.076   1.537 -33.206  1.00  0.00    -0.267 N 
HETATM    2  C   UNL     1      -8.968   1.685 -32.160  1.00  0.00     0.236 C 
HETATM    3  O   UNL     1      -9.077   0.851 -31.266  1.00  0.00    -0.272 OA
HETATM    4  H   UNL     1      -7.819   2.307 -33.821  1.00  0.00     0.190 HD
ENDROOT
BRANCH   1   5
HETATM    5  N   UNL     1      -7.185   0.461 -33.155  1.00  0.00    -0.262 N 
HETATM    6  C   UNL     1      -6.607  -0.011 -34.317  1.00  0.00     0.291 C 
HETATM    7  O   UNL     1      -6.943   0.383 -35.434  1.00  0.00    -0.264 OA
HETATM    8  H   UNL     1      -6.771   0.215 -32.253  1.00  0.00     0.190 HD
BRANCH   6   9
HETATM    9  C   UNL     1      -5.562  -1.016 -34.078  1.00  0.00     0.158 A 
HETATM   10  C   UNL     1      -5.628  -2.416 -34.340  1.00  0.00     0.028 A 
HETATM   11  C   UNL     1      -6.583  -3.308 -34.866  1.00  0.00     0.016 A 
HETATM   12  C   UNL     1      -4.397  -2.920 -33.934  1.00  0.00     0.063 A 
HETATM   13  C   UNL     1      -6.264  -4.668 -34.962  1.00  0.00     0.001 A 
HETATM   14  C   UNL     1      -5.020  -5.140 -34.544  1.00  0.00     0.002 A 
HETATM   15  C   UNL     1      -4.056  -4.273 -34.020  1.00  0.00     0.032 A 
HETATM   16  N   UNL     1      -3.698  -1.836 -33.480  1.00  0.00    -0.277 N 
HETATM   17  H   UNL     1      -2.754  -1.826 -33.106  1.00  0.00     0.189 HD
HETATM   18  N   UNL     1      -4.366  -0.673 -33.550  1.00  0.00    -0.168 NA
ENDBRANCH   6   9
ENDBRANCH   1   5
BRANCH   2  19
HETATM   19  C   UNL     1      -9.787   2.962 -32.271  1.00  0.00     0.114 C 
BRANCH  19  20
HETATM   20  C   UNL     1     -11.027   2.931 -33.193  1.00  0.00    -0.031 C 
HETATM   21  C   UNL     1     -12.229   3.685 -32.570  1.00  0.00     0.014 C 
HETATM   22  C   UNL     1     -13.429   3.689 -33.535  1.00  0.00    -0.013 C 
HETATM   23  C   UNL     1     -13.833   2.238 -33.846  1.00  0.00     0.009 C 
HETATM   24  C   UNL     1     -13.031   4.396 -34.839  1.00  0.00     0.009 C 
HETATM   25  C   UNL     1     -12.661   1.492 -34.507  1.00  0.00    -0.013 C 
HETATM   26  C   UNL     1     -11.459   1.484 -33.545  1.00  0.00     0.014 C 
HETATM   27  C   UNL     1     -12.268   2.214 -35.806  1.00  0.00     0.009 C 
HETATM   28  C   UNL     1     -11.854   3.660 -35.496  1.00  0.00    -0.013 C 
HETATM   29  C   UNL     1     -10.660   3.647 -34.526  1.00  0.00     0.014 C 
ENDBRANCH  19  20
ENDBRANCH   2  19
TORSDOF 4
ENDMDL
MODEL 6
REMARK VINA RESULT:      -8.6      2.634      8.857
REMARK  4 active torsions:
REMARK  status: ('A' for Active; 'I' for Inactive)
REMARK    1  A    between atoms: C_8  and  C_9 
REMARK       I    between atoms: C_9  and  N_10 
REMARK    2  A    between atoms: N_10  and  N_11 
REMARK       I    between atoms: N_11  and  C_12 
REMARK    3  A    between atoms: C_12  and  C_13 
REMARK    4  A    between atoms: C_13  and  C_14 
ROOT
HETATM    1  N   UNL     1      -3.315   3.794 -32.340  1.00  0.00    -0.267 N 
HETATM    2  C   UNL     1      -4.520   3.285 -31.893  1.00  0.00     0.236 C 
HETATM    3  O   UNL     1      -4.689   2.916 -30.734  1.00  0.00    -0.272 OA
HETATM    4  H   UNL     1      -3.227   4.303 -33.219  1.00  0.00     0.190 HD
ENDROOT
BRANCH   1   5
HETATM    5  N   UNL     1      -2.308   4.011 -31.395  1.00  0.00    -0.262 N 
HETATM    6  C   UNL     1      -1.339   4.968 -31.626  1.00  0.00     0.291 C 
HETATM    7  O   UNL     1      -1.233   5.558 -32.701  1.00  0.00    -0.264 OA
HETATM    8  H   UNL     1      -2.450   3.660 -30.445  1.00  0.00     0.190 HD
BRANCH   6   9
HETATM    9  C   UNL     1      -0.467   5.202 -30.467  1.00  0.00     0.158 A 
HETATM   10  C   UNL     1      -0.397   6.372 -29.655  1.00  0.00     0.028 A 
HETATM   11  C   UNL     1      -1.042   7.623 -29.618  1.00  0.00     0.016 A 
HETATM   12  C   UNL     1       0.580   6.096 -28.706  1.00  0.00     0.063 A 
HETATM   13  C   UNL     1      -0.679   8.547 -28.631  1.00  0.00     0.001 A 
HETATM   14  C   UNL     1       0.307   8.240 -27.694  1.00  0.00     0.002 A 
HETATM   15  C   UNL     1       0.960   7.003 -27.711  1.00  0.00     0.032 A 
HETATM   16  N   UNL     1       1.013   4.831 -28.991  1.00  0.00    -0.277 N 
HETATM   17  H   UNL     1       1.724   4.300 -28.500  1.00  0.00     0.189 HD
HETATM   18  N   UNL     1       0.407   4.261 -30.045  1.00  0.00    -0.168 NA
ENDBRANCH   6   9
ENDBRANCH   1   5
BRANCH   2  19
HETATM   19  C   UNL     1      -5.568   3.222 -32.994  1.00  0.00     0.114 C 
BRANCH  19  20
HETATM   20  C   UNL     1      -6.237   1.854 -33.258  1.00  0.00    -0.031 C 
HETATM   21  C   UNL     1      -7.397   1.577 -32.268  1.00  0.00     0.014 C 
HETATM   22  C   UNL     1      -8.082   0.237 -32.593  1.00  0.00    -0.013 C 
HETATM   23  C   UNL     1      -7.045  -0.896 -32.507  1.00  0.00     0.009 C 
HETATM   24  C   UNL     1      -8.657   0.292 -34.016  1.00  0.00     0.009 C 
HETATM   25  C   UNL     1      -5.911  -0.654 -33.518  1.00  0.00    -0.013 C 
HETATM   26  C   UNL     1      -5.222   0.684 -33.197  1.00  0.00     0.014 C 
HETATM   27  C   UNL     1      -6.500  -0.594 -34.936  1.00  0.00     0.009 C 
HETATM   28  C   UNL     1      -7.528   0.543 -35.028  1.00  0.00    -0.013 C 
HETATM   29  C   UNL     1      -6.838   1.877 -34.694  1.00  0.00     0.014 C 
ENDBRANCH  19  20
ENDBRANCH   2  19
TORSDOF 4
ENDMDL
MODEL 7
REMARK VINA RESULT:      -8.6      2.696      3.984
REMARK  4 active torsions:
REMARK  status: ('A' for Active; 'I' for Inactive)
REMARK    1  A    between atoms: C_8  and  C_9 
REMARK       I    between atoms: C_9  and  N_10 
REMARK    2  A    between atoms: N_10  and  N_11 
REMARK       I    between atoms: N_11  and  C_12 
REMARK    3  A    between atoms: C_12  and  C_13 
REMARK    4  A    between atoms: C_13  and  C_14 
ROOT
HETATM    1  N   UNL     1      -2.145   5.103 -30.837  1.00  0.00    -0.267 N 
HETATM    2  C   UNL     1      -0.843   5.461 -30.541  1.00  0.00     0.236 C 
HETATM    3  O   UNL     1       0.060   4.636 -30.443  1.00  0.00    -0.272 OA
HETATM    4  H   UNL     1      -2.846   5.779 -31.137  1.00  0.00     0.190 HD
ENDROOT
BRANCH   1   5
HETATM    5  N   UNL     1      -2.395   3.767 -31.162  1.00  0.00    -0.262 N 
HETATM    6  C   UNL     1      -3.688   3.281 -31.138  1.00  0.00     0.291 C 
HETATM    7  O   UNL     1      -4.635   3.937 -30.707  1.00  0.00    -0.264 OA
HETATM    8  H   UNL     1      -1.673   3.245 -31.664  1.00  0.00     0.190 HD
BRANCH   6   9
HETATM    9  C   UNL     1      -3.806   1.919 -31.678  1.00  0.00     0.158 A 
HETATM   10  C   UNL     1      -4.763   1.438 -32.619  1.00  0.00     0.028 A 
HETATM   11  C   UNL     1      -5.848   1.982 -33.334  1.00  0.00     0.016 A 
HETATM   12  C   UNL     1      -4.455   0.093 -32.793  1.00  0.00     0.063 A 
HETATM   13  C   UNL     1      -6.580   1.154 -34.193  1.00  0.00     0.001 A 
HETATM   14  C   UNL     1      -6.246  -0.191 -34.344  1.00  0.00     0.002 A 
HETATM   15  C   UNL     1      -5.172  -0.752 -33.646  1.00  0.00     0.032 A 
HETATM   16  N   UNL     1      -3.376  -0.137 -31.987  1.00  0.00    -0.277 N 
HETATM   17  H   UNL     1      -2.878  -1.012 -31.861  1.00  0.00     0.189 HD
HETATM   18  N   UNL     1      -2.957   0.938 -31.299  1.00  0.00    -0.168 NA
ENDBRANCH   6   9
ENDBRANCH   1   5
BRANCH   2  19
HETATM   19  C   UNL     1      -0.687   6.961 -30.335  1.00  0.00     0.114 C 
BRANCH  19  20
HETATM   20  C   UNL     1      -0.279   7.444 -28.926  1.00  0.00    -0.031 C 
HETATM   21  C   UNL     1       1.153   8.036 -28.909  1.00  0.00     0.014 C 
HETATM   22  C   UNL     1       1.509   8.563 -27.507  1.00  0.00    -0.013 C 
HETATM   23  C   UNL     1       1.413   7.411 -26.493  1.00  0.00     0.009 C 
HETATM   24  C   UNL     1       0.519   9.670 -27.114  1.00  0.00     0.009 C 
HETATM   25  C   UNL     1      -0.017   6.846 -26.468  1.00  0.00    -0.013 C 
HETATM   26  C   UNL     1      -0.378   6.315 -27.868  1.00  0.00     0.014 C 
HETATM   27  C   UNL     1      -0.998   7.964 -26.081  1.00  0.00     0.009 C 
HETATM   28  C   UNL     1      -0.911   9.111 -27.098  1.00  0.00    -0.013 C 
HETATM   29  C   UNL     1      -1.261   8.575 -28.496  1.00  0.00     0.014 C 
ENDBRANCH  19  20
ENDBRANCH   2  19
TORSDOF 4
ENDMDL
MODEL 8
REMARK VINA RESULT:      -8.4      1.417      2.329
REMARK  4 active torsions:
REMARK  status: ('A' for Active; 'I' for Inactive)
REMARK    1  A    between atoms: C_8  and  C_9 
REMARK       I    between atoms: C_9  and  N_10 
REMARK    2  A    between atoms: N_10  and  N_11 
REMARK       I    between atoms: N_11  and  C_12 
REMARK    3  A    between atoms: C_12  and  C_13 
REMARK    4  A    between atoms: C_13  and  C_14 
ROOT
HETATM    1  N   UNL     1      -4.677   2.365 -32.669  1.00  0.00    -0.267 N 
HETATM    2  C   UNL     1      -4.623   3.070 -31.481  1.00  0.00     0.236 C 
HETATM    3  O   UNL     1      -4.494   2.516 -30.393  1.00  0.00    -0.272 OA
HETATM    4  H   UNL     1      -4.561   2.811 -33.578  1.00  0.00     0.190 HD
ENDROOT
BRANCH   1   5
HETATM    5  N   UNL     1      -4.443   0.988 -32.621  1.00  0.00    -0.262 N 
HETATM    6  C   UNL     1      -5.170   0.136 -33.428  1.00  0.00     0.291 C 
HETATM    7  O   UNL     1      -6.126   0.516 -34.103  1.00  0.00    -0.264 OA
HETATM    8  H   UNL     1      -3.572   0.657 -32.199  1.00  0.00     0.190 HD
BRANCH   6   9
HETATM    9  C   UNL     1      -4.683  -1.251 -33.395  1.00  0.00     0.158 A 
HETATM   10  C   UNL     1      -5.250  -2.385 -34.046  1.00  0.00     0.028 A 
HETATM   11  C   UNL     1      -6.358  -2.630 -34.881  1.00  0.00     0.016 A 
HETATM   12  C   UNL     1      -4.429  -3.451 -33.697  1.00  0.00     0.063 A 
HETATM   13  C   UNL     1      -6.597  -3.935 -35.329  1.00  0.00     0.001 A 
HETATM   14  C   UNL     1      -5.754  -4.982 -34.959  1.00  0.00     0.002 A 
HETATM   15  C   UNL     1      -4.647  -4.762 -34.133  1.00  0.00     0.032 A 
HETATM   16  N   UNL     1      -3.459  -2.912 -32.899  1.00  0.00    -0.277 N 
HETATM   17  H   UNL     1      -2.684  -3.398 -32.460  1.00  0.00     0.189 HD
HETATM   18  N   UNL     1      -3.579  -1.590 -32.693  1.00  0.00    -0.168 NA
ENDBRANCH   6   9
ENDBRANCH   1   5
BRANCH   2  19
HETATM   19  C   UNL     1      -4.764   4.571 -31.689  1.00  0.00     0.114 C 
BRANCH  19  20
HETATM   20  C   UNL     1      -3.490   5.355 -32.076  1.00  0.00    -0.031 C 
HETATM   21  C   UNL     1      -3.149   6.453 -31.035  1.00  0.00     0.014 C 
HETATM   22  C   UNL     1      -1.845   7.176 -31.415  1.00  0.00    -0.013 C 
HETATM   23  C   UNL     1      -2.004   7.813 -32.805  1.00  0.00     0.009 C 
HETATM   24  C   UNL     1      -0.692   6.162 -31.450  1.00  0.00     0.009 C 
HETATM   25  C   UNL     1      -2.298   6.726 -33.854  1.00  0.00    -0.013 C 
HETATM   26  C   UNL     1      -3.603   6.000 -33.481  1.00  0.00     0.014 C 
HETATM   27  C   UNL     1      -1.141   5.714 -33.874  1.00  0.00     0.009 C 
HETATM   28  C   UNL     1      -0.986   5.070 -32.489  1.00  0.00    -0.013 C 
HETATM   29  C   UNL     1      -2.296   4.356 -32.114  1.00  0.00     0.014 C 
ENDBRANCH  19  20
ENDBRANCH   2  19
TORSDOF 4
ENDMDL
MODEL 9
REMARK VINA RESULT:      -8.4      2.889      8.758
REMARK  4 active torsions:
REMARK  status: ('A' for Active; 'I' for Inactive)
REMARK    1  A    between atoms: C_8  and  C_9 
REMARK       I    between atoms: C_9  and  N_10 
REMARK    2  A    between atoms: N_10  and  N_11 
REMARK       I    between atoms: N_11  and  C_12 
REMARK    3  A    between atoms: C_12  and  C_13 
REMARK    4  A    between atoms: C_13  and  C_14 
ROOT
HETATM    1  N   UNL     1      -3.977   4.187 -31.848  1.00  0.00    -0.267 N 
HETATM    2  C   UNL     1      -5.114   3.610 -31.313  1.00  0.00     0.236 C 
HETATM    3  O   UNL     1      -5.152   3.167 -30.169  1.00  0.00    -0.272 OA
HETATM    4  H   UNL     1      -3.994   4.749 -32.698  1.00  0.00     0.190 HD
ENDROOT
BRANCH   1   5
HETATM    5  N   UNL     1      -2.885   4.382 -30.998  1.00  0.00    -0.262 N 
HETATM    6  C   UNL     1      -1.685   4.835 -31.510  1.00  0.00     0.291 C 
HETATM    7  O   UNL     1      -1.480   4.951 -32.718  1.00  0.00    -0.264 OA
HETATM    8  H   UNL     1      -3.056   4.445 -29.992  1.00  0.00     0.190 HD
BRANCH   6   9
HETATM    9  C   UNL     1      -0.698   5.162 -30.471  1.00  0.00     0.158 A 
HETATM   10  C   UNL     1      -0.601   6.367 -29.714  1.00  0.00     0.028 A 
HETATM   11  C   UNL     1      -1.309   7.582 -29.643  1.00  0.00     0.016 A 
HETATM   12  C   UNL     1       0.495   6.182 -28.879  1.00  0.00     0.063 A 
HETATM   13  C   UNL     1      -0.886   8.564 -28.739  1.00  0.00     0.001 A 
HETATM   14  C   UNL     1       0.218   8.348 -27.916  1.00  0.00     0.002 A 
HETATM   15  C   UNL     1       0.935   7.148 -27.968  1.00  0.00     0.032 A 
HETATM   16  N   UNL     1       0.963   4.932 -29.170  1.00  0.00    -0.277 N 
HETATM   17  H   UNL     1       1.757   4.459 -28.750  1.00  0.00     0.189 HD
HETATM   18  N   UNL     1       0.272   4.287 -30.125  1.00  0.00    -0.168 NA
ENDBRANCH   6   9
ENDBRANCH   1   5
BRANCH   2  19
HETATM   19  C   UNL     1      -6.268   3.576 -32.304  1.00  0.00     0.114 C 
BRANCH  19  20
HETATM   20  C   UNL     1      -6.671   2.198 -32.876  1.00  0.00    -0.031 C 
HETATM   21  C   UNL     1      -5.434   1.346 -33.256  1.00  0.00     0.014 C 
HETATM   22  C   UNL     1      -5.864  -0.041 -33.765  1.00  0.00    -0.013 C 
HETATM   23  C   UNL     1      -6.772   0.129 -34.994  1.00  0.00     0.009 C 
HETATM   24  C   UNL     1      -6.638  -0.772 -32.658  1.00  0.00     0.009 C 
HETATM   25  C   UNL     1      -8.027   0.935 -34.617  1.00  0.00    -0.013 C 
HETATM   26  C   UNL     1      -7.603   2.325 -34.108  1.00  0.00     0.014 C 
HETATM   27  C   UNL     1      -8.789   0.198 -33.504  1.00  0.00     0.009 C 
HETATM   28  C   UNL     1      -7.886   0.036 -32.272  1.00  0.00    -0.013 C 
HETATM   29  C   UNL     1      -7.455   1.426 -31.774  1.00  0.00     0.014 C 
ENDBRANCH  19  20
ENDBRANCH   2  19
TORSDOF 4
ENDMDL
MODEL 10
REMARK VINA RESULT:      -8.3      2.318      3.284
REMARK  4 active torsions:
REMARK  status: ('A' for Active; 'I' for Inactive)
REMARK    1  A    between atoms: C_8  and  C_9 
REMARK       I    between atoms: C_9  and  N_10 
REMARK    2  A    between atoms: N_10  and  N_11 
REMARK       I    between atoms: N_11  and  C_12 
REMARK    3  A    between atoms: C_12  and  C_13 
REMARK    4  A    between atoms: C_13  and  C_14 
ROOT
HETATM    1  N   UNL     1      -5.954   4.262 -31.795  1.00  0.00    -0.267 N 
HETATM    2  C   UNL     1      -5.001   4.051 -30.816  1.00  0.00     0.236 C 
HETATM    3  O   UNL     1      -4.749   2.934 -30.374  1.00  0.00    -0.272 OA
HETATM    4  H   UNL     1      -6.017   5.132 -32.321  1.00  0.00     0.190 HD
ENDROOT
BRANCH   1   5
HETATM    5  N   UNL     1      -6.545   3.139 -32.382  1.00  0.00    -0.262 N 
HETATM    6  C   UNL     1      -6.360   2.887 -33.728  1.00  0.00     0.291 C 
HETATM    7  O   UNL     1      -5.804   3.685 -34.482  1.00  0.00    -0.264 OA
HETATM    8  H   UNL     1      -6.874   2.388 -31.772  1.00  0.00     0.190 HD
BRANCH   6   9
HETATM    9  C   UNL     1      -6.887   1.582 -34.150  1.00  0.00     0.158 A 
HETATM   10  C   UNL     1      -6.244   0.313 -34.052  1.00  0.00     0.028 A 
HETATM   11  C   UNL     1      -5.009  -0.167 -33.574  1.00  0.00     0.016 A 
HETATM   12  C   UNL     1      -7.149  -0.594 -34.593  1.00  0.00     0.063 A 
HETATM   13  C   UNL     1      -4.732  -1.536 -33.660  1.00  0.00     0.001 A 
HETATM   14  C   UNL     1      -5.661  -2.419 -34.209  1.00  0.00     0.002 A 
HETATM   15  C   UNL     1      -6.894  -1.966 -34.688  1.00  0.00     0.032 A 
HETATM   16  N   UNL     1      -8.233   0.154 -34.960  1.00  0.00    -0.277 N 
HETATM   17  H   UNL     1      -9.090  -0.177 -35.389  1.00  0.00     0.189 HD
HETATM   18  N   UNL     1      -8.112   1.468 -34.711  1.00  0.00    -0.168 NA
ENDBRANCH   6   9
ENDBRANCH   1   5
BRANCH   2  19
HETATM   19  C   UNL     1      -4.346   5.344 -30.356  1.00  0.00     0.114 C 
BRANCH  19  20
HETATM   20  C   UNL     1      -3.123   5.843 -31.157  1.00  0.00    -0.031 C 
HETATM   21  C   UNL     1      -2.261   6.837 -30.338  1.00  0.00     0.014 C 
HETATM   22  C   UNL     1      -1.019   7.270 -31.139  1.00  0.00    -0.013 C 
HETATM   23  C   UNL     1      -1.469   7.934 -32.451  1.00  0.00     0.009 C 
HETATM   24  C   UNL     1      -0.166   6.035 -31.461  1.00  0.00     0.009 C 
HETATM   25  C   UNL     1      -2.288   6.941 -33.294  1.00  0.00    -0.013 C 
HETATM   26  C   UNL     1      -3.532   6.506 -32.498  1.00  0.00     0.014 C 
HETATM   27  C   UNL     1      -1.425   5.707 -33.603  1.00  0.00     0.009 C 
HETATM   28  C   UNL     1      -0.984   5.036 -32.294  1.00  0.00    -0.013 C 
HETATM   29  C   UNL     1      -2.229   4.614 -31.497  1.00  0.00     0.014 C 
ENDBRANCH  19  20
ENDBRANCH   2  19
TORSDOF 4
ENDMDL
