MODEL 1
REMARK VINA RESULT:      -8.4      0.000      0.000
REMARK  7 active torsions:
REMARK  status: ('A' for Active; 'I' for Inactive)
REMARK    1  A    between atoms: C_7  and  C_8 
REMARK    2  A    between atoms: C_8  and  N_9 
REMARK       I    between atoms: N_9  and  C_10 
REMARK       I    between atoms: C_10  and  N_11 
REMARK    3  A    between atoms: N_11  and  C_12 
REMARK    4  A    between atoms: C_12  and  C_13 
REMARK    5  A    between atoms: C_13  and  C_14 
REMARK    6  A    between atoms: C_14  and  O_15 
REMARK    7  A    between atoms: C_14  and  C_16 
ROOT
HETATM    1  N   UNL     1      -3.922   3.022 -30.772  1.00  0.00    -0.337 N 
HETATM    2  C   UNL     1      -3.484   4.150 -31.422  1.00  0.00     0.316 C 
HETATM    3  N   UNL     1      -2.131   4.288 -31.328  1.00  0.00    -0.339 N 
HETATM    4  O   UNL     1      -4.244   4.939 -31.971  1.00  0.00    -0.247 OA
HETATM    5  H   UNL     1      -3.246   2.270 -30.780  1.00  0.00     0.164 HD
HETATM    6  H   UNL     1      -1.655   3.752 -30.616  1.00  0.00     0.164 HD
ENDROOT
BRANCH   1   7
HETATM    7  C   UNL     1      -5.317   2.625 -30.842  1.00  0.00     0.183 C 
BRANCH   7   8
HETATM    8  C   UNL     1      -5.490   1.492 -31.787  1.00  0.00     0.044 A 
HETATM    9  N   UNL     1      -4.678   0.365 -31.763  1.00  0.00    -0.343 N 
HETATM   10  C   UNL     1      -5.004  -0.479 -32.729  1.00  0.00     0.112 A 
HETATM   11  H   UNL     1      -3.891   0.266 -31.109  1.00  0.00     0.167 HD
HETATM   12  N   UNL     1      -6.052   0.047 -33.395  1.00  0.00    -0.311 N 
HETATM   13  C   UNL     1      -4.407  -1.779 -33.113  1.00  0.00     0.049 A 
HETATM   14  C   UNL     1      -6.644  -0.592 -34.484  1.00  0.00     0.014 A 
HETATM   15  C   UNL     1      -6.374   1.270 -32.821  1.00  0.00     0.125 A 
HETATM   16  C   UNL     1      -7.804   0.025 -35.206  1.00  0.00     0.068 C 
HETATM   17  C   UNL     1      -6.108  -1.780 -34.844  1.00  0.00     0.025 A 
HETATM   18  C   UNL     1      -4.975  -2.398 -34.162  1.00  0.00     0.006 A 
ENDBRANCH   7   8
ENDBRANCH   1   7
BRANCH   3  19
HETATM   19  C   UNL     1      -1.351   5.367 -31.950  1.00  0.00     0.085 C 
HETATM   20  C   UNL     1      -1.313   5.232 -33.471  1.00  0.00     0.032 C 
BRANCH  19  21
HETATM   21  C   UNL     1       0.035   5.476 -31.280  1.00  0.00     0.063 C 
BRANCH  21  22
HETATM   22  C   UNL     1       0.099   5.146 -29.784  1.00  0.00     0.177 C 
BRANCH  22  23
HETATM   23  O   UNL     1       1.039   4.100 -29.550  1.00  0.00    -0.389 OA
HETATM   24  H   UNL     1       1.692   4.141 -30.269  1.00  0.00     0.210 HD
ENDBRANCH  22  23
BRANCH  22  25
HETATM   25  C   UNL     1       0.473   6.296 -28.914  1.00  0.00     0.081 A 
HETATM   26  O   UNL     1       0.578   6.048 -27.573  1.00  0.00    -0.324 OA
HETATM   27  C   UNL     1       0.936   7.214 -26.978  1.00  0.00     0.142 A 
HETATM   28  C   UNL     1       1.075   8.211 -27.914  1.00  0.00     0.027 A 
HETATM   29  C   UNL     1       0.781   7.618 -29.165  1.00  0.00     0.037 A 
ENDBRANCH  22  25
ENDBRANCH  21  22
ENDBRANCH  19  21
ENDBRANCH   3  19
TORSDOF 7
ENDMDL
MODEL 2
REMARK VINA RESULT:      -8.3      2.134      3.552
REMARK  7 active torsions:
REMARK  status: ('A' for Active; 'I' for Inactive)
REMARK    1  A    between atoms: C_7  and  C_8 
REMARK    2  A    between atoms: C_8  and  N_9 
REMARK       I    between atoms: N_9  and  C_10 
REMARK       I    between atoms: C_10  and  N_11 
REMARK    3  A    between atoms: N_11  and  C_12 
REMARK    4  A    between atoms: C_12  and  C_13 
REMARK    5  A    between atoms: C_13  and  C_14 
REMARK    6  A    between atoms: C_14  and  O_15 
REMARK    7  A    between atoms: C_14  and  C_16 
ROOT
HETATM    1  N   UNL     1      -3.928   1.664 -32.555  1.00  0.00    -0.337 N 
HETATM    2  C   UNL     1      -3.478   2.867 -32.069  1.00  0.00     0.316 C 
HETATM    3  N   UNL     1      -4.062   3.917 -32.712  1.00  0.00    -0.339 N 
HETATM    4  O   UNL     1      -2.622   2.953 -31.196  1.00  0.00    -0.247 OA
HETATM    5  H   UNL     1      -4.883   1.701 -32.886  1.00  0.00     0.164 HD
HETATM    6  H   UNL     1      -4.515   3.731 -33.595  1.00  0.00     0.164 HD
ENDROOT
BRANCH   1   7
HETATM    7  C   UNL     1      -3.518   0.417 -31.934  1.00  0.00     0.183 C 
BRANCH   7   8
HETATM    8  C   UNL     1      -4.067  -0.743 -32.681  1.00  0.00     0.044 A 
HETATM    9  N   UNL     1      -5.299  -0.707 -33.323  1.00  0.00    -0.343 N 
HETATM   10  C   UNL     1      -5.583  -1.874 -33.877  1.00  0.00     0.112 A 
HETATM   11  H   UNL     1      -5.913   0.117 -33.290  1.00  0.00     0.167 HD
HETATM   12  N   UNL     1      -4.543  -2.700 -33.647  1.00  0.00    -0.311 N 
HETATM   13  C   UNL     1      -6.780  -2.318 -34.628  1.00  0.00     0.049 A 
HETATM   14  C   UNL     1      -4.520  -4.020 -34.096  1.00  0.00     0.014 A 
HETATM   15  C   UNL     1      -3.586  -2.015 -32.909  1.00  0.00     0.125 A 
HETATM   16  C   UNL     1      -3.350  -4.913 -33.816  1.00  0.00     0.068 C 
HETATM   17  C   UNL     1      -5.609  -4.436 -34.783  1.00  0.00     0.025 A 
HETATM   18  C   UNL     1      -6.763  -3.589 -35.063  1.00  0.00     0.006 A 
ENDBRANCH   7   8
ENDBRANCH   1   7
BRANCH   3  19
HETATM   19  C   UNL     1      -3.823   5.333 -32.398  1.00  0.00     0.085 C 
HETATM   20  C   UNL     1      -5.116   6.053 -32.020  1.00  0.00     0.032 C 
BRANCH  19  21
HETATM   21  C   UNL     1      -3.024   6.002 -33.536  1.00  0.00     0.063 C 
BRANCH  21  22
HETATM   22  C   UNL     1      -1.529   5.669 -33.611  1.00  0.00     0.177 C 
BRANCH  22  23
HETATM   23  O   UNL     1      -0.915   6.396 -34.672  1.00  0.00    -0.389 OA
HETATM   24  H   UNL     1      -0.100   6.785 -34.312  1.00  0.00     0.210 HD
ENDBRANCH  22  23
BRANCH  22  25
HETATM   25  C   UNL     1      -0.770   5.958 -32.362  1.00  0.00     0.081 A 
HETATM   26  O   UNL     1      -0.194   4.891 -31.728  1.00  0.00    -0.324 OA
HETATM   27  C   UNL     1       0.450   5.375 -30.636  1.00  0.00     0.142 A 
HETATM   28  C   UNL     1       0.310   6.740 -30.559  1.00  0.00     0.027 A 
HETATM   29  C   UNL     1      -0.473   7.118 -31.675  1.00  0.00     0.037 A 
ENDBRANCH  22  25
ENDBRANCH  21  22
ENDBRANCH  19  21
ENDBRANCH   3  19
TORSDOF 7
ENDMDL
MODEL 3
REMARK VINA RESULT:      -8.3      0.705      1.726
REMARK  7 active torsions:
REMARK  status: ('A' for Active; 'I' for Inactive)
REMARK    1  A    between atoms: C_7  and  C_8 
REMARK    2  A    between atoms: C_8  and  N_9 
REMARK       I    between atoms: N_9  and  C_10 
REMARK       I    between atoms: C_10  and  N_11 
REMARK    3  A    between atoms: N_11  and  C_12 
REMARK    4  A    between atoms: C_12  and  C_13 
REMARK    5  A    between atoms: C_13  and  C_14 
REMARK    6  A    between atoms: C_14  and  O_15 
REMARK    7  A    between atoms: C_14  and  C_16 
ROOT
HETATM    1  N   UNL     1      -4.113   3.427 -30.633  1.00  0.00    -0.337 N 
HETATM    2  C   UNL     1      -3.591   4.453 -31.381  1.00  0.00     0.316 C 
HETATM    3  N   UNL     1      -2.233   4.505 -31.281  1.00  0.00    -0.339 N 
HETATM    4  O   UNL     1      -4.289   5.238 -32.013  1.00  0.00    -0.247 OA
HETATM    5  H   UNL     1      -3.492   2.632 -30.560  1.00  0.00     0.164 HD
HETATM    6  H   UNL     1      -1.801   4.009 -30.515  1.00  0.00     0.164 HD
ENDROOT
BRANCH   1   7
HETATM    7  C   UNL     1      -5.532   3.123 -30.685  1.00  0.00     0.183 C 
BRANCH   7   8
HETATM    8  C   UNL     1      -5.818   2.151 -31.772  1.00  0.00     0.044 A 
HETATM    9  N   UNL     1      -6.843   2.334 -32.691  1.00  0.00    -0.343 N 
HETATM   10  C   UNL     1      -6.922   1.312 -33.528  1.00  0.00     0.112 A 
HETATM   11  H   UNL     1      -7.482   3.138 -32.651  1.00  0.00     0.167 HD
HETATM   12  N   UNL     1      -5.940   0.445 -33.208  1.00  0.00    -0.311 N 
HETATM   13  C   UNL     1      -7.865   1.048 -34.639  1.00  0.00     0.049 A 
HETATM   14  C   UNL     1      -5.743  -0.751 -33.897  1.00  0.00     0.014 A 
HETATM   15  C   UNL     1      -5.237   0.951 -32.122  1.00  0.00     0.125 A 
HETATM   16  C   UNL     1      -4.644  -1.694 -33.512  1.00  0.00     0.068 C 
HETATM   17  C   UNL     1      -6.597  -1.002 -34.915  1.00  0.00     0.025 A 
HETATM   18  C   UNL     1      -7.679  -0.104 -35.306  1.00  0.00     0.006 A 
ENDBRANCH   7   8
ENDBRANCH   1   7
BRANCH   3  19
HETATM   19  C   UNL     1      -1.373   5.463 -31.992  1.00  0.00     0.085 C 
HETATM   20  C   UNL     1      -1.306   5.158 -33.487  1.00  0.00     0.032 C 
BRANCH  19  21
HETATM   21  C   UNL     1      -0.001   5.566 -31.294  1.00  0.00     0.063 C 
BRANCH  21  22
HETATM   22  C   UNL     1       0.041   5.188 -29.809  1.00  0.00     0.177 C 
BRANCH  22  23
HETATM   23  O   UNL     1       0.955   4.115 -29.599  1.00  0.00    -0.389 OA
HETATM   24  H   UNL     1       0.442   3.374 -29.232  1.00  0.00     0.210 HD
ENDBRANCH  22  23
BRANCH  22  25
HETATM   25  C   UNL     1       0.430   6.302 -28.899  1.00  0.00     0.081 A 
HETATM   26  O   UNL     1       0.451   6.027 -27.559  1.00  0.00    -0.324 OA
HETATM   27  C   UNL     1       0.840   7.162 -26.925  1.00  0.00     0.142 A 
HETATM   28  C   UNL     1       1.082   8.164 -27.834  1.00  0.00     0.027 A 
HETATM   29  C   UNL     1       0.822   7.609 -29.108  1.00  0.00     0.037 A 
ENDBRANCH  22  25
ENDBRANCH  21  22
ENDBRANCH  19  21
ENDBRANCH   3  19
TORSDOF 7
ENDMDL
MODEL 4
REMARK VINA RESULT:      -7.9      5.859      9.147
REMARK  7 active torsions:
REMARK  status: ('A' for Active; 'I' for Inactive)
REMARK    1  A    between atoms: C_7  and  C_8 
REMARK    2  A    between atoms: C_8  and  N_9 
REMARK       I    between atoms: N_9  and  C_10 
REMARK       I    between atoms: C_10  and  N_11 
REMARK    3  A    between atoms: N_11  and  C_12 
REMARK    4  A    between atoms: C_12  and  C_13 
REMARK    5  A    between atoms: C_13  and  C_14 
REMARK    6  A    between atoms: C_14  and  O_15 
REMARK    7  A    between atoms: C_14  and  C_16 
ROOT
HETATM    1  N   UNL     1      -6.105   1.177 -32.274  1.00  0.00    -0.337 N 
HETATM    2  C   UNL     1      -6.935   2.101 -32.860  1.00  0.00     0.316 C 
HETATM    3  N   UNL     1      -7.964   2.445 -32.034  1.00  0.00    -0.339 N 
HETATM    4  O   UNL     1      -6.772   2.513 -34.003  1.00  0.00    -0.247 OA
HETATM    5  H   UNL     1      -6.054   1.269 -31.269  1.00  0.00     0.164 HD
HETATM    6  H   UNL     1      -8.160   1.835 -31.253  1.00  0.00     0.164 HD
ENDROOT
BRANCH   1   7
HETATM    7  C   UNL     1      -4.884   0.757 -32.938  1.00  0.00     0.183 C 
BRANCH   7   8
HETATM    8  C   UNL     1      -5.007  -0.643 -33.420  1.00  0.00     0.044 A 
HETATM    9  N   UNL     1      -6.060  -1.072 -34.218  1.00  0.00    -0.343 N 
HETATM   10  C   UNL     1      -5.968  -2.366 -34.476  1.00  0.00     0.112 A 
HETATM   11  H   UNL     1      -6.831  -0.450 -34.494  1.00  0.00     0.167 HD
HETATM   12  N   UNL     1      -4.843  -2.821 -33.887  1.00  0.00    -0.311 N 
HETATM   13  C   UNL     1      -6.863  -3.261 -35.244  1.00  0.00     0.049 A 
HETATM   14  C   UNL     1      -4.446  -4.155 -33.961  1.00  0.00     0.014 A 
HETATM   15  C   UNL     1      -4.227  -1.764 -33.230  1.00  0.00     0.125 A 
HETATM   16  C   UNL     1      -3.193  -4.628 -33.289  1.00  0.00     0.068 C 
HETATM   17  C   UNL     1      -5.256  -4.983 -34.661  1.00  0.00     0.025 A 
HETATM   18  C   UNL     1      -6.484  -4.548 -35.318  1.00  0.00     0.006 A 
ENDBRANCH   7   8
ENDBRANCH   1   7
BRANCH   3  19
HETATM   19  C   UNL     1      -9.000   3.439 -32.349  1.00  0.00     0.085 C 
HETATM   20  C   UNL     1      -9.004   4.588 -31.343  1.00  0.00     0.032 C 
BRANCH  19  21
HETATM   21  C   UNL     1     -10.364   2.743 -32.536  1.00  0.00     0.063 C 
BRANCH  21  22
HETATM   22  C   UNL     1     -10.776   2.421 -33.977  1.00  0.00     0.177 C 
BRANCH  22  23
HETATM   23  O   UNL     1      -9.738   1.701 -34.638  1.00  0.00    -0.389 OA
HETATM   24  H   UNL     1      -8.901   2.146 -34.417  1.00  0.00     0.210 HD
ENDBRANCH  22  23
BRANCH  22  25
HETATM   25  C   UNL     1     -12.029   1.625 -34.098  1.00  0.00     0.081 A 
HETATM   26  O   UNL     1     -12.037   0.391 -33.507  1.00  0.00    -0.324 OA
HETATM   27  C   UNL     1     -13.263  -0.148 -33.724  1.00  0.00     0.142 A 
HETATM   28  C   UNL     1     -14.054   0.722 -34.437  1.00  0.00     0.027 A 
HETATM   29  C   UNL     1     -13.260   1.868 -34.674  1.00  0.00     0.037 A 
ENDBRANCH  22  25
ENDBRANCH  21  22
ENDBRANCH  19  21
ENDBRANCH   3  19
TORSDOF 7
ENDMDL
MODEL 5
REMARK VINA RESULT:      -7.6      1.418      2.445
REMARK  7 active torsions:
REMARK  status: ('A' for Active; 'I' for Inactive)
REMARK    1  A    between atoms: C_7  and  C_8 
REMARK    2  A    between atoms: C_8  and  N_9 
REMARK       I    between atoms: N_9  and  C_10 
REMARK       I    between atoms: C_10  and  N_11 
REMARK    3  A    between atoms: N_11  and  C_12 
REMARK    4  A    between atoms: C_12  and  C_13 
REMARK    5  A    between atoms: C_13  and  C_14 
REMARK    6  A    between atoms: C_14  and  O_15 
REMARK    7  A    between atoms: C_14  and  C_16 
ROOT
HETATM    1  N   UNL     1      -3.380   2.254 -31.969  1.00  0.00    -0.337 N 
HETATM    2  C   UNL     1      -3.410   3.590 -32.282  1.00  0.00     0.316 C 
HETATM    3  N   UNL     1      -2.176   4.050 -32.635  1.00  0.00    -0.339 N 
HETATM    4  O   UNL     1      -4.426   4.271 -32.202  1.00  0.00    -0.247 OA
HETATM    5  H   UNL     1      -2.680   1.739 -32.486  1.00  0.00     0.164 HD
HETATM    6  H   UNL     1      -1.377   3.485 -32.382  1.00  0.00     0.164 HD
ENDROOT
BRANCH   1   7
HETATM    7  C   UNL     1      -4.609   1.538 -31.674  1.00  0.00     0.183 C 
BRANCH   7   8
HETATM    8  C   UNL     1      -4.623   0.222 -32.361  1.00  0.00     0.044 A 
HETATM    9  N   UNL     1      -5.421  -0.037 -33.469  1.00  0.00    -0.343 N 
HETATM   10  C   UNL     1      -5.289  -1.291 -33.871  1.00  0.00     0.112 A 
HETATM   11  H   UNL     1      -6.070   0.660 -33.855  1.00  0.00     0.167 HD
HETATM   12  N   UNL     1      -4.384  -1.884 -33.066  1.00  0.00    -0.311 N 
HETATM   13  C   UNL     1      -5.953  -2.024 -34.972  1.00  0.00     0.049 A 
HETATM   14  C   UNL     1      -4.012  -3.220 -33.214  1.00  0.00     0.014 A 
HETATM   15  C   UNL     1      -3.953  -0.959 -32.124  1.00  0.00     0.125 A 
HETATM   16  C   UNL     1      -3.007  -3.850 -32.298  1.00  0.00     0.068 C 
HETATM   17  C   UNL     1      -4.612  -3.900 -34.218  1.00  0.00     0.025 A 
HETATM   18  C   UNL     1      -5.598  -3.312 -35.119  1.00  0.00     0.006 A 
ENDBRANCH   7   8
ENDBRANCH   1   7
BRANCH   3  19
HETATM   19  C   UNL     1      -1.880   5.424 -33.063  1.00  0.00     0.085 C 
HETATM   20  C   UNL     1      -1.463   5.479 -34.532  1.00  0.00     0.032 C 
BRANCH  19  21
HETATM   21  C   UNL     1      -0.885   6.084 -32.086  1.00  0.00     0.063 C 
BRANCH  21  22
HETATM   22  C   UNL     1      -1.486   6.746 -30.841  1.00  0.00     0.177 C 
BRANCH  22  23
HETATM   23  O   UNL     1      -2.632   6.022 -30.402  1.00  0.00    -0.389 OA
HETATM   24  H   UNL     1      -2.374   5.552 -29.590  1.00  0.00     0.210 HD
ENDBRANCH  22  23
BRANCH  22  25
HETATM   25  C   UNL     1      -0.549   6.858 -29.689  1.00  0.00     0.081 A 
HETATM   26  O   UNL     1      -0.088   5.688 -29.151  1.00  0.00    -0.324 OA
HETATM   27  C   UNL     1       0.751   6.017 -28.136  1.00  0.00     0.142 A 
HETATM   28  C   UNL     1       0.849   7.383 -28.015  1.00  0.00     0.027 A 
HETATM   29  C   UNL     1       0.015   7.926 -29.020  1.00  0.00     0.037 A 
ENDBRANCH  22  25
ENDBRANCH  21  22
ENDBRANCH  19  21
ENDBRANCH   3  19
TORSDOF 7
ENDMDL
MODEL 6
REMARK VINA RESULT:      -7.5      2.070      3.101
REMARK  7 active torsions:
REMARK  status: ('A' for Active; 'I' for Inactive)
REMARK    1  A    between atoms: C_7  and  C_8 
REMARK    2  A    between atoms: C_8  and  N_9 
REMARK       I    between atoms: N_9  and  C_10 
REMARK       I    between atoms: C_10  and  N_11 
REMARK    3  A    between atoms: N_11  and  C_12 
REMARK    4  A    between atoms: C_12  and  C_13 
REMARK    5  A    between atoms: C_13  and  C_14 
REMARK    6  A    between atoms: C_14  and  O_15 
REMARK    7  A    between atoms: C_14  and  C_16 
ROOT
HETATM    1  N   UNL     1      -5.621   3.870 -34.002  1.00  0.00    -0.337 N 
HETATM    2  C   UNL     1      -4.441   4.442 -33.595  1.00  0.00     0.316 C 
HETATM    3  N   UNL     1      -3.971   5.330 -34.516  1.00  0.00    -0.339 N 
HETATM    4  O   UNL     1      -3.879   4.137 -32.549  1.00  0.00    -0.247 OA
HETATM    5  H   UNL     1      -6.184   4.485 -34.576  1.00  0.00     0.164 HD
HETATM    6  H   UNL     1      -4.351   5.279 -35.451  1.00  0.00     0.164 HD
ENDROOT
BRANCH   1   7
HETATM    7  C   UNL     1      -6.351   2.978 -33.119  1.00  0.00     0.183 C 
BRANCH   7   8
HETATM    8  C   UNL     1      -5.937   1.569 -33.343  1.00  0.00     0.044 A 
HETATM    9  N   UNL     1      -6.575   0.735 -34.252  1.00  0.00    -0.343 N 
HETATM   10  C   UNL     1      -6.050  -0.480 -34.235  1.00  0.00     0.112 A 
HETATM   11  H   UNL     1      -7.390   1.037 -34.799  1.00  0.00     0.167 HD
HETATM   12  N   UNL     1      -5.039  -0.476 -33.343  1.00  0.00    -0.311 N 
HETATM   13  C   UNL     1      -6.416  -1.698 -34.994  1.00  0.00     0.049 A 
HETATM   14  C   UNL     1      -4.271  -1.609 -33.076  1.00  0.00     0.014 A 
HETATM   15  C   UNL     1      -4.947   0.791 -32.781  1.00  0.00     0.125 A 
HETATM   16  C   UNL     1      -3.158  -1.571 -32.073  1.00  0.00     0.068 C 
HETATM   17  C   UNL     1      -4.596  -2.727 -33.764  1.00  0.00     0.025 A 
HETATM   18  C   UNL     1      -5.679  -2.792 -34.740  1.00  0.00     0.006 A 
ENDBRANCH   7   8
ENDBRANCH   1   7
BRANCH   3  19
HETATM   19  C   UNL     1      -2.752   6.137 -34.362  1.00  0.00     0.085 C 
HETATM   20  C   UNL     1      -1.495   5.318 -34.651  1.00  0.00     0.032 C 
BRANCH  19  21
HETATM   21  C   UNL     1      -2.755   6.848 -32.993  1.00  0.00     0.063 C 
BRANCH  21  22
HETATM   22  C   UNL     1      -1.499   7.651 -32.636  1.00  0.00     0.177 C 
BRANCH  22  23
HETATM   23  O   UNL     1      -1.837   9.016 -32.402  1.00  0.00    -0.389 OA
HETATM   24  H   UNL     1      -2.679   9.181 -32.862  1.00  0.00     0.210 HD
ENDBRANCH  22  23
BRANCH  22  25
HETATM   25  C   UNL     1      -0.766   7.152 -31.439  1.00  0.00     0.081 A 
HETATM   26  O   UNL     1      -1.034   7.770 -30.248  1.00  0.00    -0.324 OA
HETATM   27  C   UNL     1      -0.279   7.158 -29.301  1.00  0.00     0.142 A 
HETATM   28  C   UNL     1       0.467   6.146 -29.858  1.00  0.00     0.027 A 
HETATM   29  C   UNL     1       0.149   6.139 -31.237  1.00  0.00     0.037 A 
ENDBRANCH  22  25
ENDBRANCH  21  22
ENDBRANCH  19  21
ENDBRANCH   3  19
TORSDOF 7
ENDMDL
MODEL 7
REMARK VINA RESULT:      -7.5      3.508      9.214
REMARK  7 active torsions:
REMARK  status: ('A' for Active; 'I' for Inactive)
REMARK    1  A    between atoms: C_7  and  C_8 
REMARK    2  A    between atoms: C_8  and  N_9 
REMARK       I    between atoms: N_9  and  C_10 
REMARK       I    between atoms: C_10  and  N_11 
REMARK    3  A    between atoms: N_11  and  C_12 
REMARK    4  A    between atoms: C_12  and  C_13 
REMARK    5  A    between atoms: C_13  and  C_14 
REMARK    6  A    between atoms: C_14  and  O_15 
REMARK    7  A    between atoms: C_14  and  C_16 
ROOT
HETATM    1  N   UNL     1      -6.287   3.050 -32.239  1.00  0.00    -0.337 N 
HETATM    2  C   UNL     1      -7.030   1.895 -32.228  1.00  0.00     0.316 C 
HETATM    3  N   UNL     1      -7.554   1.625 -33.457  1.00  0.00    -0.339 N 
HETATM    4  O   UNL     1      -7.218   1.235 -31.212  1.00  0.00    -0.247 OA
HETATM    5  H   UNL     1      -5.838   3.226 -33.128  1.00  0.00     0.164 HD
HETATM    6  H   UNL     1      -7.580   2.378 -34.129  1.00  0.00     0.164 HD
ENDROOT
BRANCH   1   7
HETATM    7  C   UNL     1      -5.547   3.463 -31.059  1.00  0.00     0.183 C 
BRANCH   7   8
HETATM    8  C   UNL     1      -4.345   4.246 -31.445  1.00  0.00     0.044 A 
HETATM    9  N   UNL     1      -3.671   5.073 -30.555  1.00  0.00    -0.343 N 
HETATM   10  C   UNL     1      -2.664   5.693 -31.148  1.00  0.00     0.112 A 
HETATM   11  H   UNL     1      -3.986   5.213 -29.587  1.00  0.00     0.167 HD
HETATM   12  N   UNL     1      -2.624   5.274 -32.429  1.00  0.00    -0.311 N 
HETATM   13  C   UNL     1      -1.698   6.683 -30.620  1.00  0.00     0.049 A 
HETATM   14  C   UNL     1      -1.676   5.740 -33.340  1.00  0.00     0.014 A 
HETATM   15  C   UNL     1      -3.657   4.369 -32.633  1.00  0.00     0.125 A 
HETATM   16  C   UNL     1      -1.664   5.257 -34.759  1.00  0.00     0.068 C 
HETATM   17  C   UNL     1      -0.787   6.644 -32.868  1.00  0.00     0.025 A 
HETATM   18  C   UNL     1      -0.782   7.134 -31.494  1.00  0.00     0.006 A 
ENDBRANCH   7   8
ENDBRANCH   1   7
BRANCH   3  19
HETATM   19  C   UNL     1      -8.362   0.442 -33.785  1.00  0.00     0.085 C 
HETATM   20  C   UNL     1      -9.735   0.495 -33.116  1.00  0.00     0.032 C 
BRANCH  19  21
HETATM   21  C   UNL     1      -7.560  -0.845 -33.504  1.00  0.00     0.063 C 
BRANCH  21  22
HETATM   22  C   UNL     1      -6.370  -1.125 -34.429  1.00  0.00     0.177 C 
BRANCH  22  23
HETATM   23  O   UNL     1      -5.214  -0.427 -33.972  1.00  0.00    -0.389 OA
HETATM   24  H   UNL     1      -5.414  -0.110 -33.074  1.00  0.00     0.210 HD
ENDBRANCH  22  23
BRANCH  22  25
HETATM   25  C   UNL     1      -6.011  -2.565 -34.555  1.00  0.00     0.081 A 
HETATM   26  O   UNL     1      -4.718  -2.907 -34.268  1.00  0.00    -0.324 OA
HETATM   27  C   UNL     1      -4.615  -4.251 -34.431  1.00  0.00     0.142 A 
HETATM   28  C   UNL     1      -5.824  -4.786 -34.808  1.00  0.00     0.027 A 
HETATM   29  C   UNL     1      -6.727  -3.700 -34.883  1.00  0.00     0.037 A 
ENDBRANCH  22  25
ENDBRANCH  21  22
ENDBRANCH  19  21
ENDBRANCH   3  19
TORSDOF 7
ENDMDL
MODEL 8
REMARK VINA RESULT:      -7.5      6.710      9.979
REMARK  7 active torsions:
REMARK  status: ('A' for Active; 'I' for Inactive)
REMARK    1  A    between atoms: C_7  and  C_8 
REMARK    2  A    between atoms: C_8  and  N_9 
REMARK       I    between atoms: N_9  and  C_10 
REMARK       I    between atoms: C_10  and  N_11 
REMARK    3  A    between atoms: N_11  and  C_12 
REMARK    4  A    between atoms: C_12  and  C_13 
REMARK    5  A    between atoms: C_13  and  C_14 
REMARK    6  A    between atoms: C_14  and  O_15 
REMARK    7  A    between atoms: C_14  and  C_16 
ROOT
HETATM    1  N   UNL     1      -9.741   0.780 -32.113  1.00  0.00    -0.337 N 
HETATM    2  C   UNL     1     -10.444   1.522 -33.029  1.00  0.00     0.316 C 
HETATM    3  N   UNL     1     -11.734   1.095 -33.136  1.00  0.00    -0.339 N 
HETATM    4  O   UNL     1      -9.935   2.422 -33.688  1.00  0.00    -0.247 OA
HETATM    5  H   UNL     1     -10.316   0.432 -31.357  1.00  0.00     0.164 HD
HETATM    6  H   UNL     1     -11.954   0.178 -32.774  1.00  0.00     0.164 HD
ENDROOT
BRANCH   1   7
HETATM    7  C   UNL     1      -8.377   1.138 -31.763  1.00  0.00     0.183 C 
BRANCH   7   8
HETATM    8  C   UNL     1      -7.415   0.184 -32.371  1.00  0.00     0.044 A 
HETATM    9  N   UNL     1      -7.758  -0.663 -33.417  1.00  0.00    -0.343 N 
HETATM   10  C   UNL     1      -6.743  -1.444 -33.752  1.00  0.00     0.112 A 
HETATM   11  H   UNL     1      -8.707  -0.698 -33.809  1.00  0.00     0.167 HD
HETATM   12  N   UNL     1      -5.699  -1.118 -32.963  1.00  0.00    -0.311 N 
HETATM   13  C   UNL     1      -6.647  -2.513 -34.772  1.00  0.00     0.049 A 
HETATM   14  C   UNL     1      -4.465  -1.760 -33.052  1.00  0.00     0.014 A 
HETATM   15  C   UNL     1      -6.094  -0.103 -32.101  1.00  0.00     0.125 A 
HETATM   16  C   UNL     1      -3.327  -1.376 -32.155  1.00  0.00     0.068 C 
HETATM   17  C   UNL     1      -4.364  -2.738 -33.981  1.00  0.00     0.025 A 
HETATM   18  C   UNL     1      -5.459  -3.134 -34.861  1.00  0.00     0.006 A 
ENDBRANCH   7   8
ENDBRANCH   1   7
BRANCH   3  19
HETATM   19  C   UNL     1     -12.753   1.707 -34.000  1.00  0.00     0.085 C 
HETATM   20  C   UNL     1     -12.329   1.694 -35.468  1.00  0.00     0.032 C 
BRANCH  19  21
HETATM   21  C   UNL     1     -13.147   3.096 -33.457  1.00  0.00     0.063 C 
BRANCH  21  22
HETATM   22  C   UNL     1     -14.354   3.144 -32.512  1.00  0.00     0.177 C 
BRANCH  22  23
HETATM   23  O   UNL     1     -14.528   1.883 -31.871  1.00  0.00    -0.389 OA
HETATM   24  H   UNL     1     -15.199   2.010 -31.178  1.00  0.00     0.210 HD
ENDBRANCH  22  23
BRANCH  22  25
HETATM   25  C   UNL     1     -14.265   4.186 -31.451  1.00  0.00     0.081 A 
HETATM   26  O   UNL     1     -15.251   5.134 -31.431  1.00  0.00    -0.324 OA
HETATM   27  C   UNL     1     -14.986   5.964 -30.390  1.00  0.00     0.142 A 
HETATM   28  C   UNL     1     -13.850   5.562 -29.729  1.00  0.00     0.027 A 
HETATM   29  C   UNL     1     -13.387   4.412 -30.410  1.00  0.00     0.037 A 
ENDBRANCH  22  25
ENDBRANCH  21  22
ENDBRANCH  19  21
ENDBRANCH   3  19
TORSDOF 7
ENDMDL
MODEL 9
REMARK VINA RESULT:      -7.4      1.346      1.529
REMARK  7 active torsions:
REMARK  status: ('A' for Active; 'I' for Inactive)
REMARK    1  A    between atoms: C_7  and  C_8 
REMARK    2  A    between atoms: C_8  and  N_9 
REMARK       I    between atoms: N_9  and  C_10 
REMARK       I    between atoms: C_10  and  N_11 
REMARK    3  A    between atoms: N_11  and  C_12 
REMARK    4  A    between atoms: C_12  and  C_13 
REMARK    5  A    between atoms: C_13  and  C_14 
REMARK    6  A    between atoms: C_14  and  O_15 
REMARK    7  A    between atoms: C_14  and  C_16 
ROOT
HETATM    1  N   UNL     1      -4.323   3.922 -30.613  1.00  0.00    -0.337 N 
HETATM    2  C   UNL     1      -3.703   4.968 -31.251  1.00  0.00     0.316 C 
HETATM    3  N   UNL     1      -2.405   5.097 -30.857  1.00  0.00    -0.339 N 
HETATM    4  O   UNL     1      -4.284   5.705 -32.040  1.00  0.00    -0.247 OA
HETATM    5  H   UNL     1      -3.693   3.164 -30.387  1.00  0.00     0.164 HD
HETATM    6  H   UNL     1      -2.128   4.633 -30.003  1.00  0.00     0.164 HD
ENDROOT
BRANCH   1   7
HETATM    7  C   UNL     1      -5.678   3.539 -30.969  1.00  0.00     0.183 C 
BRANCH   7   8
HETATM    8  C   UNL     1      -5.674   2.285 -31.764  1.00  0.00     0.044 A 
HETATM    9  N   UNL     1      -4.835   1.216 -31.475  1.00  0.00    -0.343 N 
HETATM   10  C   UNL     1      -4.988   0.237 -32.352  1.00  0.00     0.112 A 
HETATM   11  H   UNL     1      -4.147   1.246 -30.712  1.00  0.00     0.167 HD
HETATM   12  N   UNL     1      -5.948   0.614 -33.221  1.00  0.00    -0.311 N 
HETATM   13  C   UNL     1      -4.298  -1.068 -32.469  1.00  0.00     0.049 A 
HETATM   14  C   UNL     1      -6.354  -0.192 -34.284  1.00  0.00     0.014 A 
HETATM   15  C   UNL     1      -6.391   1.883 -32.870  1.00  0.00     0.125 A 
HETATM   16  C   UNL     1      -7.420   0.261 -35.236  1.00  0.00     0.068 C 
HETATM   17  C   UNL     1      -5.731  -1.387 -34.401  1.00  0.00     0.025 A 
HETATM   18  C   UNL     1      -4.687  -1.848 -33.491  1.00  0.00     0.006 A 
ENDBRANCH   7   8
ENDBRANCH   1   7
BRANCH   3  19
HETATM   19  C   UNL     1      -1.461   6.093 -31.383  1.00  0.00     0.085 C 
HETATM   20  C   UNL     1      -0.854   5.648 -32.712  1.00  0.00     0.032 C 
BRANCH  19  21
HETATM   21  C   UNL     1      -0.429   6.472 -30.300  1.00  0.00     0.063 C 
BRANCH  21  22
HETATM   22  C   UNL     1      -0.945   7.316 -29.129  1.00  0.00     0.177 C 
BRANCH  22  23
HETATM   23  O   UNL     1      -1.966   6.611 -28.425  1.00  0.00    -0.389 OA
HETATM   24  H   UNL     1      -1.525   5.904 -27.924  1.00  0.00     0.210 HD
ENDBRANCH  22  23
BRANCH  22  25
HETATM   25  C   UNL     1       0.100   7.708 -28.143  1.00  0.00     0.081 A 
HETATM   26  O   UNL     1       0.235   9.044 -27.883  1.00  0.00    -0.324 OA
HETATM   27  C   UNL     1       1.221   9.174 -26.959  1.00  0.00     0.142 A 
HETATM   28  C   UNL     1       1.719   7.942 -26.608  1.00  0.00     0.027 A 
HETATM   29  C   UNL     1       0.993   6.995 -27.368  1.00  0.00     0.037 A 
ENDBRANCH  22  25
ENDBRANCH  21  22
ENDBRANCH  19  21
ENDBRANCH   3  19
TORSDOF 7
ENDMDL
MODEL 10
REMARK VINA RESULT:      -7.3      3.642      8.229
REMARK  7 active torsions:
REMARK  status: ('A' for Active; 'I' for Inactive)
REMARK    1  A    between atoms: C_7  and  C_8 
REMARK    2  A    between atoms: C_8  and  N_9 
REMARK       I    between atoms: N_9  and  C_10 
REMARK       I    between atoms: C_10  and  N_11 
REMARK    3  A    between atoms: N_11  and  C_12 
REMARK    4  A    between atoms: C_12  and  C_13 
REMARK    5  A    between atoms: C_13  and  C_14 
REMARK    6  A    between atoms: C_14  and  O_15 
REMARK    7  A    between atoms: C_14  and  C_16 
ROOT
HETATM    1  N   UNL     1      -7.179   3.394 -31.674  1.00  0.00    -0.337 N 
HETATM    2  C   UNL     1      -7.777   2.847 -32.782  1.00  0.00     0.316 C 
HETATM    3  N   UNL     1      -8.168   1.561 -32.557  1.00  0.00    -0.339 N 
HETATM    4  O   UNL     1      -7.888   3.449 -33.844  1.00  0.00    -0.247 OA
HETATM    5  H   UNL     1      -7.543   3.028 -30.804  1.00  0.00     0.164 HD
HETATM    6  H   UNL     1      -7.766   1.082 -31.764  1.00  0.00     0.164 HD
ENDROOT
BRANCH   1   7
HETATM    7  C   UNL     1      -6.788   4.792 -31.661  1.00  0.00     0.183 C 
BRANCH   7   8
HETATM    8  C   UNL     1      -5.403   4.951 -32.175  1.00  0.00     0.044 A 
HETATM    9  N   UNL     1      -5.117   5.106 -33.525  1.00  0.00    -0.343 N 
HETATM   10  C   UNL     1      -3.812   5.183 -33.732  1.00  0.00     0.112 A 
HETATM   11  H   UNL     1      -5.847   5.088 -34.249  1.00  0.00     0.167 HD
HETATM   12  N   UNL     1      -3.204   5.112 -32.530  1.00  0.00    -0.311 N 
HETATM   13  C   UNL     1      -3.042   5.315 -34.989  1.00  0.00     0.049 A 
HETATM   14  C   UNL     1      -1.817   5.160 -32.389  1.00  0.00     0.014 A 
HETATM   15  C   UNL     1      -4.176   4.974 -31.548  1.00  0.00     0.125 A 
HETATM   16  C   UNL     1      -1.174   5.073 -31.038  1.00  0.00     0.068 C 
HETATM   17  C   UNL     1      -1.103   5.281 -33.531  1.00  0.00     0.025 A 
HETATM   18  C   UNL     1      -1.706   5.362 -34.858  1.00  0.00     0.006 A 
ENDBRANCH   7   8
ENDBRANCH   1   7
BRANCH   3  19
HETATM   19  C   UNL     1      -8.872   0.713 -33.530  1.00  0.00     0.085 C 
HETATM   20  C   UNL     1      -9.922  -0.168 -32.854  1.00  0.00     0.032 C 
BRANCH  19  21
HETATM   21  C   UNL     1      -7.856  -0.052 -34.402  1.00  0.00     0.063 C 
BRANCH  21  22
HETATM   22  C   UNL     1      -7.217  -1.297 -33.775  1.00  0.00     0.177 C 
BRANCH  22  23
HETATM   23  O   UNL     1      -7.036  -2.309 -34.763  1.00  0.00    -0.389 OA
HETATM   24  H   UNL     1      -7.867  -2.813 -34.806  1.00  0.00     0.210 HD
ENDBRANCH  22  23
BRANCH  22  25
HETATM   25  C   UNL     1      -5.898  -1.054 -33.126  1.00  0.00     0.081 A 
HETATM   26  O   UNL     1      -5.912  -0.403 -31.923  1.00  0.00    -0.324 OA
HETATM   27  C   UNL     1      -4.623  -0.300 -31.509  1.00  0.00     0.142 A 
HETATM   28  C   UNL     1      -3.776  -0.884 -32.421  1.00  0.00     0.027 A 
HETATM   29  C   UNL     1      -4.598  -1.375 -33.462  1.00  0.00     0.037 A 
ENDBRANCH  22  25
ENDBRANCH  21  22
ENDBRANCH  19  21
ENDBRANCH   3  19
TORSDOF 7
ENDMDL
