MODEL 1
REMARK VINA RESULT:      -8.1      0.000      0.000
REMARK  6 active torsions:
REMARK  status: ('A' for Active; 'I' for Inactive)
REMARK    1  A    between atoms: C_2  and  C_3 
REMARK    2  A    between atoms: C_2  and  C_9 
REMARK    3  A    between atoms: C_9  and  N_10 
REMARK       I    between atoms: N_10  and  C_11 
REMARK       I    between atoms: C_11  and  N_12 
REMARK    4  A    between atoms: N_12  and  C_13 
REMARK    5  A    between atoms: C_16  and  N_17 
REMARK       I    between atoms: N_17  and  C_18 
REMARK    6  A    between atoms: C_18  and  C_19 
ROOT
HETATM    1  N   UNL     1      -3.801   6.145 -30.178  1.00  0.00    -0.342 N 
HETATM    2  C   UNL     1      -4.254   5.167 -31.040  1.00  0.00     0.320 C 
HETATM    3  N   UNL     1      -4.251   3.932 -30.432  1.00  0.00    -0.309 N 
HETATM    4  O   UNL     1      -4.622   5.420 -32.179  1.00  0.00    -0.247 OA
HETATM    5  H   UNL     1      -3.198   5.851 -29.423  1.00  0.00     0.164 HD
HETATM    6  H   UNL     1      -4.216   3.947 -29.425  1.00  0.00     0.170 HD
ENDROOT
BRANCH   3   7
HETATM    7  C   UNL     1      -4.538   2.693 -31.042  1.00  0.00     0.036 A 
HETATM    8  C   UNL     1      -5.785   2.072 -30.973  1.00  0.00     0.032 A 
HETATM    9  C   UNL     1      -6.010   0.840 -31.603  1.00  0.00     0.032 A 
HETATM   10  C   UNL     1      -4.990   0.208 -32.311  1.00  0.00     0.035 A 
HETATM   11  C   UNL     1      -3.743   0.836 -32.393  1.00  0.00     0.032 A 
HETATM   12  C   UNL     1      -3.521   2.072 -31.772  1.00  0.00     0.032 A 
BRANCH  10  13
HETATM   13  N   UNL     1      -5.130  -1.040 -32.946  1.00  0.00    -0.321 N 
HETATM   14  C   UNL     1      -5.773  -1.329 -34.137  1.00  0.00     0.279 C 
HETATM   15  O   UNL     1      -6.295  -0.509 -34.884  1.00  0.00    -0.265 OA
HETATM   16  H   UNL     1      -4.722  -1.845 -32.482  1.00  0.00     0.169 HD
BRANCH  14  17
HETATM   17  C   UNL     1      -5.770  -2.749 -34.445  1.00  0.00     0.142 A 
HETATM   18  O   UNL     1      -4.665  -3.505 -34.145  1.00  0.00    -0.317 OA
HETATM   19  C   UNL     1      -4.942  -4.781 -34.520  1.00  0.00     0.143 A 
HETATM   20  C   UNL     1      -6.202  -4.864 -35.063  1.00  0.00     0.027 A 
HETATM   21  C   UNL     1      -6.737  -3.555 -35.015  1.00  0.00     0.045 A 
ENDBRANCH  14  17
ENDBRANCH  10  13
ENDBRANCH   3   7
BRANCH   1  22
HETATM   22  C   UNL     1      -3.700   7.535 -30.598  1.00  0.00     0.138 C 
BRANCH  22  23
HETATM   23  C   UNL     1      -2.244   8.018 -30.885  1.00  0.00    -0.004 C 
HETATM   24  C   UNL     1      -2.169   9.532 -30.562  1.00  0.00     0.021 C 
HETATM   25  C   UNL     1      -1.940   7.884 -32.395  1.00  0.00     0.021 C 
BRANCH  23  26
HETATM   26  C   UNL     1      -1.244   7.264 -29.986  1.00  0.00    -0.046 A 
HETATM   27  C   UNL     1      -0.441   6.239 -30.516  1.00  0.00     0.027 A 
HETATM   28  C   UNL     1       0.458   5.576 -29.692  1.00  0.00     0.116 A 
HETATM   29  N   UNL     1       0.626   5.856 -28.386  1.00  0.00    -0.273 NA
HETATM   30  C   UNL     1      -0.151   6.834 -27.882  1.00  0.00     0.116 A 
HETATM   31  C   UNL     1      -1.079   7.553 -28.626  1.00  0.00     0.027 A 
ENDBRANCH  23  26
ENDBRANCH  22  23
ENDBRANCH   1  22
TORSDOF 6
ENDMDL
MODEL 2
REMARK VINA RESULT:      -8.1      0.822      1.319
REMARK  6 active torsions:
REMARK  status: ('A' for Active; 'I' for Inactive)
REMARK    1  A    between atoms: C_2  and  C_3 
REMARK    2  A    between atoms: C_2  and  C_9 
REMARK    3  A    between atoms: C_9  and  N_10 
REMARK       I    between atoms: N_10  and  C_11 
REMARK       I    between atoms: C_11  and  N_12 
REMARK    4  A    between atoms: N_12  and  C_13 
REMARK    5  A    between atoms: C_16  and  N_17 
REMARK       I    between atoms: N_17  and  C_18 
REMARK    6  A    between atoms: C_18  and  C_19 
ROOT
HETATM    1  N   UNL     1      -4.018   6.112 -29.798  1.00  0.00    -0.342 N 
HETATM    2  C   UNL     1      -4.418   5.161 -30.713  1.00  0.00     0.320 C 
HETATM    3  N   UNL     1      -4.475   3.912 -30.136  1.00  0.00    -0.309 N 
HETATM    4  O   UNL     1      -4.698   5.444 -31.871  1.00  0.00    -0.247 OA
HETATM    5  H   UNL     1      -3.475   5.793 -29.008  1.00  0.00     0.164 HD
HETATM    6  H   UNL     1      -4.513   3.904 -29.129  1.00  0.00     0.170 HD
ENDROOT
BRANCH   3   7
HETATM    7  C   UNL     1      -4.731   2.692 -30.794  1.00  0.00     0.036 A 
HETATM    8  C   UNL     1      -5.997   2.111 -30.874  1.00  0.00     0.032 A 
HETATM    9  C   UNL     1      -6.189   0.896 -31.546  1.00  0.00     0.032 A 
HETATM   10  C   UNL     1      -5.118   0.239 -32.147  1.00  0.00     0.035 A 
HETATM   11  C   UNL     1      -3.850   0.827 -32.080  1.00  0.00     0.032 A 
HETATM   12  C   UNL     1      -3.660   2.047 -31.418  1.00  0.00     0.032 A 
BRANCH  10  13
HETATM   13  N   UNL     1      -5.225  -0.995 -32.814  1.00  0.00    -0.321 N 
HETATM   14  C   UNL     1      -5.815  -1.259 -34.038  1.00  0.00     0.279 C 
HETATM   15  O   UNL     1      -6.308  -0.424 -34.789  1.00  0.00    -0.265 OA
HETATM   16  H   UNL     1      -4.835  -1.808 -32.351  1.00  0.00     0.169 HD
BRANCH  14  17
HETATM   17  C   UNL     1      -5.794  -2.673 -34.376  1.00  0.00     0.142 A 
HETATM   18  O   UNL     1      -4.673  -3.417 -34.106  1.00  0.00    -0.317 OA
HETATM   19  C   UNL     1      -4.935  -4.689 -34.505  1.00  0.00     0.143 A 
HETATM   20  C   UNL     1      -6.200  -4.781 -35.033  1.00  0.00     0.027 A 
HETATM   21  C   UNL     1      -6.755  -3.482 -34.951  1.00  0.00     0.045 A 
ENDBRANCH  14  17
ENDBRANCH  10  13
ENDBRANCH   3   7
BRANCH   1  22
HETATM   22  C   UNL     1      -3.869   7.510 -30.176  1.00  0.00     0.138 C 
BRANCH  22  23
HETATM   23  C   UNL     1      -2.417   8.065 -30.036  1.00  0.00    -0.004 C 
HETATM   24  C   UNL     1      -2.219   8.521 -28.568  1.00  0.00     0.021 C 
HETATM   25  C   UNL     1      -2.260   9.335 -30.905  1.00  0.00     0.021 C 
BRANCH  23  26
HETATM   26  C   UNL     1      -1.389   6.964 -30.363  1.00  0.00    -0.046 A 
HETATM   27  C   UNL     1      -0.594   6.406 -29.348  1.00  0.00     0.027 A 
HETATM   28  C   UNL     1       0.322   5.411 -29.661  1.00  0.00     0.116 A 
HETATM   29  N   UNL     1       0.503   4.922 -30.903  1.00  0.00    -0.273 NA
HETATM   30  C   UNL     1      -0.258   5.465 -31.873  1.00  0.00     0.116 A 
HETATM   31  C   UNL     1      -1.199   6.465 -31.658  1.00  0.00     0.027 A 
ENDBRANCH  23  26
ENDBRANCH  22  23
ENDBRANCH   1  22
TORSDOF 6
ENDMDL
MODEL 3
REMARK VINA RESULT:      -8.0      2.681     10.676
REMARK  6 active torsions:
REMARK  status: ('A' for Active; 'I' for Inactive)
REMARK    1  A    between atoms: C_2  and  C_3 
REMARK    2  A    between atoms: C_2  and  C_9 
REMARK    3  A    between atoms: C_9  and  N_10 
REMARK       I    between atoms: N_10  and  C_11 
REMARK       I    between atoms: C_11  and  N_12 
REMARK    4  A    between atoms: N_12  and  C_13 
REMARK    5  A    between atoms: C_16  and  N_17 
REMARK       I    between atoms: N_17  and  C_18 
REMARK    6  A    between atoms: C_18  and  C_19 
ROOT
HETATM    1  N   UNL     1      -5.504   1.551 -32.913  1.00  0.00    -0.342 N 
HETATM    2  C   UNL     1      -4.869   2.282 -31.930  1.00  0.00     0.320 C 
HETATM    3  N   UNL     1      -4.274   3.407 -32.457  1.00  0.00    -0.309 N 
HETATM    4  O   UNL     1      -4.880   1.945 -30.754  1.00  0.00    -0.247 OA
HETATM    5  H   UNL     1      -5.172   1.665 -33.860  1.00  0.00     0.164 HD
HETATM    6  H   UNL     1      -4.614   3.691 -33.363  1.00  0.00     0.170 HD
ENDROOT
BRANCH   3   7
HETATM    7  C   UNL     1      -3.446   4.321 -31.772  1.00  0.00     0.036 A 
HETATM    8  C   UNL     1      -2.058   4.349 -31.904  1.00  0.00     0.032 A 
HETATM    9  C   UNL     1      -1.288   5.284 -31.198  1.00  0.00     0.032 A 
HETATM   10  C   UNL     1      -1.894   6.205 -30.346  1.00  0.00     0.035 A 
HETATM   11  C   UNL     1      -3.288   6.187 -30.224  1.00  0.00     0.032 A 
HETATM   12  C   UNL     1      -4.058   5.259 -30.937  1.00  0.00     0.032 A 
BRANCH  10  13
HETATM   13  N   UNL     1      -1.189   7.154 -29.584  1.00  0.00    -0.321 N 
HETATM   14  C   UNL     1      -0.213   6.932 -28.629  1.00  0.00     0.279 C 
HETATM   15  O   UNL     1       0.249   5.839 -28.319  1.00  0.00    -0.265 OA
HETATM   16  H   UNL     1      -1.417   8.131 -29.733  1.00  0.00     0.169 HD
BRANCH  14  17
HETATM   17  C   UNL     1       0.244   8.160 -27.999  1.00  0.00     0.142 A 
HETATM   18  O   UNL     1      -0.650   9.176 -27.767  1.00  0.00    -0.317 OA
HETATM   19  C   UNL     1       0.037  10.180 -27.163  1.00  0.00     0.143 A 
HETATM   20  C   UNL     1       1.358   9.836 -27.004  1.00  0.00     0.027 A 
HETATM   21  C   UNL     1       1.493   8.535 -27.542  1.00  0.00     0.045 A 
ENDBRANCH  14  17
ENDBRANCH  10  13
ENDBRANCH   3   7
BRANCH   1  22
HETATM   22  C   UNL     1      -6.195   0.308 -32.602  1.00  0.00     0.138 C 
BRANCH  22  23
HETATM   23  C   UNL     1      -6.918  -0.350 -33.819  1.00  0.00    -0.004 C 
HETATM   24  C   UNL     1      -6.743   0.586 -35.042  1.00  0.00     0.021 C 
HETATM   25  C   UNL     1      -8.438  -0.419 -33.545  1.00  0.00     0.021 C 
BRANCH  23  26
HETATM   26  C   UNL     1      -6.287  -1.719 -34.139  1.00  0.00    -0.046 A 
HETATM   27  C   UNL     1      -4.908  -1.927 -33.967  1.00  0.00     0.027 A 
HETATM   28  C   UNL     1      -4.359  -3.169 -34.255  1.00  0.00     0.116 A 
HETATM   29  N   UNL     1      -5.074  -4.221 -34.694  1.00  0.00    -0.273 NA
HETATM   30  C   UNL     1      -6.395  -4.015 -34.864  1.00  0.00     0.116 A 
HETATM   31  C   UNL     1      -7.034  -2.809 -34.604  1.00  0.00     0.027 A 
ENDBRANCH  23  26
ENDBRANCH  22  23
ENDBRANCH   1  22
TORSDOF 6
ENDMDL
MODEL 4
REMARK VINA RESULT:      -7.7      2.700     10.865
REMARK  6 active torsions:
REMARK  status: ('A' for Active; 'I' for Inactive)
REMARK    1  A    between atoms: C_2  and  C_3 
REMARK    2  A    between atoms: C_2  and  C_9 
REMARK    3  A    between atoms: C_9  and  N_10 
REMARK       I    between atoms: N_10  and  C_11 
REMARK       I    between atoms: C_11  and  N_12 
REMARK    4  A    between atoms: N_12  and  C_13 
REMARK    5  A    between atoms: C_16  and  N_17 
REMARK       I    between atoms: N_17  and  C_18 
REMARK    6  A    between atoms: C_18  and  C_19 
ROOT
HETATM    1  N   UNL     1      -5.317   1.397 -33.114  1.00  0.00    -0.342 N 
HETATM    2  C   UNL     1      -4.492   2.129 -32.285  1.00  0.00     0.320 C 
HETATM    3  N   UNL     1      -4.836   3.463 -32.298  1.00  0.00    -0.309 N 
HETATM    4  O   UNL     1      -3.600   1.611 -31.627  1.00  0.00    -0.247 OA
HETATM    5  H   UNL     1      -5.767   1.892 -33.871  1.00  0.00     0.164 HD
HETATM    6  H   UNL     1      -5.761   3.666 -32.641  1.00  0.00     0.170 HD
ENDROOT
BRANCH   3   7
HETATM    7  C   UNL     1      -4.144   4.516 -31.665  1.00  0.00     0.036 A 
HETATM    8  C   UNL     1      -2.864   4.929 -32.034  1.00  0.00     0.032 A 
HETATM    9  C   UNL     1      -2.230   5.986 -31.367  1.00  0.00     0.032 A 
HETATM   10  C   UNL     1      -2.864   6.647 -30.317  1.00  0.00     0.035 A 
HETATM   11  C   UNL     1      -4.153   6.243 -29.954  1.00  0.00     0.032 A 
HETATM   12  C   UNL     1      -4.792   5.193 -30.627  1.00  0.00     0.032 A 
BRANCH  10  13
HETATM   13  N   UNL     1      -2.283   7.696 -29.582  1.00  0.00    -0.321 N 
HETATM   14  C   UNL     1      -1.312   7.618 -28.598  1.00  0.00     0.279 C 
HETATM   15  O   UNL     1      -0.745   6.594 -28.233  1.00  0.00    -0.265 OA
HETATM   16  H   UNL     1      -2.610   8.636 -29.777  1.00  0.00     0.169 HD
BRANCH  14  17
HETATM   17  C   UNL     1      -1.005   8.912 -28.012  1.00  0.00     0.142 A 
HETATM   18  O   UNL     1       0.133   9.062 -27.260  1.00  0.00    -0.317 OA
HETATM   19  C   UNL     1       0.176  10.359 -26.857  1.00  0.00     0.143 A 
HETATM   20  C   UNL     1      -0.915  11.049 -27.329  1.00  0.00     0.027 A 
HETATM   21  C   UNL     1      -1.677  10.118 -28.073  1.00  0.00     0.045 A 
ENDBRANCH  14  17
ENDBRANCH  10  13
ENDBRANCH   3   7
BRANCH   1  22
HETATM   22  C   UNL     1      -5.141  -0.039 -33.279  1.00  0.00     0.138 C 
BRANCH  22  23
HETATM   23  C   UNL     1      -6.367  -0.771 -33.908  1.00  0.00    -0.004 C 
HETATM   24  C   UNL     1      -6.725  -0.052 -35.234  1.00  0.00     0.021 C 
HETATM   25  C   UNL     1      -7.598  -0.610 -32.986  1.00  0.00     0.021 C 
BRANCH  23  26
HETATM   26  C   UNL     1      -6.014  -2.240 -34.214  1.00  0.00    -0.046 A 
HETATM   27  C   UNL     1      -4.707  -2.716 -34.014  1.00  0.00     0.027 A 
HETATM   28  C   UNL     1      -4.409  -4.044 -34.288  1.00  0.00     0.116 A 
HETATM   29  N   UNL     1      -5.311  -4.936 -34.739  1.00  0.00    -0.273 NA
HETATM   30  C   UNL     1      -6.561  -4.473 -34.936  1.00  0.00     0.116 A 
HETATM   31  C   UNL     1      -6.953  -3.163 -34.691  1.00  0.00     0.027 A 
ENDBRANCH  23  26
ENDBRANCH  22  23
ENDBRANCH   1  22
TORSDOF 6
ENDMDL
MODEL 5
REMARK VINA RESULT:      -7.6      1.322      1.851
REMARK  6 active torsions:
REMARK  status: ('A' for Active; 'I' for Inactive)
REMARK    1  A    between atoms: C_2  and  C_3 
REMARK    2  A    between atoms: C_2  and  C_9 
REMARK    3  A    between atoms: C_9  and  N_10 
REMARK       I    between atoms: N_10  and  C_11 
REMARK       I    between atoms: C_11  and  N_12 
REMARK    4  A    between atoms: N_12  and  C_13 
REMARK    5  A    between atoms: C_16  and  N_17 
REMARK       I    between atoms: N_17  and  C_18 
REMARK    6  A    between atoms: C_18  and  C_19 
ROOT
HETATM    1  N   UNL     1      -3.184   6.322 -30.150  1.00  0.00    -0.342 N 
HETATM    2  C   UNL     1      -3.396   5.334 -31.090  1.00  0.00     0.320 C 
HETATM    3  N   UNL     1      -4.114   4.288 -30.555  1.00  0.00    -0.309 N 
HETATM    4  O   UNL     1      -2.997   5.433 -32.243  1.00  0.00    -0.247 OA
HETATM    5  H   UNL     1      -3.206   6.046 -29.178  1.00  0.00     0.164 HD
HETATM    6  H   UNL     1      -4.616   4.499 -29.707  1.00  0.00     0.170 HD
ENDROOT
BRANCH   3   7
HETATM    7  C   UNL     1      -4.413   3.063 -31.186  1.00  0.00     0.036 A 
HETATM    8  C   UNL     1      -5.659   2.767 -31.739  1.00  0.00     0.032 A 
HETATM    9  C   UNL     1      -5.895   1.531 -32.357  1.00  0.00     0.032 A 
HETATM   10  C   UNL     1      -4.889   0.569 -32.430  1.00  0.00     0.035 A 
HETATM   11  C   UNL     1      -3.635   0.870 -31.888  1.00  0.00     0.032 A 
HETATM   12  C   UNL     1      -3.396   2.109 -31.280  1.00  0.00     0.032 A 
BRANCH  10  13
HETATM   13  N   UNL     1      -5.057  -0.702 -33.008  1.00  0.00    -0.321 N 
HETATM   14  C   UNL     1      -5.787  -1.043 -34.133  1.00  0.00     0.279 C 
HETATM   15  O   UNL     1      -6.381  -0.258 -34.864  1.00  0.00    -0.265 OA
HETATM   16  H   UNL     1      -4.600  -1.484 -32.550  1.00  0.00     0.169 HD
BRANCH  14  17
HETATM   17  C   UNL     1      -5.784  -2.474 -34.390  1.00  0.00     0.142 A 
HETATM   18  O   UNL     1      -4.629  -3.192 -34.210  1.00  0.00    -0.317 OA
HETATM   19  C   UNL     1      -4.915  -4.487 -34.503  1.00  0.00     0.143 A 
HETATM   20  C   UNL     1      -6.232  -4.620 -34.876  1.00  0.00     0.027 A 
HETATM   21  C   UNL     1      -6.793  -3.323 -34.803  1.00  0.00     0.045 A 
ENDBRANCH  14  17
ENDBRANCH  10  13
ENDBRANCH   3   7
BRANCH   1  22
HETATM   22  C   UNL     1      -2.434   7.527 -30.475  1.00  0.00     0.138 C 
BRANCH  22  23
HETATM   23  C   UNL     1      -2.480   8.632 -29.374  1.00  0.00    -0.004 C 
HETATM   24  C   UNL     1      -3.576   8.242 -28.350  1.00  0.00     0.021 C 
HETATM   25  C   UNL     1      -2.934   9.971 -30.001  1.00  0.00     0.021 C 
BRANCH  23  26
HETATM   26  C   UNL     1      -1.123   8.721 -28.649  1.00  0.00    -0.046 A 
HETATM   27  C   UNL     1      -0.889   9.725 -27.694  1.00  0.00     0.027 A 
HETATM   28  C   UNL     1       0.337   9.785 -27.046  1.00  0.00     0.116 A 
HETATM   29  N   UNL     1       1.345   8.921 -27.268  1.00  0.00    -0.273 NA
HETATM   30  C   UNL     1       1.118   7.963 -28.189  1.00  0.00     0.116 A 
HETATM   31  C   UNL     1      -0.074   7.824 -28.889  1.00  0.00     0.027 A 
ENDBRANCH  23  26
ENDBRANCH  22  23
ENDBRANCH   1  22
TORSDOF 6
ENDMDL
MODEL 6
REMARK VINA RESULT:      -7.6      3.701      4.514
REMARK  6 active torsions:
REMARK  status: ('A' for Active; 'I' for Inactive)
REMARK    1  A    between atoms: C_2  and  C_3 
REMARK    2  A    between atoms: C_2  and  C_9 
REMARK    3  A    between atoms: C_9  and  N_10 
REMARK       I    between atoms: N_10  and  C_11 
REMARK       I    between atoms: C_11  and  N_12 
REMARK    4  A    between atoms: N_12  and  C_13 
REMARK    5  A    between atoms: C_16  and  N_17 
REMARK       I    between atoms: N_17  and  C_18 
REMARK    6  A    between atoms: C_18  and  C_19 
ROOT
HETATM    1  N   UNL     1      -2.322   5.177 -30.755  1.00  0.00    -0.342 N 
HETATM    2  C   UNL     1      -3.692   5.140 -30.912  1.00  0.00     0.320 C 
HETATM    3  N   UNL     1      -4.109   3.895 -31.328  1.00  0.00    -0.309 N 
HETATM    4  O   UNL     1      -4.404   6.107 -30.677  1.00  0.00    -0.247 OA
HETATM    5  H   UNL     1      -1.779   4.511 -31.285  1.00  0.00     0.164 HD
HETATM    6  H   UNL     1      -3.449   3.147 -31.178  1.00  0.00     0.170 HD
ENDROOT
BRANCH   3   7
HETATM    7  C   UNL     1      -5.418   3.526 -31.698  1.00  0.00     0.036 A 
HETATM    8  C   UNL     1      -6.458   3.355 -30.784  1.00  0.00     0.032 A 
HETATM    9  C   UNL     1      -7.740   2.989 -31.215  1.00  0.00     0.032 A 
HETATM   10  C   UNL     1      -8.005   2.786 -32.568  1.00  0.00     0.035 A 
HETATM   11  C   UNL     1      -6.967   2.971 -33.487  1.00  0.00     0.032 A 
HETATM   12  C   UNL     1      -5.687   3.346 -33.058  1.00  0.00     0.032 A 
BRANCH  10  13
HETATM   13  N   UNL     1      -9.257   2.392 -33.074  1.00  0.00    -0.321 N 
HETATM   14  C   UNL     1      -9.911   1.185 -32.899  1.00  0.00     0.279 C 
HETATM   15  O   UNL     1      -9.517   0.253 -32.206  1.00  0.00    -0.265 OA
HETATM   16  H   UNL     1      -9.755   3.060 -33.652  1.00  0.00     0.169 HD
BRANCH  14  17
HETATM   17  C   UNL     1     -11.163   1.115 -33.632  1.00  0.00     0.142 A 
HETATM   18  O   UNL     1     -12.054   0.108 -33.359  1.00  0.00    -0.317 OA
HETATM   19  C   UNL     1     -13.128   0.295 -34.169  1.00  0.00     0.143 A 
HETATM   20  C   UNL     1     -12.947   1.399 -34.967  1.00  0.00     0.027 A 
HETATM   21  C   UNL     1     -11.681   1.929 -34.622  1.00  0.00     0.045 A 
ENDBRANCH  14  17
ENDBRANCH  10  13
ENDBRANCH   3   7
BRANCH   1  22
HETATM   22  C   UNL     1      -1.643   6.394 -30.335  1.00  0.00     0.138 C 
BRANCH  22  23
HETATM   23  C   UNL     1      -0.107   6.230 -30.108  1.00  0.00    -0.004 C 
HETATM   24  C   UNL     1       0.627   6.950 -31.267  1.00  0.00     0.021 C 
HETATM   25  C   UNL     1       0.278   4.736 -30.217  1.00  0.00     0.021 C 
BRANCH  23  26
HETATM   26  C   UNL     1       0.308   6.877 -28.772  1.00  0.00    -0.046 A 
HETATM   27  C   UNL     1      -0.102   6.317 -27.550  1.00  0.00     0.027 A 
HETATM   28  C   UNL     1       0.288   6.911 -26.357  1.00  0.00     0.116 A 
HETATM   29  N   UNL     1       1.058   8.013 -26.284  1.00  0.00    -0.273 NA
HETATM   30  C   UNL     1       1.443   8.549 -27.459  1.00  0.00     0.116 A 
HETATM   31  C   UNL     1       1.103   8.028 -28.701  1.00  0.00     0.027 A 
ENDBRANCH  23  26
ENDBRANCH  22  23
ENDBRANCH   1  22
TORSDOF 6
ENDMDL
MODEL 7
REMARK VINA RESULT:      -7.4      5.168     10.086
REMARK  6 active torsions:
REMARK  status: ('A' for Active; 'I' for Inactive)
REMARK    1  A    between atoms: C_2  and  C_3 
REMARK    2  A    between atoms: C_2  and  C_9 
REMARK    3  A    between atoms: C_9  and  N_10 
REMARK       I    between atoms: N_10  and  C_11 
REMARK       I    between atoms: C_11  and  N_12 
REMARK    4  A    between atoms: N_12  and  C_13 
REMARK    5  A    between atoms: C_16  and  N_17 
REMARK       I    between atoms: N_17  and  C_18 
REMARK    6  A    between atoms: C_18  and  C_19 
ROOT
HETATM    1  N   UNL     1     -10.626   1.534 -32.477  1.00  0.00    -0.342 N 
HETATM    2  C   UNL     1      -9.254   1.658 -32.538  1.00  0.00     0.320 C 
HETATM    3  N   UNL     1      -8.787   2.491 -31.546  1.00  0.00    -0.309 N 
HETATM    4  O   UNL     1      -8.580   1.066 -33.371  1.00  0.00    -0.247 OA
HETATM    5  H   UNL     1     -11.138   2.286 -32.038  1.00  0.00     0.164 HD
HETATM    6  H   UNL     1      -9.422   2.644 -30.778  1.00  0.00     0.170 HD
ENDROOT
BRANCH   3   7
HETATM    7  C   UNL     1      -7.460   2.937 -31.376  1.00  0.00     0.036 A 
HETATM    8  C   UNL     1      -6.536   2.304 -30.545  1.00  0.00     0.032 A 
HETATM    9  C   UNL     1      -5.229   2.794 -30.420  1.00  0.00     0.032 A 
HETATM   10  C   UNL     1      -4.825   3.928 -31.121  1.00  0.00     0.035 A 
HETATM   11  C   UNL     1      -5.747   4.556 -31.966  1.00  0.00     0.032 A 
HETATM   12  C   UNL     1      -7.050   4.060 -32.099  1.00  0.00     0.032 A 
BRANCH  10  13
HETATM   13  N   UNL     1      -3.541   4.496 -31.026  1.00  0.00    -0.321 N 
HETATM   14  C   UNL     1      -2.479   4.365 -31.904  1.00  0.00     0.279 C 
HETATM   15  O   UNL     1      -2.502   3.756 -32.968  1.00  0.00    -0.265 OA
HETATM   16  H   UNL     1      -3.347   5.071 -30.213  1.00  0.00     0.169 HD
BRANCH  14  17
HETATM   17  C   UNL     1      -1.282   5.045 -31.439  1.00  0.00     0.142 A 
HETATM   18  O   UNL     1      -0.445   4.416 -30.551  1.00  0.00    -0.317 OA
HETATM   19  C   UNL     1       0.586   5.264 -30.305  1.00  0.00     0.143 A 
HETATM   20  C   UNL     1       0.430   6.433 -31.011  1.00  0.00     0.027 A 
HETATM   21  C   UNL     1      -0.773   6.294 -31.742  1.00  0.00     0.045 A 
ENDBRANCH  14  17
ENDBRANCH  10  13
ENDBRANCH   3   7
BRANCH   1  22
HETATM   22  C   UNL     1     -11.354   0.714 -33.435  1.00  0.00     0.138 C 
BRANCH  22  23
HETATM   23  C   UNL     1     -12.572   1.428 -34.101  1.00  0.00    -0.004 C 
HETATM   24  C   UNL     1     -13.751   0.423 -34.142  1.00  0.00     0.021 C 
HETATM   25  C   UNL     1     -12.238   1.760 -35.574  1.00  0.00     0.021 C 
BRANCH  23  26
HETATM   26  C   UNL     1     -12.990   2.658 -33.271  1.00  0.00    -0.046 A 
HETATM   27  C   UNL     1     -14.026   2.563 -32.327  1.00  0.00     0.027 A 
HETATM   28  C   UNL     1     -14.384   3.680 -31.585  1.00  0.00     0.116 A 
HETATM   29  N   UNL     1     -13.788   4.882 -31.704  1.00  0.00    -0.273 NA
HETATM   30  C   UNL     1     -12.800   4.969 -32.616  1.00  0.00     0.116 A 
HETATM   31  C   UNL     1     -12.373   3.908 -33.405  1.00  0.00     0.027 A 
ENDBRANCH  23  26
ENDBRANCH  22  23
ENDBRANCH   1  22
TORSDOF 6
ENDMDL
MODEL 8
REMARK VINA RESULT:      -7.4      4.625     11.787
REMARK  6 active torsions:
REMARK  status: ('A' for Active; 'I' for Inactive)
REMARK    1  A    between atoms: C_2  and  C_3 
REMARK    2  A    between atoms: C_2  and  C_9 
REMARK    3  A    between atoms: C_9  and  N_10 
REMARK       I    between atoms: N_10  and  C_11 
REMARK       I    between atoms: C_11  and  N_12 
REMARK    4  A    between atoms: N_12  and  C_13 
REMARK    5  A    between atoms: C_16  and  N_17 
REMARK       I    between atoms: N_17  and  C_18 
REMARK    6  A    between atoms: C_18  and  C_19 
ROOT
HETATM    1  N   UNL     1      -2.427   5.190 -30.847  1.00  0.00    -0.342 N 
HETATM    2  C   UNL     1      -1.955   6.224 -30.065  1.00  0.00     0.320 C 
HETATM    3  N   UNL     1      -0.726   5.916 -29.526  1.00  0.00    -0.309 N 
HETATM    4  O   UNL     1      -2.574   7.270 -29.919  1.00  0.00    -0.247 OA
HETATM    5  H   UNL     1      -2.077   4.264 -30.647  1.00  0.00     0.164 HD
HETATM    6  H   UNL     1      -0.231   5.165 -29.983  1.00  0.00     0.170 HD
ENDROOT
BRANCH   3   7
HETATM    7  C   UNL     1       0.000   6.682 -28.592  1.00  0.00     0.036 A 
HETATM    8  C   UNL     1       0.838   7.739 -28.947  1.00  0.00     0.032 A 
HETATM    9  C   UNL     1       1.532   8.465 -27.970  1.00  0.00     0.032 A 
HETATM   10  C   UNL     1       1.401   8.146 -26.620  1.00  0.00     0.035 A 
HETATM   11  C   UNL     1       0.551   7.095 -26.261  1.00  0.00     0.032 A 
HETATM   12  C   UNL     1      -0.151   6.375 -27.237  1.00  0.00     0.032 A 
BRANCH  10  13
HETATM   13  N   UNL     1       2.085   8.809 -25.585  1.00  0.00    -0.321 N 
HETATM   14  C   UNL     1       1.806  10.046 -25.028  1.00  0.00     0.279 C 
HETATM   15  O   UNL     1       0.855  10.763 -25.320  1.00  0.00    -0.265 OA
HETATM   16  H   UNL     1       2.893   8.342 -25.189  1.00  0.00     0.169 HD
BRANCH  14  17
HETATM   17  C   UNL     1       2.777  10.436 -24.019  1.00  0.00     0.142 A 
HETATM   18  O   UNL     1       4.017   9.848 -24.007  1.00  0.00    -0.317 OA
HETATM   19  C   UNL     1       4.712  10.407 -22.983  1.00  0.00     0.143 A 
HETATM   20  C   UNL     1       3.945  11.339 -22.327  1.00  0.00     0.027 A 
HETATM   21  C   UNL     1       2.697  11.359 -22.994  1.00  0.00     0.045 A 
ENDBRANCH  14  17
ENDBRANCH  10  13
ENDBRANCH   3   7
BRANCH   1  22
HETATM   22  C   UNL     1      -3.719   5.276 -31.513  1.00  0.00     0.138 C 
BRANCH  22  23
HETATM   23  C   UNL     1      -3.798   4.504 -32.868  1.00  0.00    -0.004 C 
HETATM   24  C   UNL     1      -2.365   4.408 -33.448  1.00  0.00     0.021 C 
HETATM   25  C   UNL     1      -4.621   5.327 -33.887  1.00  0.00     0.021 C 
BRANCH  23  26
HETATM   26  C   UNL     1      -4.344   3.081 -32.641  1.00  0.00    -0.046 A 
HETATM   27  C   UNL     1      -5.641   2.739 -33.061  1.00  0.00     0.027 A 
HETATM   28  C   UNL     1      -6.113   1.450 -32.853  1.00  0.00     0.116 A 
HETATM   29  N   UNL     1      -5.395   0.474 -32.268  1.00  0.00    -0.273 NA
HETATM   30  C   UNL     1      -4.154   0.809 -31.862  1.00  0.00     0.116 A 
HETATM   31  C   UNL     1      -3.596   2.071 -32.024  1.00  0.00     0.027 A 
ENDBRANCH  23  26
ENDBRANCH  22  23
ENDBRANCH   1  22
TORSDOF 6
ENDMDL
MODEL 9
REMARK VINA RESULT:      -7.4      2.844      9.830
REMARK  6 active torsions:
REMARK  status: ('A' for Active; 'I' for Inactive)
REMARK    1  A    between atoms: C_2  and  C_3 
REMARK    2  A    between atoms: C_2  and  C_9 
REMARK    3  A    between atoms: C_9  and  N_10 
REMARK       I    between atoms: N_10  and  C_11 
REMARK       I    between atoms: C_11  and  N_12 
REMARK    4  A    between atoms: N_12  and  C_13 
REMARK    5  A    between atoms: C_16  and  N_17 
REMARK       I    between atoms: N_17  and  C_18 
REMARK    6  A    between atoms: C_18  and  C_19 
ROOT
HETATM    1  N   UNL     1      -6.390   2.628 -34.055  1.00  0.00    -0.342 N 
HETATM    2  C   UNL     1      -5.936   3.480 -33.070  1.00  0.00     0.320 C 
HETATM    3  N   UNL     1      -4.672   3.944 -33.361  1.00  0.00    -0.309 N 
HETATM    4  O   UNL     1      -6.614   3.772 -32.094  1.00  0.00    -0.247 OA
HETATM    5  H   UNL     1      -5.694   2.156 -34.615  1.00  0.00     0.164 HD
HETATM    6  H   UNL     1      -4.391   3.854 -34.325  1.00  0.00     0.170 HD
ENDROOT
BRANCH   3   7
HETATM    7  C   UNL     1      -3.854   4.737 -32.530  1.00  0.00     0.036 A 
HETATM    8  C   UNL     1      -4.038   6.108 -32.351  1.00  0.00     0.032 A 
HETATM    9  C   UNL     1      -3.192   6.841 -31.508  1.00  0.00     0.032 A 
HETATM   10  C   UNL     1      -2.147   6.217 -30.831  1.00  0.00     0.035 A 
HETATM   11  C   UNL     1      -1.970   4.839 -30.999  1.00  0.00     0.032 A 
HETATM   12  C   UNL     1      -2.821   4.104 -31.833  1.00  0.00     0.032 A 
BRANCH  10  13
HETATM   13  N   UNL     1      -1.240   6.889 -29.991  1.00  0.00    -0.321 N 
HETATM   14  C   UNL     1      -1.483   7.473 -28.760  1.00  0.00     0.279 C 
HETATM   15  O   UNL     1      -2.551   7.452 -28.158  1.00  0.00    -0.265 OA
HETATM   16  H   UNL     1      -0.283   6.975 -30.316  1.00  0.00     0.169 HD
BRANCH  14  17
HETATM   17  C   UNL     1      -0.312   8.138 -28.215  1.00  0.00     0.142 A 
HETATM   18  O   UNL     1      -0.468   9.123 -27.272  1.00  0.00    -0.317 OA
HETATM   19  C   UNL     1       0.775   9.551 -26.933  1.00  0.00     0.143 A 
HETATM   20  C   UNL     1       1.733   8.868 -27.643  1.00  0.00     0.027 A 
HETATM   21  C   UNL     1       1.034   7.957 -28.470  1.00  0.00     0.045 A 
ENDBRANCH  14  17
ENDBRANCH  10  13
ENDBRANCH   3   7
BRANCH   1  22
HETATM   22  C   UNL     1      -7.699   1.996 -33.964  1.00  0.00     0.138 C 
BRANCH  22  23
HETATM   23  C   UNL     1      -7.659   0.438 -33.884  1.00  0.00    -0.004 C 
HETATM   24  C   UNL     1      -7.635  -0.114 -35.332  1.00  0.00     0.021 C 
HETATM   25  C   UNL     1      -8.968  -0.084 -33.246  1.00  0.00     0.021 C 
BRANCH  23  26
HETATM   26  C   UNL     1      -6.387  -0.027 -33.148  1.00  0.00    -0.046 A 
HETATM   27  C   UNL     1      -5.343  -0.651 -33.852  1.00  0.00     0.027 A 
HETATM   28  C   UNL     1      -4.203  -1.058 -33.173  1.00  0.00     0.116 A 
HETATM   29  N   UNL     1      -4.017  -0.886 -31.851  1.00  0.00    -0.273 NA
HETATM   30  C   UNL     1      -5.023  -0.294 -31.179  1.00  0.00     0.116 A 
HETATM   31  C   UNL     1      -6.201   0.146 -31.771  1.00  0.00     0.027 A 
ENDBRANCH  23  26
ENDBRANCH  22  23
ENDBRANCH   1  22
TORSDOF 6
ENDMDL
MODEL 10
REMARK VINA RESULT:      -7.3      4.162      5.082
REMARK  6 active torsions:
REMARK  status: ('A' for Active; 'I' for Inactive)
REMARK    1  A    between atoms: C_2  and  C_3 
REMARK    2  A    between atoms: C_2  and  C_9 
REMARK    3  A    between atoms: C_9  and  N_10 
REMARK       I    between atoms: N_10  and  C_11 
REMARK       I    between atoms: C_11  and  N_12 
REMARK    4  A    between atoms: N_12  and  C_13 
REMARK    5  A    between atoms: C_16  and  N_17 
REMARK       I    between atoms: N_17  and  C_18 
REMARK    6  A    between atoms: C_18  and  C_19 
ROOT
HETATM    1  N   UNL     1      -3.234   4.481 -31.183  1.00  0.00    -0.342 N 
HETATM    2  C   UNL     1      -4.351   4.064 -31.877  1.00  0.00     0.320 C 
HETATM    3  N   UNL     1      -5.392   3.787 -31.020  1.00  0.00    -0.309 N 
HETATM    4  O   UNL     1      -4.372   3.990 -33.099  1.00  0.00    -0.247 OA
HETATM    5  H   UNL     1      -3.154   4.187 -30.219  1.00  0.00     0.164 HD
HETATM    6  H   UNL     1      -5.310   4.186 -30.098  1.00  0.00     0.170 HD
ENDROOT
BRANCH   3   7
HETATM    7  C   UNL     1      -6.642   3.231 -31.365  1.00  0.00     0.036 A 
HETATM    8  C   UNL     1      -6.823   1.887 -31.690  1.00  0.00     0.032 A 
HETATM    9  C   UNL     1      -8.092   1.393 -32.022  1.00  0.00     0.032 A 
HETATM   10  C   UNL     1      -9.201   2.236 -32.036  1.00  0.00     0.035 A 
HETATM   11  C   UNL     1      -9.023   3.582 -31.697  1.00  0.00     0.032 A 
HETATM   12  C   UNL     1      -7.757   4.073 -31.355  1.00  0.00     0.032 A 
BRANCH  10  13
HETATM   13  N   UNL     1     -10.500   1.822 -32.385  1.00  0.00    -0.321 N 
HETATM   14  C   UNL     1     -11.161   1.996 -33.589  1.00  0.00     0.279 C 
HETATM   15  O   UNL     1     -10.686   2.509 -34.597  1.00  0.00    -0.265 OA
HETATM   16  H   UNL     1     -11.040   1.341 -31.674  1.00  0.00     0.169 HD
BRANCH  14  17
HETATM   17  C   UNL     1     -12.523   1.492 -33.557  1.00  0.00     0.142 A 
HETATM   18  O   UNL     1     -13.531   2.290 -33.078  1.00  0.00    -0.317 OA
HETATM   19  C   UNL     1     -14.684   1.580 -33.179  1.00  0.00     0.143 A 
HETATM   20  C   UNL     1     -14.442   0.335 -33.708  1.00  0.00     0.027 A 
HETATM   21  C   UNL     1     -13.049   0.277 -33.953  1.00  0.00     0.045 A 
ENDBRANCH  14  17
ENDBRANCH  10  13
ENDBRANCH   3   7
BRANCH   1  22
HETATM   22  C   UNL     1      -1.998   4.820 -31.873  1.00  0.00     0.138 C 
BRANCH  22  23
HETATM   23  C   UNL     1      -1.542   6.301 -31.688  1.00  0.00    -0.004 C 
HETATM   24  C   UNL     1      -2.811   7.185 -31.597  1.00  0.00     0.021 C 
HETATM   25  C   UNL     1      -0.780   6.771 -32.950  1.00  0.00     0.021 C 
BRANCH  23  26
HETATM   26  C   UNL     1      -0.730   6.453 -30.387  1.00  0.00    -0.046 A 
HETATM   27  C   UNL     1      -0.784   7.646 -29.647  1.00  0.00     0.027 A 
HETATM   28  C   UNL     1      -0.050   7.761 -28.474  1.00  0.00     0.116 A 
HETATM   29  N   UNL     1       0.726   6.781 -27.976  1.00  0.00    -0.273 NA
HETATM   30  C   UNL     1       0.779   5.640 -28.692  1.00  0.00     0.116 A 
HETATM   31  C   UNL     1       0.082   5.432 -29.876  1.00  0.00     0.027 A 
ENDBRANCH  23  26
ENDBRANCH  22  23
ENDBRANCH   1  22
TORSDOF 6
ENDMDL
