MODEL 1
REMARK VINA RESULT:      -9.1      0.000      0.000
REMARK  2 active torsions:
REMARK  status: ('A' for Active; 'I' for Inactive)
REMARK    1  A    between atoms: O_2  and  C_3 
REMARK    2  A    between atoms: C_9  and  N_10 
REMARK       I    between atoms: N_10  and  C_11 
REMARK       I    between atoms: C_11  and  N_12 
ROOT
HETATM    1  N   UNL     1      -4.531   3.644 -31.734  1.00  0.00    -0.306 N 
HETATM    2  C   UNL     1      -3.789   2.516 -31.492  1.00  0.00     0.323 C 
HETATM    3  N   UNL     1      -4.467   1.317 -31.681  1.00  0.00    -0.328 N 
HETATM    4  C   UNL     1      -3.670   0.088 -31.565  1.00  0.00     0.185 C 
HETATM    5  C   UNL     1      -4.290  -0.959 -32.425  1.00  0.00     0.035 A 
HETATM    6  C   UNL     1      -5.527  -0.907 -33.037  1.00  0.00    -0.020 A 
HETATM    7  C   UNL     1      -6.405   0.287 -32.893  1.00  0.00     0.061 C 
HETATM    8  C   UNL     1      -5.938   1.131 -31.690  1.00  0.00     0.132 C 
HETATM    9  N   UNL     1      -3.708  -2.153 -32.745  1.00  0.00    -0.357 N 
HETATM   10  H   UNL     1      -2.794  -2.464 -32.445  1.00  0.00     0.166 HD
HETATM   11  C   UNL     1      -4.545  -2.875 -33.570  1.00  0.00     0.043 A 
HETATM   12  C   UNL     1      -5.698  -2.110 -33.771  1.00  0.00    -0.001 A 
HETATM   13  C   UNL     1      -4.365  -4.134 -34.154  1.00  0.00     0.030 A 
HETATM   14  C   UNL     1      -5.389  -4.624 -34.969  1.00  0.00     0.002 A 
HETATM   15  C   UNL     1      -6.548  -3.883 -35.190  1.00  0.00     0.001 A 
HETATM   16  C   UNL     1      -6.715  -2.625 -34.597  1.00  0.00     0.014 A 
HETATM   17  O   UNL     1      -2.609   2.524 -31.146  1.00  0.00    -0.247 OA
HETATM   18  H   UNL     1      -5.404   3.525 -32.226  1.00  0.00     0.171 HD
ENDROOT
BRANCH   1  19
HETATM   19  C   UNL     1      -4.131   4.998 -31.638  1.00  0.00     0.071 A 
HETATM   20  C   UNL     1      -3.387   5.526 -32.711  1.00  0.00     0.116 A 
HETATM   21  C   UNL     1      -2.871   6.827 -32.648  1.00  0.00     0.069 A 
HETATM   22 CL   UNL     1      -1.886   7.475 -33.910  1.00  0.00    -0.081 Cl
HETATM   23  C   UNL     1      -3.146   7.632 -31.543  1.00  0.00     0.027 A 
HETATM   24  C   UNL     1      -3.926   7.133 -30.501  1.00  0.00     0.004 A 
HETATM   25  C   UNL     1      -4.417   5.824 -30.548  1.00  0.00     0.032 A 
BRANCH  20  26
HETATM   26  O   UNL     1      -3.132   4.718 -33.798  1.00  0.00    -0.352 OA
HETATM   27  C   UNL     1      -3.982   5.087 -34.889  1.00  0.00     0.210 C 
ENDBRANCH  20  26
ENDBRANCH   1  19
TORSDOF 2
ENDMDL
MODEL 2
REMARK VINA RESULT:      -8.4      1.451      2.064
REMARK  2 active torsions:
REMARK  status: ('A' for Active; 'I' for Inactive)
REMARK    1  A    between atoms: O_2  and  C_3 
REMARK    2  A    between atoms: C_9  and  N_10 
REMARK       I    between atoms: N_10  and  C_11 
REMARK       I    between atoms: C_11  and  N_12 
ROOT
HETATM    1  N   UNL     1      -4.503   3.455 -31.923  1.00  0.00    -0.306 N 
HETATM    2  C   UNL     1      -3.773   2.334 -31.620  1.00  0.00     0.323 C 
HETATM    3  N   UNL     1      -4.444   1.130 -31.800  1.00  0.00    -0.328 N 
HETATM    4  C   UNL     1      -3.653  -0.095 -31.618  1.00  0.00     0.185 C 
HETATM    5  C   UNL     1      -4.241  -1.167 -32.470  1.00  0.00     0.035 A 
HETATM    6  C   UNL     1      -5.454  -1.133 -33.130  1.00  0.00    -0.020 A 
HETATM    7  C   UNL     1      -6.336   0.065 -33.054  1.00  0.00     0.061 C 
HETATM    8  C   UNL     1      -5.914   0.944 -31.859  1.00  0.00     0.132 C 
HETATM    9  N   UNL     1      -3.648  -2.369 -32.734  1.00  0.00    -0.357 N 
HETATM   10  H   UNL     1      -2.747  -2.671 -32.390  1.00  0.00     0.166 HD
HETATM   11  C   UNL     1      -4.455  -3.115 -33.568  1.00  0.00     0.043 A 
HETATM   12  C   UNL     1      -5.598  -2.356 -33.835  1.00  0.00    -0.001 A 
HETATM   13  C   UNL     1      -4.254  -4.391 -34.107  1.00  0.00     0.030 A 
HETATM   14  C   UNL     1      -5.247  -4.904 -34.947  1.00  0.00     0.002 A 
HETATM   15  C   UNL     1      -6.396  -4.170 -35.233  1.00  0.00     0.001 A 
HETATM   16  C   UNL     1      -6.584  -2.895 -34.683  1.00  0.00     0.014 A 
HETATM   17  O   UNL     1      -2.607   2.352 -31.231  1.00  0.00    -0.247 OA
HETATM   18  H   UNL     1      -5.357   3.321 -32.444  1.00  0.00     0.171 HD
ENDROOT
BRANCH   1  19
HETATM   19  C   UNL     1      -4.106   4.811 -31.851  1.00  0.00     0.071 A 
HETATM   20  C   UNL     1      -4.555   5.554 -30.743  1.00  0.00     0.116 A 
HETATM   21  C   UNL     1      -4.287   6.926 -30.648  1.00  0.00     0.069 A 
HETATM   22 CL   UNL     1      -4.893   7.882 -29.344  1.00  0.00    -0.081 Cl
HETATM   23  C   UNL     1      -3.517   7.553 -31.627  1.00  0.00     0.027 A 
HETATM   24  C   UNL     1      -3.024   6.812 -32.700  1.00  0.00     0.004 A 
HETATM   25  C   UNL     1      -3.317   5.448 -32.812  1.00  0.00     0.032 A 
BRANCH  20  26
HETATM   26  O   UNL     1      -5.308   4.915 -29.781  1.00  0.00    -0.352 OA
HETATM   27  C   UNL     1      -6.701   5.089 -30.059  1.00  0.00     0.210 C 
ENDBRANCH  20  26
ENDBRANCH   1  19
TORSDOF 2
ENDMDL
MODEL 3
REMARK VINA RESULT:      -8.2      2.192      2.986
REMARK  2 active torsions:
REMARK  status: ('A' for Active; 'I' for Inactive)
REMARK    1  A    between atoms: O_2  and  C_3 
REMARK    2  A    between atoms: C_9  and  N_10 
REMARK       I    between atoms: N_10  and  C_11 
REMARK       I    between atoms: C_11  and  N_12 
ROOT
HETATM    1  N   UNL     1      -5.302   3.177 -30.992  1.00  0.00    -0.306 N 
HETATM    2  C   UNL     1      -5.929   2.652 -32.094  1.00  0.00     0.323 C 
HETATM    3  N   UNL     1      -5.266   1.587 -32.693  1.00  0.00    -0.328 N 
HETATM    4  C   UNL     1      -5.973   0.911 -33.791  1.00  0.00     0.185 C 
HETATM    5  C   UNL     1      -5.521  -0.508 -33.837  1.00  0.00     0.035 A 
HETATM    6  C   UNL     1      -4.454  -1.064 -33.160  1.00  0.00    -0.020 A 
HETATM    7  C   UNL     1      -3.610  -0.241 -32.250  1.00  0.00     0.061 C 
HETATM    8  C   UNL     1      -3.828   1.256 -32.553  1.00  0.00     0.132 C 
HETATM    9  N   UNL     1      -6.116  -1.493 -34.574  1.00  0.00    -0.357 N 
HETATM   10  H   UNL     1      -6.928  -1.381 -35.165  1.00  0.00     0.166 HD
HETATM   11  C   UNL     1      -5.456  -2.689 -34.374  1.00  0.00     0.043 A 
HETATM   12  C   UNL     1      -4.407  -2.445 -33.484  1.00  0.00    -0.001 A 
HETATM   13  C   UNL     1      -5.716  -3.957 -34.905  1.00  0.00     0.030 A 
HETATM   14  C   UNL     1      -4.881  -5.007 -34.512  1.00  0.00     0.002 A 
HETATM   15  C   UNL     1      -3.828  -4.795 -33.625  1.00  0.00     0.001 A 
HETATM   16  C   UNL     1      -3.580  -3.519 -33.104  1.00  0.00     0.014 A 
HETATM   17  O   UNL     1      -7.002   3.056 -32.537  1.00  0.00    -0.247 OA
HETATM   18  H   UNL     1      -4.556   2.634 -30.584  1.00  0.00     0.171 HD
ENDROOT
BRANCH   1  19
HETATM   19  C   UNL     1      -5.719   4.249 -30.168  1.00  0.00     0.071 A 
HETATM   20  C   UNL     1      -4.920   5.408 -30.166  1.00  0.00     0.116 A 
HETATM   21  C   UNL     1      -5.211   6.474 -29.305  1.00  0.00     0.069 A 
HETATM   22 CL   UNL     1      -4.203   7.874 -29.221  1.00  0.00    -0.081 Cl
HETATM   23  C   UNL     1      -6.336   6.417 -28.485  1.00  0.00     0.027 A 
HETATM   24  C   UNL     1      -7.162   5.295 -28.519  1.00  0.00     0.004 A 
HETATM   25  C   UNL     1      -6.856   4.216 -29.356  1.00  0.00     0.032 A 
BRANCH  20  26
HETATM   26  O   UNL     1      -3.815   5.449 -30.991  1.00  0.00    -0.352 OA
HETATM   27  C   UNL     1      -4.141   6.126 -32.209  1.00  0.00     0.210 C 
ENDBRANCH  20  26
ENDBRANCH   1  19
TORSDOF 2
ENDMDL
MODEL 4
REMARK VINA RESULT:      -8.2      5.534      7.527
REMARK  2 active torsions:
REMARK  status: ('A' for Active; 'I' for Inactive)
REMARK    1  A    between atoms: O_2  and  C_3 
REMARK    2  A    between atoms: C_9  and  N_10 
REMARK       I    between atoms: N_10  and  C_11 
REMARK       I    between atoms: C_11  and  N_12 
ROOT
HETATM    1  N   UNL     1      -6.771   1.427 -32.712  1.00  0.00    -0.306 N 
HETATM    2  C   UNL     1      -7.664   2.303 -32.148  1.00  0.00     0.323 C 
HETATM    3  N   UNL     1      -8.873   2.424 -32.824  1.00  0.00    -0.328 N 
HETATM    4  C   UNL     1      -9.905   3.247 -32.177  1.00  0.00     0.185 C 
HETATM    5  C   UNL     1     -11.242   2.741 -32.597  1.00  0.00     0.035 A 
HETATM    6  C   UNL     1     -11.509   1.833 -33.603  1.00  0.00    -0.020 A 
HETATM    7  C   UNL     1     -10.409   1.228 -34.403  1.00  0.00     0.061 C 
HETATM    8  C   UNL     1      -9.127   2.070 -34.241  1.00  0.00     0.132 C 
HETATM    9  N   UNL     1     -12.430   3.107 -32.029  1.00  0.00    -0.357 N 
HETATM   10  H   UNL     1     -12.543   3.755 -31.261  1.00  0.00     0.166 HD
HETATM   11  C   UNL     1     -13.468   2.439 -32.645  1.00  0.00     0.043 A 
HETATM   12  C   UNL     1     -12.913   1.627 -33.639  1.00  0.00    -0.001 A 
HETATM   13  C   UNL     1     -14.843   2.488 -32.392  1.00  0.00     0.030 A 
HETATM   14  C   UNL     1     -15.675   1.681 -33.174  1.00  0.00     0.002 A 
HETATM   15  C   UNL     1     -15.151   0.860 -34.170  1.00  0.00     0.001 A 
HETATM   16  C   UNL     1     -13.772   0.824 -34.413  1.00  0.00     0.014 A 
HETATM   17  O   UNL     1      -7.453   2.938 -31.116  1.00  0.00    -0.247 OA
HETATM   18  H   UNL     1      -7.126   0.797 -33.415  1.00  0.00     0.171 HD
ENDROOT
BRANCH   1  19
HETATM   19  C   UNL     1      -5.473   1.083 -32.265  1.00  0.00     0.071 A 
HETATM   20  C   UNL     1      -5.105  -0.274 -32.348  1.00  0.00     0.116 A 
HETATM   21  C   UNL     1      -3.876  -0.711 -31.836  1.00  0.00     0.069 A 
HETATM   22 CL   UNL     1      -3.430  -2.379 -31.848  1.00  0.00    -0.081 Cl
HETATM   23  C   UNL     1      -2.980   0.211 -31.296  1.00  0.00     0.027 A 
HETATM   24  C   UNL     1      -3.317   1.563 -31.259  1.00  0.00     0.004 A 
HETATM   25  C   UNL     1      -4.557   1.998 -31.741  1.00  0.00     0.032 A 
BRANCH  20  26
HETATM   26  O   UNL     1      -6.001  -1.169 -32.893  1.00  0.00    -0.352 OA
HETATM   27  C   UNL     1      -5.674  -1.411 -34.265  1.00  0.00     0.210 C 
ENDBRANCH  20  26
ENDBRANCH   1  19
TORSDOF 2
ENDMDL
MODEL 5
REMARK VINA RESULT:      -7.9      3.296      8.544
REMARK  2 active torsions:
REMARK  status: ('A' for Active; 'I' for Inactive)
REMARK    1  A    between atoms: O_2  and  C_3 
REMARK    2  A    between atoms: C_9  and  N_10 
REMARK       I    between atoms: N_10  and  C_11 
REMARK       I    between atoms: C_11  and  N_12 
ROOT
HETATM    1  N   UNL     1      -5.010  -0.256 -32.812  1.00  0.00    -0.306 N 
HETATM    2  C   UNL     1      -5.450   0.179 -31.587  1.00  0.00     0.323 C 
HETATM    3  N   UNL     1      -4.963   1.421 -31.196  1.00  0.00    -0.328 N 
HETATM    4  C   UNL     1      -5.518   1.981 -29.956  1.00  0.00     0.185 C 
HETATM    5  C   UNL     1      -5.461   3.467 -30.044  1.00  0.00     0.035 A 
HETATM    6  C   UNL     1      -4.789   4.220 -30.988  1.00  0.00    -0.020 A 
HETATM    7  C   UNL     1      -4.019   3.568 -32.083  1.00  0.00     0.061 C 
HETATM    8  C   UNL     1      -3.749   2.093 -31.720  1.00  0.00     0.132 C 
HETATM    9  N   UNL     1      -6.087   4.325 -29.185  1.00  0.00    -0.357 N 
HETATM   10  H   UNL     1      -6.661   4.058 -28.397  1.00  0.00     0.166 HD
HETATM   11  C   UNL     1      -5.841   5.629 -29.564  1.00  0.00     0.043 A 
HETATM   12  C   UNL     1      -5.028   5.589 -30.700  1.00  0.00    -0.001 A 
HETATM   13  C   UNL     1      -6.282   6.829 -28.994  1.00  0.00     0.030 A 
HETATM   14  C   UNL     1      -5.884   8.021 -29.605  1.00  0.00     0.002 A 
HETATM   15  C   UNL     1      -5.076   8.013 -30.740  1.00  0.00     0.001 A 
HETATM   16  C   UNL     1      -4.640   6.804 -31.297  1.00  0.00     0.014 A 
HETATM   17  O   UNL     1      -6.228  -0.447 -30.870  1.00  0.00    -0.247 OA
HETATM   18  H   UNL     1      -4.565   0.424 -33.409  1.00  0.00     0.171 HD
ENDROOT
BRANCH   1  19
HETATM   19  C   UNL     1      -5.325  -1.460 -33.485  1.00  0.00     0.071 A 
HETATM   20  C   UNL     1      -4.344  -2.470 -33.489  1.00  0.00     0.116 A 
HETATM   21  C   UNL     1      -4.541  -3.652 -34.215  1.00  0.00     0.069 A 
HETATM   22 CL   UNL     1      -3.323  -4.873 -34.308  1.00  0.00    -0.081 Cl
HETATM   23  C   UNL     1      -5.742  -3.861 -34.890  1.00  0.00     0.027 A 
HETATM   24  C   UNL     1      -6.740  -2.888 -34.846  1.00  0.00     0.004 A 
HETATM   25  C   UNL     1      -6.533  -1.694 -34.147  1.00  0.00     0.032 A 
BRANCH  20  26
HETATM   26  O   UNL     1      -3.165  -2.247 -32.809  1.00  0.00    -0.352 OA
HETATM   27  C   UNL     1      -3.071  -3.138 -31.693  1.00  0.00     0.210 C 
ENDBRANCH  20  26
ENDBRANCH   1  19
TORSDOF 2
ENDMDL
MODEL 6
REMARK VINA RESULT:      -7.9      3.719      8.264
REMARK  2 active torsions:
REMARK  status: ('A' for Active; 'I' for Inactive)
REMARK    1  A    between atoms: O_2  and  C_3 
REMARK    2  A    between atoms: C_9  and  N_10 
REMARK       I    between atoms: N_10  and  C_11 
REMARK       I    between atoms: C_11  and  N_12 
ROOT
HETATM    1  N   UNL     1      -4.743  -0.623 -32.780  1.00  0.00    -0.306 N 
HETATM    2  C   UNL     1      -4.174   0.208 -31.849  1.00  0.00     0.323 C 
HETATM    3  N   UNL     1      -4.739   1.476 -31.771  1.00  0.00    -0.328 N 
HETATM    4  C   UNL     1      -4.248   2.346 -30.693  1.00  0.00     0.185 C 
HETATM    5  C   UNL     1      -5.340   3.287 -30.314  1.00  0.00     0.035 A 
HETATM    6  C   UNL     1      -6.522   3.505 -30.993  1.00  0.00    -0.020 A 
HETATM    7  C   UNL     1      -6.839   2.760 -32.243  1.00  0.00     0.061 C 
HETATM    8  C   UNL     1      -5.549   2.142 -32.819  1.00  0.00     0.132 C 
HETATM    9  N   UNL     1      -5.332   4.088 -29.208  1.00  0.00    -0.357 N 
HETATM   10  H   UNL     1      -4.594   4.135 -28.518  1.00  0.00     0.166 HD
HETATM   11  C   UNL     1      -6.501   4.818 -29.150  1.00  0.00     0.043 A 
HETATM   12  C   UNL     1      -7.270   4.466 -30.263  1.00  0.00    -0.001 A 
HETATM   13  C   UNL     1      -6.934   5.748 -28.198  1.00  0.00     0.030 A 
HETATM   14  C   UNL     1      -8.189   6.333 -28.387  1.00  0.00     0.002 A 
HETATM   15  C   UNL     1      -8.979   6.000 -29.485  1.00  0.00     0.001 A 
HETATM   16  C   UNL     1      -8.532   5.069 -30.431  1.00  0.00     0.014 A 
HETATM   17  O   UNL     1      -3.244  -0.114 -31.111  1.00  0.00    -0.247 OA
HETATM   18  H   UNL     1      -5.633  -0.343 -33.164  1.00  0.00     0.171 HD
ENDROOT
BRANCH   1  19
HETATM   19  C   UNL     1      -4.403  -1.961 -33.092  1.00  0.00     0.071 A 
HETATM   20  C   UNL     1      -5.108  -2.575 -34.145  1.00  0.00     0.116 A 
HETATM   21  C   UNL     1      -4.898  -3.925 -34.452  1.00  0.00     0.069 A 
HETATM   22 CL   UNL     1      -5.806  -4.728 -35.682  1.00  0.00    -0.081 Cl
HETATM   23  C   UNL     1      -3.940  -4.657 -33.751  1.00  0.00     0.027 A 
HETATM   24  C   UNL     1      -3.201  -4.041 -32.742  1.00  0.00     0.004 A 
HETATM   25  C   UNL     1      -3.430  -2.700 -32.414  1.00  0.00     0.032 A 
BRANCH  20  26
HETATM   26  O   UNL     1      -6.046  -1.833 -34.832  1.00  0.00    -0.352 OA
HETATM   27  C   UNL     1      -7.329  -1.979 -34.215  1.00  0.00     0.210 C 
ENDBRANCH  20  26
ENDBRANCH   1  19
TORSDOF 2
ENDMDL
MODEL 7
REMARK VINA RESULT:      -7.9     16.391     18.085
REMARK  2 active torsions:
REMARK  status: ('A' for Active; 'I' for Inactive)
REMARK    1  A    between atoms: O_2  and  C_3 
REMARK    2  A    between atoms: C_9  and  N_10 
REMARK       I    between atoms: N_10  and  C_11 
REMARK       I    between atoms: C_11  and  N_12 
ROOT
HETATM    1  N   UNL     1      -7.124 -13.274 -38.831  1.00  0.00    -0.306 N 
HETATM    2  C   UNL     1      -6.018 -12.646 -39.345  1.00  0.00     0.323 C 
HETATM    3  N   UNL     1      -4.848 -12.828 -38.616  1.00  0.00    -0.328 N 
HETATM    4  C   UNL     1      -3.617 -12.286 -39.207  1.00  0.00     0.185 C 
HETATM    5  C   UNL     1      -2.467 -13.108 -38.735  1.00  0.00     0.035 A 
HETATM    6  C   UNL     1      -2.478 -14.054 -37.729  1.00  0.00    -0.020 A 
HETATM    7  C   UNL     1      -3.729 -14.368 -36.985  1.00  0.00     0.061 C 
HETATM    8  C   UNL     1      -4.755 -13.235 -37.193  1.00  0.00     0.132 C 
HETATM    9  N   UNL     1      -1.201 -13.046 -39.245  1.00  0.00    -0.357 N 
HETATM   10  H   UNL     1      -0.897 -12.446 -40.000  1.00  0.00     0.166 HD
HETATM   11  C   UNL     1      -0.389 -13.951 -38.592  1.00  0.00     0.043 A 
HETATM   12  C   UNL     1      -1.172 -14.601 -37.634  1.00  0.00    -0.001 A 
HETATM   13  C   UNL     1       0.966 -14.243 -38.784  1.00  0.00     0.030 A 
HETATM   14  C   UNL     1       1.536 -15.232 -37.977  1.00  0.00     0.002 A 
HETATM   15  C   UNL     1       0.780 -15.898 -37.015  1.00  0.00     0.001 A 
HETATM   16  C   UNL     1      -0.574 -15.592 -36.833  1.00  0.00     0.014 A 
HETATM   17  O   UNL     1      -6.019 -11.978 -40.377  1.00  0.00    -0.247 OA
HETATM   18  H   UNL     1      -6.968 -13.973 -38.120  1.00  0.00     0.171 HD
ENDROOT
BRANCH   1  19
HETATM   19  C   UNL     1      -8.445 -13.287 -39.338  1.00  0.00     0.071 A 
HETATM   20  C   UNL     1      -8.991 -14.539 -39.678  1.00  0.00     0.116 A 
HETATM   21  C   UNL     1     -10.255 -14.628 -40.277  1.00  0.00     0.069 A 
HETATM   22 CL   UNL     1     -10.916 -16.141 -40.781  1.00  0.00    -0.081 Cl
HETATM   23  C   UNL     1     -11.008 -13.473 -40.483  1.00  0.00     0.027 A 
HETATM   24  C   UNL     1     -10.496 -12.234 -40.100  1.00  0.00     0.004 A 
HETATM   25  C   UNL     1      -9.221 -12.141 -39.530  1.00  0.00     0.032 A 
BRANCH  20  26
HETATM   26  O   UNL     1      -8.233 -15.671 -39.459  1.00  0.00    -0.352 OA
HETATM   27  C   UNL     1      -8.596 -16.265 -38.209  1.00  0.00     0.210 C 
ENDBRANCH  20  26
ENDBRANCH   1  19
TORSDOF 2
ENDMDL
MODEL 8
REMARK VINA RESULT:      -7.9      6.999      9.248
REMARK  2 active torsions:
REMARK  status: ('A' for Active; 'I' for Inactive)
REMARK    1  A    between atoms: O_2  and  C_3 
REMARK    2  A    between atoms: C_9  and  N_10 
REMARK       I    between atoms: N_10  and  C_11 
REMARK       I    between atoms: C_11  and  N_12 
ROOT
HETATM    1  N   UNL     1      -9.067   0.779 -32.742  1.00  0.00    -0.306 N 
HETATM    2  C   UNL     1      -9.494   2.083 -32.734  1.00  0.00     0.323 C 
HETATM    3  N   UNL     1     -10.817   2.269 -33.122  1.00  0.00    -0.328 N 
HETATM    4  C   UNL     1     -11.350   3.632 -32.996  1.00  0.00     0.185 C 
HETATM    5  C   UNL     1     -12.820   3.543 -32.769  1.00  0.00     0.035 A 
HETATM    6  C   UNL     1     -13.615   2.421 -32.899  1.00  0.00    -0.020 A 
HETATM    7  C   UNL     1     -13.032   1.108 -33.291  1.00  0.00     0.061 C 
HETATM    8  C   UNL     1     -11.640   1.326 -33.917  1.00  0.00     0.132 C 
HETATM    9  N   UNL     1     -13.616   4.585 -32.385  1.00  0.00    -0.357 N 
HETATM   10  H   UNL     1     -13.306   5.530 -32.205  1.00  0.00     0.166 HD
HETATM   11  C   UNL     1     -14.920   4.153 -32.250  1.00  0.00     0.043 A 
HETATM   12  C   UNL     1     -14.945   2.791 -32.565  1.00  0.00    -0.001 A 
HETATM   13  C   UNL     1     -16.065   4.860 -31.868  1.00  0.00     0.030 A 
HETATM   14  C   UNL     1     -17.270   4.154 -31.801  1.00  0.00     0.002 A 
HETATM   15  C   UNL     1     -17.325   2.796 -32.108  1.00  0.00     0.001 A 
HETATM   16  C   UNL     1     -16.170   2.103 -32.491  1.00  0.00     0.014 A 
HETATM   17  O   UNL     1      -8.795   3.038 -32.402  1.00  0.00    -0.247 OA
HETATM   18  H   UNL     1      -9.775   0.063 -32.808  1.00  0.00     0.171 HD
ENDROOT
BRANCH   1  19
HETATM   19  C   UNL     1      -7.793   0.268 -32.397  1.00  0.00     0.071 A 
HETATM   20  C   UNL     1      -7.104  -0.459 -33.386  1.00  0.00     0.116 A 
HETATM   21  C   UNL     1      -5.883  -1.080 -33.093  1.00  0.00     0.069 A 
HETATM   22 CL   UNL     1      -5.053  -2.047 -34.259  1.00  0.00    -0.081 Cl
HETATM   23  C   UNL     1      -5.311  -0.929 -31.830  1.00  0.00     0.027 A 
HETATM   24  C   UNL     1      -5.963  -0.167 -30.862  1.00  0.00     0.004 A 
HETATM   25  C   UNL     1      -7.198   0.429 -31.143  1.00  0.00     0.032 A 
BRANCH  20  26
HETATM   26  O   UNL     1      -7.681  -0.591 -34.631  1.00  0.00    -0.352 OA
HETATM   27  C   UNL     1      -7.151   0.396 -35.521  1.00  0.00     0.210 C 
ENDBRANCH  20  26
ENDBRANCH   1  19
TORSDOF 2
ENDMDL
MODEL 9
REMARK VINA RESULT:      -7.9      3.512      8.931
REMARK  2 active torsions:
REMARK  status: ('A' for Active; 'I' for Inactive)
REMARK    1  A    between atoms: O_2  and  C_3 
REMARK    2  A    between atoms: C_9  and  N_10 
REMARK       I    between atoms: N_10  and  C_11 
REMARK       I    between atoms: C_11  and  N_12 
ROOT
HETATM    1  N   UNL     1      -4.752   3.500 -31.445  1.00  0.00    -0.306 N 
HETATM    2  C   UNL     1      -3.388   3.614 -31.536  1.00  0.00     0.323 C 
HETATM    3  N   UNL     1      -2.886   4.881 -31.262  1.00  0.00    -0.328 N 
HETATM    4  C   UNL     1      -1.423   5.010 -31.215  1.00  0.00     0.185 C 
HETATM    5  C   UNL     1      -1.077   6.122 -30.287  1.00  0.00     0.035 A 
HETATM    6  C   UNL     1      -1.943   7.052 -29.744  1.00  0.00    -0.020 A 
HETATM    7  C   UNL     1      -3.400   7.015 -30.050  1.00  0.00     0.061 C 
HETATM    8  C   UNL     1      -3.643   6.155 -31.307  1.00  0.00     0.132 C 
HETATM    9  N   UNL     1       0.179   6.389 -29.820  1.00  0.00    -0.357 N 
HETATM   10  H   UNL     1       1.015   5.866 -30.042  1.00  0.00     0.166 HD
HETATM   11  C   UNL     1       0.141   7.475 -28.969  1.00  0.00     0.043 A 
HETATM   12  C   UNL     1      -1.186   7.909 -28.903  1.00  0.00    -0.001 A 
HETATM   13  C   UNL     1       1.173   8.093 -28.255  1.00  0.00     0.030 A 
HETATM   14  C   UNL     1       0.840   9.183 -27.446  1.00  0.00     0.002 A 
HETATM   15  C   UNL     1      -0.475   9.637 -27.358  1.00  0.00     0.001 A 
HETATM   16  C   UNL     1      -1.497   9.009 -28.081  1.00  0.00     0.014 A 
HETATM   17  O   UNL     1      -2.634   2.686 -31.822  1.00  0.00    -0.247 OA
HETATM   18  H   UNL     1      -5.248   4.250 -30.987  1.00  0.00     0.171 HD
ENDROOT
BRANCH   1  19
HETATM   19  C   UNL     1      -5.557   2.355 -31.656  1.00  0.00     0.071 A 
HETATM   20  C   UNL     1      -6.132   2.200 -32.932  1.00  0.00     0.116 A 
HETATM   21  C   UNL     1      -7.019   1.147 -33.191  1.00  0.00     0.069 A 
HETATM   22 CL   UNL     1      -7.804   0.977 -34.719  1.00  0.00    -0.081 Cl
HETATM   23  C   UNL     1      -7.289   0.205 -32.199  1.00  0.00     0.027 A 
HETATM   24  C   UNL     1      -6.681   0.322 -30.950  1.00  0.00     0.004 A 
HETATM   25  C   UNL     1      -5.819   1.391 -30.679  1.00  0.00     0.032 A 
BRANCH  20  26
HETATM   26  O   UNL     1      -5.847   3.137 -33.902  1.00  0.00    -0.352 OA
HETATM   27  C   UNL     1      -6.832   4.175 -33.881  1.00  0.00     0.210 C 
ENDBRANCH  20  26
ENDBRANCH   1  19
TORSDOF 2
ENDMDL
MODEL 10
REMARK VINA RESULT:      -7.8      3.075      4.752
REMARK  2 active torsions:
REMARK  status: ('A' for Active; 'I' for Inactive)
REMARK    1  A    between atoms: O_2  and  C_3 
REMARK    2  A    between atoms: C_9  and  N_10 
REMARK       I    between atoms: N_10  and  C_11 
REMARK       I    between atoms: C_11  and  N_12 
ROOT
HETATM    1  N   UNL     1      -2.424   6.035 -30.122  1.00  0.00    -0.306 N 
HETATM    2  C   UNL     1      -3.246   6.109 -31.219  1.00  0.00     0.323 C 
HETATM    3  N   UNL     1      -3.447   4.905 -31.883  1.00  0.00    -0.328 N 
HETATM    4  C   UNL     1      -4.428   4.918 -32.978  1.00  0.00     0.185 C 
HETATM    5  C   UNL     1      -5.019   3.555 -33.097  1.00  0.00     0.035 A 
HETATM    6  C   UNL     1      -4.577   2.401 -32.482  1.00  0.00    -0.020 A 
HETATM    7  C   UNL     1      -3.397   2.418 -31.573  1.00  0.00     0.061 C 
HETATM    8  C   UNL     1      -2.580   3.705 -31.809  1.00  0.00     0.132 C 
HETATM    9  N   UNL     1      -6.117   3.243 -33.847  1.00  0.00    -0.357 N 
HETATM   10  H   UNL     1      -6.657   3.892 -34.402  1.00  0.00     0.166 HD
HETATM   11  C   UNL     1      -6.404   1.899 -33.718  1.00  0.00     0.043 A 
HETATM   12  C   UNL     1      -5.449   1.347 -32.860  1.00  0.00    -0.001 A 
HETATM   13  C   UNL     1      -7.434   1.142 -34.288  1.00  0.00     0.030 A 
HETATM   14  C   UNL     1      -7.493  -0.217 -33.967  1.00  0.00     0.002 A 
HETATM   15  C   UNL     1      -6.556  -0.795 -33.113  1.00  0.00     0.001 A 
HETATM   16  C   UNL     1      -5.530  -0.025 -32.553  1.00  0.00     0.014 A 
HETATM   17  O   UNL     1      -3.791   7.141 -31.605  1.00  0.00    -0.247 OA
HETATM   18  H   UNL     1      -2.218   5.115 -29.764  1.00  0.00     0.171 HD
ENDROOT
BRANCH   1  19
HETATM   19  C   UNL     1      -2.033   7.072 -29.242  1.00  0.00     0.071 A 
HETATM   20  C   UNL     1      -0.655   7.342 -29.140  1.00  0.00     0.116 A 
HETATM   21  C   UNL     1      -0.180   8.285 -28.220  1.00  0.00     0.069 A 
HETATM   22 CL   UNL     1       1.509   8.580 -28.013  1.00  0.00    -0.081 Cl
HETATM   23  C   UNL     1      -1.079   9.009 -27.439  1.00  0.00     0.027 A 
HETATM   24  C   UNL     1      -2.449   8.785 -27.573  1.00  0.00     0.004 A 
HETATM   25  C   UNL     1      -2.924   7.821 -28.470  1.00  0.00     0.032 A 
BRANCH  20  26
HETATM   26  O   UNL     1       0.219   6.620 -29.926  1.00  0.00    -0.352 OA
HETATM   27  C   UNL     1       0.677   5.467 -29.213  1.00  0.00     0.210 C 
ENDBRANCH  20  26
ENDBRANCH   1  19
TORSDOF 2
ENDMDL
