MODEL 1
REMARK VINA RESULT:      -9.7      0.000      0.000
REMARK  5 active torsions:
REMARK  status: ('A' for Active; 'I' for Inactive)
REMARK    1  A    between atoms: C_5  and  C_6 
REMARK    2  A    between atoms: C_10  and  C_11 
REMARK       I    between atoms: C_11  and  N_12 
REMARK    3  A    between atoms: N_12  and  N_13 
REMARK       I    between atoms: N_13  and  C_14 
REMARK       I    between atoms: C_14  and  N_15 
REMARK    4  A    between atoms: N_15  and  C_16 
REMARK    5  A    between atoms: C_16  and  C_17 
ROOT
HETATM    1  C   UNL     1      -3.806   3.266 -31.360  1.00  0.00     0.288 C 
HETATM    2  N   UNL     1      -2.507   3.710 -31.254  1.00  0.00    -0.261 N 
HETATM    3  O   UNL     1      -4.770   3.999 -31.150  1.00  0.00    -0.264 OA
HETATM    4  H   UNL     1      -1.689   3.120 -31.384  1.00  0.00     0.190 HD
ENDROOT
BRANCH   2   5
HETATM    5  N   UNL     1      -2.254   5.037 -30.873  1.00  0.00    -0.249 N 
HETATM    6  C   UNL     1      -1.009   5.286 -30.336  1.00  0.00     0.334 C 
HETATM    7  N   UNL     1      -0.878   6.574 -29.889  1.00  0.00    -0.341 N 
HETATM    8  O   UNL     1      -0.122   4.439 -30.297  1.00  0.00    -0.246 OA
HETATM    9  H   UNL     1      -1.552   7.244 -30.228  1.00  0.00     0.164 HD
HETATM   10  H   UNL     1      -3.059   5.551 -30.527  1.00  0.00     0.192 HD
BRANCH   7  11
HETATM   11  C   UNL     1       0.403   7.077 -29.430  1.00  0.00     0.129 C 
BRANCH  11  12
HETATM   12  C   UNL     1       0.269   8.369 -28.602  1.00  0.00     0.004 C 
HETATM   13  C   UNL     1      -0.897   8.357 -27.592  1.00  0.00     0.010 C 
HETATM   14  C   UNL     1      -0.642   7.627 -26.261  1.00  0.00    -0.018 C 
HETATM   15  C   UNL     1       0.718   8.004 -25.662  1.00  0.00     0.004 C 
HETATM   16  C   UNL     1      -0.818   6.112 -26.358  1.00  0.00     0.010 C 
HETATM   17  C   UNL     1       1.863   7.893 -26.664  1.00  0.00     0.001 C 
HETATM   18  C   UNL     1       1.590   8.731 -27.910  1.00  0.00     0.006 C 
ENDBRANCH  11  12
ENDBRANCH   7  11
ENDBRANCH   2   5
BRANCH   1  19
HETATM   19  C   UNL     1      -3.946   1.883 -31.726  1.00  0.00     0.121 A 
HETATM   20  N   UNL     1      -3.137   0.911 -31.210  1.00  0.00    -0.272 N 
HETATM   21  N   UNL     1      -3.390  -0.320 -31.675  1.00  0.00    -0.174 NA
HETATM   22  H   UNL     1      -2.387   1.036 -30.536  1.00  0.00     0.189 HD
HETATM   23  C   UNL     1      -4.413  -0.161 -32.530  1.00  0.00     0.089 A 
HETATM   24  C   UNL     1      -4.794   1.211 -32.584  1.00  0.00     0.071 A 
BRANCH  23  25
HETATM   25  C   UNL     1      -4.982  -1.287 -33.281  1.00  0.00    -0.006 A 
HETATM   26  C   UNL     1      -6.306  -1.259 -33.741  1.00  0.00     0.014 A 
HETATM   27  C   UNL     1      -6.830  -2.326 -34.481  1.00  0.00     0.007 A 
HETATM   28  C   UNL     1      -6.045  -3.447 -34.766  1.00  0.00    -0.062 A 
HETATM   29  C   UNL     1      -6.587  -4.573 -35.594  1.00  0.00     0.048 C 
HETATM   30  C   UNL     1      -4.723  -3.480 -34.311  1.00  0.00     0.007 A 
HETATM   31  C   UNL     1      -4.200  -2.413 -33.571  1.00  0.00     0.014 A 
ENDBRANCH  23  25
ENDBRANCH   1  19
TORSDOF 5
ENDMDL
MODEL 2
REMARK VINA RESULT:      -9.2      1.349      1.633
REMARK  5 active torsions:
REMARK  status: ('A' for Active; 'I' for Inactive)
REMARK    1  A    between atoms: C_5  and  C_6 
REMARK    2  A    between atoms: C_10  and  C_11 
REMARK       I    between atoms: C_11  and  N_12 
REMARK    3  A    between atoms: N_12  and  N_13 
REMARK       I    between atoms: N_13  and  C_14 
REMARK       I    between atoms: C_14  and  N_15 
REMARK    4  A    between atoms: N_15  and  C_16 
REMARK    5  A    between atoms: C_16  and  C_17 
ROOT
HETATM    1  C   UNL     1      -4.745   3.422 -31.089  1.00  0.00     0.288 C 
HETATM    2  N   UNL     1      -3.735   4.251 -31.523  1.00  0.00    -0.261 N 
HETATM    3  O   UNL     1      -5.269   3.548 -29.984  1.00  0.00    -0.264 OA
HETATM    4  H   UNL     1      -3.257   4.151 -32.414  1.00  0.00     0.190 HD
ENDROOT
BRANCH   2   5
HETATM    5  N   UNL     1      -3.258   5.268 -30.681  1.00  0.00    -0.249 N 
HETATM    6  C   UNL     1      -1.891   5.330 -30.521  1.00  0.00     0.334 C 
HETATM    7  N   UNL     1      -1.512   6.273 -29.603  1.00  0.00    -0.341 N 
HETATM    8  O   UNL     1      -1.115   4.627 -31.162  1.00  0.00    -0.246 OA
HETATM    9  H   UNL     1      -2.197   6.974 -29.361  1.00  0.00     0.164 HD
HETATM   10  H   UNL     1      -3.864   5.506 -29.900  1.00  0.00     0.192 HD
BRANCH   7  11
HETATM   11  C   UNL     1      -0.112   6.600 -29.403  1.00  0.00     0.129 C 
BRANCH  11  12
HETATM   12  C   UNL     1       0.092   8.039 -28.892  1.00  0.00     0.004 C 
HETATM   13  C   UNL     1      -1.037   8.552 -27.975  1.00  0.00     0.010 C 
HETATM   14  C   UNL     1      -0.978   8.108 -26.503  1.00  0.00    -0.018 C 
HETATM   15  C   UNL     1       0.433   8.259 -25.924  1.00  0.00     0.004 C 
HETATM   16  C   UNL     1      -1.540   6.706 -26.270  1.00  0.00     0.010 C 
HETATM   17  C   UNL     1       1.510   7.636 -26.806  1.00  0.00     0.001 C 
HETATM   18  C   UNL     1       1.463   8.205 -28.221  1.00  0.00     0.006 C 
ENDBRANCH  11  12
ENDBRANCH   7  11
ENDBRANCH   2   5
BRANCH   1  19
HETATM   19  C   UNL     1      -5.132   2.399 -32.021  1.00  0.00     0.121 A 
HETATM   20  N   UNL     1      -5.917   2.666 -33.106  1.00  0.00    -0.272 N 
HETATM   21  N   UNL     1      -6.201   1.593 -33.858  1.00  0.00    -0.174 NA
HETATM   22  H   UNL     1      -6.293   3.569 -33.380  1.00  0.00     0.189 HD
HETATM   23  C   UNL     1      -5.574   0.572 -33.249  1.00  0.00     0.089 A 
HETATM   24  C   UNL     1      -4.887   1.041 -32.094  1.00  0.00     0.071 A 
BRANCH  23  25
HETATM   25  C   UNL     1      -5.658  -0.804 -33.754  1.00  0.00    -0.006 A 
HETATM   26  C   UNL     1      -4.519  -1.615 -33.846  1.00  0.00     0.014 A 
HETATM   27  C   UNL     1      -4.614  -2.936 -34.302  1.00  0.00     0.007 A 
HETATM   28  C   UNL     1      -5.848  -3.468 -34.686  1.00  0.00    -0.062 A 
HETATM   29  C   UNL     1      -5.963  -4.894 -35.134  1.00  0.00     0.048 C 
HETATM   30  C   UNL     1      -6.989  -2.664 -34.596  1.00  0.00     0.007 A 
HETATM   31  C   UNL     1      -6.892  -1.344 -34.141  1.00  0.00     0.014 A 
ENDBRANCH  23  25
ENDBRANCH   1  19
TORSDOF 5
ENDMDL
MODEL 3
REMARK VINA RESULT:      -9.2      1.160      1.654
REMARK  5 active torsions:
REMARK  status: ('A' for Active; 'I' for Inactive)
REMARK    1  A    between atoms: C_5  and  C_6 
REMARK    2  A    between atoms: C_10  and  C_11 
REMARK       I    between atoms: C_11  and  N_12 
REMARK    3  A    between atoms: N_12  and  N_13 
REMARK       I    between atoms: N_13  and  C_14 
REMARK       I    between atoms: C_14  and  N_15 
REMARK    4  A    between atoms: N_15  and  C_16 
REMARK    5  A    between atoms: C_16  and  C_17 
ROOT
HETATM    1  C   UNL     1      -4.762   3.472 -30.781  1.00  0.00     0.288 C 
HETATM    2  N   UNL     1      -3.752   4.383 -30.997  1.00  0.00    -0.261 N 
HETATM    3  O   UNL     1      -5.720   3.717 -30.050  1.00  0.00    -0.264 OA
HETATM    4  H   UNL     1      -2.929   4.198 -31.565  1.00  0.00     0.190 HD
ENDROOT
BRANCH   2   5
HETATM    5  N   UNL     1      -3.789   5.630 -30.356  1.00  0.00    -0.249 N 
HETATM    6  C   UNL     1      -2.570   6.235 -30.137  1.00  0.00     0.334 C 
HETATM    7  N   UNL     1      -2.680   7.391 -29.411  1.00  0.00    -0.341 N 
HETATM    8  O   UNL     1      -1.517   5.784 -30.577  1.00  0.00    -0.246 OA
HETATM    9  H   UNL     1      -3.598   7.807 -29.355  1.00  0.00     0.164 HD
HETATM   10  H   UNL     1      -4.534   5.747 -29.675  1.00  0.00     0.192 HD
BRANCH   7  11
HETATM   11  C   UNL     1      -1.533   8.255 -29.205  1.00  0.00     0.129 C 
BRANCH  11  12
HETATM   12  C   UNL     1      -1.248   8.517 -27.714  1.00  0.00     0.004 C 
HETATM   13  C   UNL     1      -0.988   7.242 -26.885  1.00  0.00     0.010 C 
HETATM   14  C   UNL     1       0.430   6.649 -26.967  1.00  0.00    -0.018 C 
HETATM   15  C   UNL     1       1.504   7.734 -26.826  1.00  0.00     0.004 C 
HETATM   16  C   UNL     1       0.655   5.788 -28.210  1.00  0.00     0.010 C 
HETATM   17  C   UNL     1       1.272   8.928 -27.746  1.00  0.00     0.001 C 
HETATM   18  C   UNL     1      -0.112   9.532 -27.530  1.00  0.00     0.006 C 
ENDBRANCH  11  12
ENDBRANCH   7  11
ENDBRANCH   2   5
BRANCH   1  19
HETATM   19  C   UNL     1      -4.605   2.218 -31.464  1.00  0.00     0.121 A 
HETATM   20  N   UNL     1      -3.378   1.655 -31.673  1.00  0.00    -0.272 N 
HETATM   21  N   UNL     1      -3.412   0.496 -32.345  1.00  0.00    -0.174 NA
HETATM   22  H   UNL     1      -2.479   2.025 -31.380  1.00  0.00     0.189 HD
HETATM   23  C   UNL     1      -4.715   0.277 -32.587  1.00  0.00     0.089 A 
HETATM   24  C   UNL     1      -5.496   1.336 -32.043  1.00  0.00     0.071 A 
BRANCH  23  25
HETATM   25  C   UNL     1      -5.181  -0.898 -33.335  1.00  0.00    -0.006 A 
HETATM   26  C   UNL     1      -4.280  -1.863 -33.806  1.00  0.00     0.014 A 
HETATM   27  C   UNL     1      -4.736  -2.994 -34.494  1.00  0.00     0.007 A 
HETATM   28  C   UNL     1      -6.101  -3.177 -34.734  1.00  0.00    -0.062 A 
HETATM   29  C   UNL     1      -6.599  -4.408 -35.431  1.00  0.00     0.048 C 
HETATM   30  C   UNL     1      -7.005  -2.219 -34.265  1.00  0.00     0.007 A 
HETATM   31  C   UNL     1      -6.548  -1.088 -33.579  1.00  0.00     0.014 A 
ENDBRANCH  23  25
ENDBRANCH   1  19
TORSDOF 5
ENDMDL
MODEL 4
REMARK VINA RESULT:      -8.9      1.477     11.419
REMARK  5 active torsions:
REMARK  status: ('A' for Active; 'I' for Inactive)
REMARK    1  A    between atoms: C_5  and  C_6 
REMARK    2  A    between atoms: C_10  and  C_11 
REMARK       I    between atoms: C_11  and  N_12 
REMARK    3  A    between atoms: N_12  and  N_13 
REMARK       I    between atoms: N_13  and  C_14 
REMARK       I    between atoms: C_14  and  N_15 
REMARK    4  A    between atoms: N_15  and  C_16 
REMARK    5  A    between atoms: C_16  and  C_17 
ROOT
HETATM    1  C   UNL     1      -1.098   5.202 -30.997  1.00  0.00     0.288 C 
HETATM    2  N   UNL     1      -2.358   4.659 -30.896  1.00  0.00    -0.261 N 
HETATM    3  O   UNL     1      -0.275   4.802 -31.819  1.00  0.00    -0.264 OA
HETATM    4  H   UNL     1      -3.048   4.942 -30.204  1.00  0.00     0.190 HD
ENDROOT
BRANCH   2   5
HETATM    5  N   UNL     1      -2.731   3.598 -31.735  1.00  0.00    -0.249 N 
HETATM    6  C   UNL     1      -4.070   3.273 -31.742  1.00  0.00     0.334 C 
HETATM    7  N   UNL     1      -4.336   2.161 -32.497  1.00  0.00    -0.341 N 
HETATM    8  O   UNL     1      -4.917   3.936 -31.152  1.00  0.00    -0.246 OA
HETATM    9  H   UNL     1      -3.625   1.877 -33.155  1.00  0.00     0.164 HD
HETATM   10  H   UNL     1      -2.038   2.863 -31.839  1.00  0.00     0.192 HD
BRANCH   7  11
HETATM   11  C   UNL     1      -5.702   1.745 -32.756  1.00  0.00     0.129 C 
BRANCH  11  12
HETATM   12  C   UNL     1      -6.014   0.349 -32.184  1.00  0.00     0.004 C 
HETATM   13  C   UNL     1      -7.302  -0.291 -32.741  1.00  0.00     0.010 C 
HETATM   14  C   UNL     1      -7.190  -0.970 -34.118  1.00  0.00    -0.018 C 
HETATM   15  C   UNL     1      -5.945  -1.859 -34.209  1.00  0.00     0.004 C 
HETATM   16  C   UNL     1      -7.271   0.012 -35.286  1.00  0.00     0.010 C 
HETATM   17  C   UNL     1      -4.671  -1.151 -33.756  1.00  0.00     0.001 C 
HETATM   18  C   UNL     1      -4.818  -0.601 -32.341  1.00  0.00     0.006 C 
ENDBRANCH  11  12
ENDBRANCH   7  11
ENDBRANCH   2   5
BRANCH   1  19
HETATM   19  C   UNL     1      -0.816   6.262 -30.068  1.00  0.00     0.121 A 
HETATM   20  N   UNL     1      -1.518   7.433 -30.070  1.00  0.00    -0.272 N 
HETATM   21  N   UNL     1      -1.110   8.321 -29.153  1.00  0.00    -0.174 NA
HETATM   22  H   UNL     1      -2.288   7.682 -30.684  1.00  0.00     0.189 HD
HETATM   23  C   UNL     1      -0.099   7.712 -28.511  1.00  0.00     0.089 A 
HETATM   24  C   UNL     1       0.111   6.413 -29.056  1.00  0.00     0.071 A 
BRANCH  23  25
HETATM   25  C   UNL     1       0.647   8.371 -27.432  1.00  0.00    -0.006 A 
HETATM   26  C   UNL     1       0.478   9.735 -27.160  1.00  0.00     0.014 A 
HETATM   27  C   UNL     1       1.172  10.349 -26.110  1.00  0.00     0.007 A 
HETATM   28  C   UNL     1       2.057   9.612 -25.318  1.00  0.00    -0.062 A 
HETATM   29  C   UNL     1       2.770  10.253 -24.165  1.00  0.00     0.048 C 
HETATM   30  C   UNL     1       2.229   8.250 -25.583  1.00  0.00     0.007 A 
HETATM   31  C   UNL     1       1.535   7.639 -26.633  1.00  0.00     0.014 A 
ENDBRANCH  23  25
ENDBRANCH   1  19
TORSDOF 5
ENDMDL
MODEL 5
REMARK VINA RESULT:      -8.6      1.720      2.633
REMARK  5 active torsions:
REMARK  status: ('A' for Active; 'I' for Inactive)
REMARK    1  A    between atoms: C_5  and  C_6 
REMARK    2  A    between atoms: C_10  and  C_11 
REMARK       I    between atoms: C_11  and  N_12 
REMARK    3  A    between atoms: N_12  and  N_13 
REMARK       I    between atoms: N_13  and  C_14 
REMARK       I    between atoms: C_14  and  N_15 
REMARK    4  A    between atoms: N_15  and  C_16 
REMARK    5  A    between atoms: C_16  and  C_17 
ROOT
HETATM    1  C   UNL     1      -2.447   4.438 -31.327  1.00  0.00     0.288 C 
HETATM    2  N   UNL     1      -2.890   5.458 -30.516  1.00  0.00    -0.261 N 
HETATM    3  O   UNL     1      -1.264   4.315 -31.641  1.00  0.00    -0.264 OA
HETATM    4  H   UNL     1      -3.865   5.608 -30.269  1.00  0.00     0.190 HD
ENDROOT
BRANCH   2   5
HETATM    5  N   UNL     1      -1.981   6.412 -30.036  1.00  0.00    -0.249 N 
HETATM    6  C   UNL     1      -2.393   7.148 -28.946  1.00  0.00     0.334 C 
HETATM    7  N   UNL     1      -1.501   8.130 -28.607  1.00  0.00    -0.341 N 
HETATM    8  O   UNL     1      -3.436   6.913 -28.344  1.00  0.00    -0.246 OA
HETATM    9  H   UNL     1      -0.567   8.044 -28.980  1.00  0.00     0.164 HD
HETATM   10  H   UNL     1      -1.398   6.852 -30.743  1.00  0.00     0.192 HD
BRANCH   7  11
HETATM   11  C   UNL     1      -1.676   8.913 -27.398  1.00  0.00     0.129 C 
BRANCH  11  12
HETATM   12  C   UNL     1      -1.156   8.186 -26.143  1.00  0.00     0.004 C 
HETATM   13  C   UNL     1       0.102   7.327 -26.383  1.00  0.00     0.010 C 
HETATM   14  C   UNL     1       1.447   8.074 -26.408  1.00  0.00    -0.018 C 
HETATM   15  C   UNL     1       1.564   9.066 -25.245  1.00  0.00     0.004 C 
HETATM   16  C   UNL     1       1.746   8.739 -27.752  1.00  0.00     0.010 C 
HETATM   17  C   UNL     1       0.347   9.976 -25.112  1.00  0.00     0.001 C 
HETATM   18  C   UNL     1      -0.938   9.164 -24.980  1.00  0.00     0.006 C 
ENDBRANCH  11  12
ENDBRANCH   7  11
ENDBRANCH   2   5
BRANCH   1  19
HETATM   19  C   UNL     1      -3.470   3.538 -31.785  1.00  0.00     0.121 A 
HETATM   20  N   UNL     1      -4.798   3.833 -31.673  1.00  0.00    -0.272 N 
HETATM   21  N   UNL     1      -5.616   2.874 -32.128  1.00  0.00    -0.174 NA
HETATM   22  H   UNL     1      -5.205   4.680 -31.286  1.00  0.00     0.189 HD
HETATM   23  C   UNL     1      -4.797   1.904 -32.567  1.00  0.00     0.089 A 
HETATM   24  C   UNL     1      -3.439   2.288 -32.372  1.00  0.00     0.071 A 
BRANCH  23  25
HETATM   25  C   UNL     1      -5.309   0.648 -33.129  1.00  0.00    -0.006 A 
HETATM   26  C   UNL     1      -6.335   0.644 -34.083  1.00  0.00     0.014 A 
HETATM   27  C   UNL     1      -6.797  -0.557 -34.635  1.00  0.00     0.007 A 
HETATM   28  C   UNL     1      -6.251  -1.779 -34.234  1.00  0.00    -0.062 A 
HETATM   29  C   UNL     1      -6.711  -3.065 -34.852  1.00  0.00     0.048 C 
HETATM   30  C   UNL     1      -5.225  -1.782 -33.282  1.00  0.00     0.007 A 
HETATM   31  C   UNL     1      -4.765  -0.581 -32.732  1.00  0.00     0.014 A 
ENDBRANCH  23  25
ENDBRANCH   1  19
TORSDOF 5
ENDMDL
MODEL 6
REMARK VINA RESULT:      -8.4      2.389     10.728
REMARK  5 active torsions:
REMARK  status: ('A' for Active; 'I' for Inactive)
REMARK    1  A    between atoms: C_5  and  C_6 
REMARK    2  A    between atoms: C_10  and  C_11 
REMARK       I    between atoms: C_11  and  N_12 
REMARK    3  A    between atoms: N_12  and  N_13 
REMARK       I    between atoms: N_13  and  C_14 
REMARK       I    between atoms: C_14  and  N_15 
REMARK    4  A    between atoms: N_15  and  C_16 
REMARK    5  A    between atoms: C_16  and  C_17 
ROOT
HETATM    1  C   UNL     1      -2.542   4.934 -32.521  1.00  0.00     0.288 C 
HETATM    2  N   UNL     1      -3.815   5.365 -32.222  1.00  0.00    -0.261 N 
HETATM    3  O   UNL     1      -2.302   4.222 -33.494  1.00  0.00    -0.264 OA
HETATM    4  H   UNL     1      -4.051   5.924 -31.405  1.00  0.00     0.190 HD
ENDROOT
BRANCH   2   5
HETATM    5  N   UNL     1      -4.892   4.973 -33.031  1.00  0.00    -0.249 N 
HETATM    6  C   UNL     1      -5.656   3.929 -32.557  1.00  0.00     0.334 C 
HETATM    7  N   UNL     1      -6.616   3.533 -33.450  1.00  0.00    -0.341 N 
HETATM    8  O   UNL     1      -5.495   3.441 -31.442  1.00  0.00    -0.246 OA
HETATM    9  H   UNL     1      -6.841   4.179 -34.192  1.00  0.00     0.164 HD
HETATM   10  H   UNL     1      -4.741   5.067 -34.031  1.00  0.00     0.192 HD
BRANCH   7  11
HETATM   11  C   UNL     1      -7.621   2.553 -33.081  1.00  0.00     0.129 C 
BRANCH  11  12
HETATM   12  C   UNL     1      -8.038   1.658 -34.263  1.00  0.00     0.004 C 
HETATM   13  C   UNL     1      -6.857   1.005 -35.010  1.00  0.00     0.010 C 
HETATM   14  C   UNL     1      -6.257  -0.260 -34.371  1.00  0.00    -0.018 C 
HETATM   15  C   UNL     1      -7.349  -1.238 -33.923  1.00  0.00     0.004 C 
HETATM   16  C   UNL     1      -5.269   0.042 -33.244  1.00  0.00     0.010 C 
HETATM   17  C   UNL     1      -8.440  -0.574 -33.089  1.00  0.00     0.001 C 
HETATM   18  C   UNL     1      -9.065   0.603 -33.832  1.00  0.00     0.006 C 
ENDBRANCH  11  12
ENDBRANCH   7  11
ENDBRANCH   2   5
BRANCH   1  19
HETATM   19  C   UNL     1      -1.522   5.372 -31.608  1.00  0.00     0.121 A 
HETATM   20  N   UNL     1      -0.204   5.066 -31.793  1.00  0.00    -0.272 N 
HETATM   21  N   UNL     1       0.610   5.534 -30.836  1.00  0.00    -0.174 NA
HETATM   22  H   UNL     1       0.197   4.534 -32.559  1.00  0.00     0.189 HD
HETATM   23  C   UNL     1      -0.201   6.182 -29.983  1.00  0.00     0.089 A 
HETATM   24  C   UNL     1      -1.548   6.106 -30.438  1.00  0.00     0.071 A 
BRANCH  23  25
HETATM   25  C   UNL     1       0.307   6.826 -28.765  1.00  0.00    -0.006 A 
HETATM   26  C   UNL     1       1.092   7.985 -28.830  1.00  0.00     0.014 A 
HETATM   27  C   UNL     1       1.548   8.609 -27.662  1.00  0.00     0.007 A 
HETATM   28  C   UNL     1       1.237   8.080 -26.407  1.00  0.00    -0.062 A 
HETATM   29  C   UNL     1       1.685   8.767 -25.152  1.00  0.00     0.048 C 
HETATM   30  C   UNL     1       0.452   6.924 -26.335  1.00  0.00     0.007 A 
HETATM   31  C   UNL     1      -0.002   6.302 -27.503  1.00  0.00     0.014 A 
ENDBRANCH  23  25
ENDBRANCH   1  19
TORSDOF 5
ENDMDL
MODEL 7
REMARK VINA RESULT:      -8.2      2.566     11.315
REMARK  5 active torsions:
REMARK  status: ('A' for Active; 'I' for Inactive)
REMARK    1  A    between atoms: C_5  and  C_6 
REMARK    2  A    between atoms: C_10  and  C_11 
REMARK       I    between atoms: C_11  and  N_12 
REMARK    3  A    between atoms: N_12  and  N_13 
REMARK       I    between atoms: N_13  and  C_14 
REMARK       I    between atoms: C_14  and  N_15 
REMARK    4  A    between atoms: N_15  and  C_16 
REMARK    5  A    between atoms: C_16  and  C_17 
ROOT
HETATM    1  C   UNL     1      -1.964   5.750 -31.236  1.00  0.00     0.288 C 
HETATM    2  N   UNL     1      -2.598   4.540 -31.070  1.00  0.00    -0.261 N 
HETATM    3  O   UNL     1      -2.140   6.452 -32.231  1.00  0.00    -0.264 OA
HETATM    4  H   UNL     1      -2.445   3.920 -30.278  1.00  0.00     0.190 HD
ENDROOT
BRANCH   2   5
HETATM    5  N   UNL     1      -3.463   4.063 -32.066  1.00  0.00    -0.249 N 
HETATM    6  C   UNL     1      -4.339   3.070 -31.683  1.00  0.00     0.334 C 
HETATM    7  N   UNL     1      -5.070   2.581 -32.733  1.00  0.00    -0.341 N 
HETATM    8  O   UNL     1      -4.454   2.700 -30.519  1.00  0.00    -0.246 OA
HETATM    9  H   UNL     1      -5.100   3.147 -33.569  1.00  0.00     0.164 HD
HETATM   10  H   UNL     1      -3.079   4.054 -33.007  1.00  0.00     0.192 HD
BRANCH   7  11
HETATM   11  C   UNL     1      -6.153   1.641 -32.515  1.00  0.00     0.129 C 
BRANCH  11  12
HETATM   12  C   UNL     1      -7.536   2.320 -32.521  1.00  0.00     0.004 C 
HETATM   13  C   UNL     1      -8.198   2.396 -33.912  1.00  0.00     0.010 C 
HETATM   14  C   UNL     1      -8.912   1.124 -34.402  1.00  0.00    -0.018 C 
HETATM   15  C   UNL     1      -9.795   0.515 -33.306  1.00  0.00     0.004 C 
HETATM   16  C   UNL     1      -7.961   0.089 -35.003  1.00  0.00     0.010 C 
HETATM   17  C   UNL     1      -9.068   0.350 -31.976  1.00  0.00     0.001 C 
HETATM   18  C   UNL     1      -8.482   1.675 -31.498  1.00  0.00     0.006 C 
ENDBRANCH  11  12
ENDBRANCH   7  11
ENDBRANCH   2   5
BRANCH   1  19
HETATM   19  C   UNL     1      -1.078   6.124 -30.168  1.00  0.00     0.121 A 
HETATM   20  N   UNL     1      -0.242   5.224 -29.571  1.00  0.00    -0.272 N 
HETATM   21  N   UNL     1       0.499   5.735 -28.578  1.00  0.00    -0.174 NA
HETATM   22  H   UNL     1      -0.141   4.240 -29.801  1.00  0.00     0.189 HD
HETATM   23  C   UNL     1       0.145   7.030 -28.517  1.00  0.00     0.089 A 
HETATM   24  C   UNL     1      -0.840   7.312 -29.506  1.00  0.00     0.071 A 
BRANCH  23  25
HETATM   25  C   UNL     1       0.721   7.947 -27.526  1.00  0.00    -0.006 A 
HETATM   26  C   UNL     1       0.386   9.308 -27.516  1.00  0.00     0.014 A 
HETATM   27  C   UNL     1       0.918  10.170 -26.548  1.00  0.00     0.007 A 
HETATM   28  C   UNL     1       1.805   9.690 -25.580  1.00  0.00    -0.062 A 
HETATM   29  C   UNL     1       2.345  10.599 -24.517  1.00  0.00     0.048 C 
HETATM   30  C   UNL     1       2.142   8.333 -25.585  1.00  0.00     0.007 A 
HETATM   31  C   UNL     1       1.610   7.473 -26.552  1.00  0.00     0.014 A 
ENDBRANCH  23  25
ENDBRANCH   1  19
TORSDOF 5
ENDMDL
MODEL 8
REMARK VINA RESULT:      -8.0      2.302      2.721
REMARK  5 active torsions:
REMARK  status: ('A' for Active; 'I' for Inactive)
REMARK    1  A    between atoms: C_5  and  C_6 
REMARK    2  A    between atoms: C_10  and  C_11 
REMARK       I    between atoms: C_11  and  N_12 
REMARK    3  A    between atoms: N_12  and  N_13 
REMARK       I    between atoms: N_13  and  C_14 
REMARK       I    between atoms: C_14  and  N_15 
REMARK    4  A    between atoms: N_15  and  C_16 
REMARK    5  A    between atoms: C_16  and  C_17 
ROOT
HETATM    1  C   UNL     1      -6.054   4.493 -29.342  1.00  0.00     0.288 C 
HETATM    2  N   UNL     1      -4.815   5.075 -29.487  1.00  0.00    -0.261 N 
HETATM    3  O   UNL     1      -6.917   4.963 -28.603  1.00  0.00    -0.264 OA
HETATM    4  H   UNL     1      -4.068   4.691 -30.060  1.00  0.00     0.190 HD
ENDROOT
BRANCH   2   5
HETATM    5  N   UNL     1      -4.499   6.233 -28.761  1.00  0.00    -0.249 N 
HETATM    6  C   UNL     1      -3.264   6.790 -29.015  1.00  0.00     0.334 C 
HETATM    7  N   UNL     1      -2.985   7.848 -28.191  1.00  0.00    -0.341 N 
HETATM    8  O   UNL     1      -2.524   6.384 -29.906  1.00  0.00    -0.246 OA
HETATM    9  H   UNL     1      -3.766   8.266 -27.708  1.00  0.00     0.164 HD
HETATM   10  H   UNL     1      -4.881   6.274 -27.820  1.00  0.00     0.192 HD
BRANCH   7  11
HETATM   11  C   UNL     1      -1.804   8.665 -28.400  1.00  0.00     0.129 C 
BRANCH  11  12
HETATM   12  C   UNL     1      -1.109   9.047 -27.079  1.00  0.00     0.004 C 
HETATM   13  C   UNL     1      -0.836   7.856 -26.138  1.00  0.00     0.010 C 
HETATM   14  C   UNL     1       0.407   7.005 -26.452  1.00  0.00    -0.018 C 
HETATM   15  C   UNL     1       1.631   7.881 -26.744  1.00  0.00     0.004 C 
HETATM   16  C   UNL     1       0.173   5.974 -27.555  1.00  0.00     0.010 C 
HETATM   17  C   UNL     1       1.350   8.978 -27.766  1.00  0.00     0.001 C 
HETATM   18  C   UNL     1       0.175   9.849 -27.334  1.00  0.00     0.006 C 
ENDBRANCH  11  12
ENDBRANCH   7  11
ENDBRANCH   2   5
BRANCH   1  19
HETATM   19  C   UNL     1      -6.256   3.295 -30.109  1.00  0.00     0.121 A 
HETATM   20  N   UNL     1      -7.482   2.702 -30.219  1.00  0.00    -0.272 N 
HETATM   21  N   UNL     1      -7.488   1.581 -30.953  1.00  0.00    -0.174 NA
HETATM   22  H   UNL     1      -8.353   3.022 -29.805  1.00  0.00     0.189 HD
HETATM   23  C   UNL     1      -6.215   1.426 -31.352  1.00  0.00     0.089 A 
HETATM   24  C   UNL     1      -5.412   2.487 -30.846  1.00  0.00     0.071 A 
BRANCH  23  25
HETATM   25  C   UNL     1      -5.791   0.283 -32.171  1.00  0.00    -0.006 A 
HETATM   26  C   UNL     1      -6.563  -0.162 -33.252  1.00  0.00     0.014 A 
HETATM   27  C   UNL     1      -6.136  -1.235 -34.045  1.00  0.00     0.007 A 
HETATM   28  C   UNL     1      -4.934  -1.891 -33.764  1.00  0.00    -0.062 A 
HETATM   29  C   UNL     1      -4.451  -3.012 -34.635  1.00  0.00     0.048 C 
HETATM   30  C   UNL     1      -4.158  -1.451 -32.687  1.00  0.00     0.007 A 
HETATM   31  C   UNL     1      -4.587  -0.379 -31.896  1.00  0.00     0.014 A 
ENDBRANCH  23  25
ENDBRANCH   1  19
TORSDOF 5
ENDMDL
MODEL 9
REMARK VINA RESULT:      -7.9      4.765     11.422
REMARK  5 active torsions:
REMARK  status: ('A' for Active; 'I' for Inactive)
REMARK    1  A    between atoms: C_5  and  C_6 
REMARK    2  A    between atoms: C_10  and  C_11 
REMARK       I    between atoms: C_11  and  N_12 
REMARK    3  A    between atoms: N_12  and  N_13 
REMARK       I    between atoms: N_13  and  C_14 
REMARK       I    between atoms: C_14  and  N_15 
REMARK    4  A    between atoms: N_15  and  C_16 
REMARK    5  A    between atoms: C_16  and  C_17 
ROOT
HETATM    1  C   UNL     1      -4.923   4.915 -33.755  1.00  0.00     0.288 C 
HETATM    2  N   UNL     1      -6.136   4.733 -33.129  1.00  0.00    -0.261 N 
HETATM    3  O   UNL     1      -4.819   4.973 -34.979  1.00  0.00    -0.264 OA
HETATM    4  H   UNL     1      -6.251   4.644 -32.123  1.00  0.00     0.190 HD
ENDROOT
BRANCH   2   5
HETATM    5  N   UNL     1      -7.301   4.586 -33.896  1.00  0.00    -0.249 N 
HETATM    6  C   UNL     1      -8.195   3.631 -33.463  1.00  0.00     0.334 C 
HETATM    7  N   UNL     1      -9.250   3.471 -34.322  1.00  0.00    -0.341 N 
HETATM    8  O   UNL     1      -8.056   3.023 -32.406  1.00  0.00    -0.246 OA
HETATM    9  H   UNL     1      -9.408   4.210 -34.991  1.00  0.00     0.164 HD
HETATM   10  H   UNL     1      -7.189   4.749 -34.893  1.00  0.00     0.192 HD
BRANCH   7  11
HETATM   11  C   UNL     1     -10.376   2.625 -33.971  1.00  0.00     0.129 C 
BRANCH  11  12
HETATM   12  C   UNL     1     -11.650   2.979 -34.761  1.00  0.00     0.004 C 
HETATM   13  C   UNL     1     -12.374   1.762 -35.374  1.00  0.00     0.010 C 
HETATM   14  C   UNL     1     -13.282   0.957 -34.429  1.00  0.00    -0.018 C 
HETATM   15  C   UNL     1     -14.177   1.875 -33.588  1.00  0.00     0.004 C 
HETATM   16  C   UNL     1     -12.518  -0.041 -33.558  1.00  0.00     0.010 C 
HETATM   17  C   UNL     1     -13.404   2.999 -32.905  1.00  0.00     0.001 C 
HETATM   18  C   UNL     1     -12.616   3.823 -33.918  1.00  0.00     0.006 C 
ENDBRANCH  11  12
ENDBRANCH   7  11
ENDBRANCH   2   5
BRANCH   1  19
HETATM   19  C   UNL     1      -3.794   5.023 -32.873  1.00  0.00     0.121 A 
HETATM   20  N   UNL     1      -2.960   3.969 -32.631  1.00  0.00    -0.272 N 
HETATM   21  N   UNL     1      -1.972   4.235 -31.766  1.00  0.00    -0.174 NA
HETATM   22  H   UNL     1      -3.024   3.036 -33.029  1.00  0.00     0.189 HD
HETATM   23  C   UNL     1      -2.153   5.522 -31.424  1.00  0.00     0.089 A 
HETATM   24  C   UNL     1      -3.286   6.052 -32.104  1.00  0.00     0.071 A 
BRANCH  23  25
HETATM   25  C   UNL     1      -1.278   6.201 -30.460  1.00  0.00    -0.006 A 
HETATM   26  C   UNL     1      -0.173   5.548 -29.897  1.00  0.00     0.014 A 
HETATM   27  C   UNL     1       0.673   6.214 -29.000  1.00  0.00     0.007 A 
HETATM   28  C   UNL     1       0.423   7.541 -28.641  1.00  0.00    -0.062 A 
HETATM   29  C   UNL     1       1.349   8.272 -27.715  1.00  0.00     0.048 C 
HETATM   30  C   UNL     1      -0.677   8.198 -29.201  1.00  0.00     0.007 A 
HETATM   31  C   UNL     1      -1.521   7.532 -30.096  1.00  0.00     0.014 A 
ENDBRANCH  23  25
ENDBRANCH   1  19
TORSDOF 5
ENDMDL
MODEL 10
REMARK VINA RESULT:      -7.8      4.543      5.917
REMARK  5 active torsions:
REMARK  status: ('A' for Active; 'I' for Inactive)
REMARK    1  A    between atoms: C_5  and  C_6 
REMARK    2  A    between atoms: C_10  and  C_11 
REMARK       I    between atoms: C_11  and  N_12 
REMARK    3  A    between atoms: N_12  and  N_13 
REMARK       I    between atoms: N_13  and  C_14 
REMARK       I    between atoms: C_14  and  N_15 
REMARK    4  A    between atoms: N_15  and  C_16 
REMARK    5  A    between atoms: C_16  and  C_17 
ROOT
HETATM    1  C   UNL     1      -6.483   2.261 -31.785  1.00  0.00     0.288 C 
HETATM    2  N   UNL     1      -6.095   3.581 -31.786  1.00  0.00    -0.261 N 
HETATM    3  O   UNL     1      -5.883   1.401 -31.141  1.00  0.00    -0.264 OA
HETATM    4  H   UNL     1      -6.546   4.308 -32.335  1.00  0.00     0.190 HD
ENDROOT
BRANCH   2   5
HETATM    5  N   UNL     1      -4.967   3.978 -31.050  1.00  0.00    -0.249 N 
HETATM    6  C   UNL     1      -3.791   4.093 -31.759  1.00  0.00     0.334 C 
HETATM    7  N   UNL     1      -2.719   4.374 -30.954  1.00  0.00    -0.341 N 
HETATM    8  O   UNL     1      -3.738   3.980 -32.980  1.00  0.00    -0.246 OA
HETATM    9  H   UNL     1      -2.923   4.725 -30.030  1.00  0.00     0.164 HD
HETATM   10  H   UNL     1      -4.940   3.653 -30.088  1.00  0.00     0.192 HD
BRANCH   7  11
HETATM   11  C   UNL     1      -1.421   4.686 -31.524  1.00  0.00     0.129 C 
BRANCH  11  12
HETATM   12  C   UNL     1      -0.797   5.956 -30.915  1.00  0.00     0.004 C 
HETATM   13  C   UNL     1      -0.199   6.928 -31.952  1.00  0.00     0.010 C 
HETATM   14  C   UNL     1      -1.191   7.858 -32.672  1.00  0.00    -0.018 C 
HETATM   15  C   UNL     1      -2.176   8.501 -31.690  1.00  0.00     0.004 C 
HETATM   16  C   UNL     1      -1.913   7.187 -33.841  1.00  0.00     0.010 C 
HETATM   17  C   UNL     1      -2.833   7.490 -30.756  1.00  0.00     0.001 C 
HETATM   18  C   UNL     1      -1.789   6.680 -29.994  1.00  0.00     0.006 C 
ENDBRANCH  11  12
ENDBRANCH   7  11
ENDBRANCH   2   5
BRANCH   1  19
HETATM   19  C   UNL     1      -7.631   1.964 -32.597  1.00  0.00     0.121 A 
HETATM   20  N   UNL     1      -7.546   1.845 -33.955  1.00  0.00    -0.272 N 
HETATM   21  N   UNL     1      -8.715   1.589 -34.559  1.00  0.00    -0.174 NA
HETATM   22  H   UNL     1      -6.710   1.935 -34.525  1.00  0.00     0.189 HD
HETATM   23  C   UNL     1      -9.612   1.529 -33.560  1.00  0.00     0.089 A 
HETATM   24  C   UNL     1      -8.965   1.755 -32.311  1.00  0.00     0.071 A 
BRANCH  23  25
HETATM   25  C   UNL     1     -11.038   1.288 -33.809  1.00  0.00    -0.006 A 
HETATM   26  C   UNL     1     -11.663   0.113 -33.370  1.00  0.00     0.014 A 
HETATM   27  C   UNL     1     -13.031  -0.096 -33.587  1.00  0.00     0.007 A 
HETATM   28  C   UNL     1     -13.798   0.861 -34.257  1.00  0.00    -0.062 A 
HETATM   29  C   UNL     1     -15.271   0.663 -34.454  1.00  0.00     0.048 C 
HETATM   30  C   UNL     1     -13.180   2.037 -34.696  1.00  0.00     0.007 A 
HETATM   31  C   UNL     1     -11.814   2.243 -34.479  1.00  0.00     0.014 A 
ENDBRANCH  23  25
ENDBRANCH   1  19
TORSDOF 5
ENDMDL
