MODEL 1
REMARK VINA RESULT:      -7.7      0.000      0.000
REMARK  6 active torsions:
REMARK  status: ('A' for Active; 'I' for Inactive)
REMARK    1  A    between atoms: C_3  and  N_4 
REMARK    2  A    between atoms: N_4  and  C_5 
REMARK    3  A    between atoms: C_5  and  C_6 
REMARK    4  A    between atoms: N_8  and  C_10 
REMARK    5  A    between atoms: C_10  and  C_11 
REMARK    6  A    between atoms: C_12  and  O_13 
ROOT
HETATM    1  C   UNL     1      -4.497   0.534 -31.859  1.00  0.00     0.031 C 
HETATM    2  C   UNL     1      -3.450   1.643 -31.887  1.00  0.00     0.241 C 
HETATM    3  N   UNL     1      -4.134   2.801 -31.208  1.00  0.00    -0.067 N 
HETATM    4  H   UNL     1      -3.455   3.262 -30.571  1.00  0.00     0.280 HD
HETATM    5  C   UNL     1      -5.267   2.252 -30.370  1.00  0.00     0.235 C 
HETATM    6  C   UNL     1      -5.122   0.740 -30.482  1.00  0.00     0.035 C 
ENDROOT
BRANCH   3   7
HETATM    7  C   UNL     1      -4.534   3.923 -32.137  1.00  0.00     0.276 C 
BRANCH   7   8
HETATM    8  C   UNL     1      -3.364   4.647 -32.740  1.00  0.00     0.002 A 
HETATM    9  C   UNL     1      -2.389   5.240 -31.927  1.00  0.00     0.091 A 
HETATM   10  C   UNL     1      -1.271   5.868 -32.484  1.00  0.00     0.044 A 
HETATM   11 BR   UNL     1       0.042   6.661 -31.376  1.00  0.00    -0.048 Br
HETATM   12  C   UNL     1      -1.119   5.916 -33.867  1.00  0.00     0.022 A 
HETATM   13  C   UNL     1      -2.083   5.333 -34.690  1.00  0.00     0.002 A 
HETATM   14  C   UNL     1      -3.196   4.697 -34.132  1.00  0.00     0.012 A 
BRANCH   9  15
HETATM   15  O   UNL     1      -2.583   5.195 -30.567  1.00  0.00    -0.359 OA
HETATM   16  H   UNL     1      -3.541   5.013 -30.433  1.00  0.00     0.218 HD
ENDBRANCH   9  15
ENDBRANCH   7   8
ENDBRANCH   3   7
BRANCH   1  17
HETATM   17  C   UNL     1      -3.915  -0.867 -32.060  1.00  0.00     0.127 C 
BRANCH  17  18
HETATM   18  N   UNL     1      -3.998  -1.255 -33.462  1.00  0.00    -0.376 N 
HETATM   19  H   UNL     1      -3.086  -1.201 -33.931  1.00  0.00     0.161 HD
BRANCH  18  20
HETATM   20  C   UNL     1      -4.708  -2.344 -33.960  1.00  0.00     0.100 A 
HETATM   21  C   UNL     1      -6.052  -2.169 -34.323  1.00  0.00     0.048 A 
HETATM   22  C   UNL     1      -6.812  -3.249 -34.766  1.00  0.00     0.005 A 
HETATM   23  C   UNL     1      -6.229  -4.505 -34.840  1.00  0.00     0.017 A 
HETATM   24  C   UNL     1      -4.900  -4.648 -34.470  1.00  0.00     0.089 A 
HETATM   25  N   UNL     1      -4.197  -3.584 -34.042  1.00  0.00    -0.353 N 
HETATM   26  H   UNL     1      -3.225  -3.733 -33.797  1.00  0.00     0.166 HD
ENDBRANCH  18  20
ENDBRANCH  17  18
ENDBRANCH   1  17
TORSDOF 6
ENDMDL
MODEL 2
REMARK VINA RESULT:      -7.6      1.314      1.686
REMARK  6 active torsions:
REMARK  status: ('A' for Active; 'I' for Inactive)
REMARK    1  A    between atoms: C_3  and  N_4 
REMARK    2  A    between atoms: N_4  and  C_5 
REMARK    3  A    between atoms: C_5  and  C_6 
REMARK    4  A    between atoms: N_8  and  C_10 
REMARK    5  A    between atoms: C_10  and  C_11 
REMARK    6  A    between atoms: C_12  and  O_13 
ROOT
HETATM    1  C   UNL     1      -5.182   1.548 -32.750  1.00  0.00     0.031 C 
HETATM    2  C   UNL     1      -3.745   1.634 -32.246  1.00  0.00     0.241 C 
HETATM    3  N   UNL     1      -3.497   3.114 -32.116  1.00  0.00    -0.067 N 
HETATM    4  H   UNL     1      -2.980   3.289 -31.233  1.00  0.00     0.280 HD
HETATM    5  C   UNL     1      -4.837   3.809 -32.021  1.00  0.00     0.235 C 
HETATM    6  C   UNL     1      -5.849   2.672 -31.962  1.00  0.00     0.035 C 
ENDROOT
BRANCH   3   7
HETATM    7  C   UNL     1      -2.572   3.688 -33.163  1.00  0.00     0.276 C 
BRANCH   7   8
HETATM    8  C   UNL     1      -2.093   5.076 -32.844  1.00  0.00     0.002 A 
HETATM    9  C   UNL     1      -1.354   5.331 -31.681  1.00  0.00     0.091 A 
HETATM   10  C   UNL     1      -0.861   6.609 -31.407  1.00  0.00     0.044 A 
HETATM   11 BR   UNL     1       0.141   6.942 -29.837  1.00  0.00    -0.048 Br
HETATM   12  C   UNL     1      -1.108   7.654 -32.294  1.00  0.00     0.022 A 
HETATM   13  C   UNL     1      -1.846   7.416 -33.455  1.00  0.00     0.002 A 
HETATM   14  C   UNL     1      -2.331   6.135 -33.733  1.00  0.00     0.012 A 
BRANCH   9  15
HETATM   15  O   UNL     1      -1.148   4.282 -30.816  1.00  0.00    -0.359 OA
HETATM   16  H   UNL     1      -0.773   4.675 -29.995  1.00  0.00     0.218 HD
ENDBRANCH   9  15
ENDBRANCH   7   8
ENDBRANCH   3   7
BRANCH   1  17
HETATM   17  C   UNL     1      -5.832   0.181 -32.527  1.00  0.00     0.127 C 
BRANCH  17  18
HETATM   18  N   UNL     1      -6.132  -0.453 -33.805  1.00  0.00    -0.376 N 
HETATM   19  H   UNL     1      -5.902   0.156 -34.601  1.00  0.00     0.161 HD
BRANCH  18  20
HETATM   20  C   UNL     1      -5.848  -1.773 -34.140  1.00  0.00     0.100 A 
HETATM   21  C   UNL     1      -6.897  -2.608 -34.554  1.00  0.00     0.048 A 
HETATM   22  C   UNL     1      -6.663  -3.952 -34.838  1.00  0.00     0.005 A 
HETATM   23  C   UNL     1      -5.380  -4.461 -34.701  1.00  0.00     0.017 A 
HETATM   24  C   UNL     1      -4.365  -3.613 -34.286  1.00  0.00     0.089 A 
HETATM   25  N   UNL     1      -4.627  -2.322 -34.016  1.00  0.00    -0.353 N 
HETATM   26  H   UNL     1      -3.851  -1.736 -33.730  1.00  0.00     0.166 HD
ENDBRANCH  18  20
ENDBRANCH  17  18
ENDBRANCH   1  17
TORSDOF 6
ENDMDL
MODEL 3
REMARK VINA RESULT:      -7.5      6.379      7.957
REMARK  6 active torsions:
REMARK  status: ('A' for Active; 'I' for Inactive)
REMARK    1  A    between atoms: C_3  and  N_4 
REMARK    2  A    between atoms: N_4  and  C_5 
REMARK    3  A    between atoms: C_5  and  C_6 
REMARK    4  A    between atoms: N_8  and  C_10 
REMARK    5  A    between atoms: C_10  and  C_11 
REMARK    6  A    between atoms: C_12  and  O_13 
ROOT
HETATM    1  C   UNL     1      -8.227   0.185 -34.525  1.00  0.00     0.031 C 
HETATM    2  C   UNL     1      -8.716   1.629 -34.497  1.00  0.00     0.241 C 
HETATM    3  N   UNL     1     -10.005   1.558 -33.720  1.00  0.00    -0.067 N 
HETATM    4  H   UNL     1     -10.045   2.365 -33.067  1.00  0.00     0.280 HD
HETATM    5  C   UNL     1      -9.989   0.288 -32.898  1.00  0.00     0.235 C 
HETATM    6  C   UNL     1      -8.598  -0.290 -33.123  1.00  0.00     0.035 C 
ENDROOT
BRANCH   3   7
HETATM    7  C   UNL     1     -11.250   1.742 -34.556  1.00  0.00     0.276 C 
BRANCH   7   8
HETATM    8  C   UNL     1     -12.495   1.940 -33.739  1.00  0.00     0.002 A 
HETATM    9  C   UNL     1     -12.626   3.041 -32.882  1.00  0.00     0.091 A 
HETATM   10  C   UNL     1     -13.804   3.257 -32.162  1.00  0.00     0.044 A 
HETATM   11 BR   UNL     1     -13.972   4.750 -31.012  1.00  0.00    -0.048 Br
HETATM   12  C   UNL     1     -14.867   2.366 -32.285  1.00  0.00     0.022 A 
HETATM   13  C   UNL     1     -14.750   1.263 -33.132  1.00  0.00     0.002 A 
HETATM   14  C   UNL     1     -13.576   1.053 -33.860  1.00  0.00     0.012 A 
BRANCH   9  15
HETATM   15  O   UNL     1     -11.549   3.887 -32.766  1.00  0.00    -0.359 OA
HETATM   16  H   UNL     1     -11.157   3.954 -33.666  1.00  0.00     0.218 HD
ENDBRANCH   9  15
ENDBRANCH   7   8
ENDBRANCH   3   7
BRANCH   1  17
HETATM   17  C   UNL     1      -6.737   0.045 -34.840  1.00  0.00     0.127 C 
BRANCH  17  18
HETATM   18  N   UNL     1      -6.105  -0.881 -33.909  1.00  0.00    -0.376 N 
HETATM   19  H   UNL     1      -6.533  -0.840 -32.974  1.00  0.00     0.161 HD
BRANCH  18  20
HETATM   20  C   UNL     1      -5.746  -2.195 -34.192  1.00  0.00     0.100 A 
HETATM   21  C   UNL     1      -6.721  -3.071 -34.695  1.00  0.00     0.048 A 
HETATM   22  C   UNL     1      -6.415  -4.409 -34.933  1.00  0.00     0.005 A 
HETATM   23  C   UNL     1      -5.137  -4.873 -34.660  1.00  0.00     0.017 A 
HETATM   24  C   UNL     1      -4.197  -3.985 -34.160  1.00  0.00     0.089 A 
HETATM   25  N   UNL     1      -4.527  -2.700 -33.938  1.00  0.00    -0.353 N 
HETATM   26  H   UNL     1      -3.803  -2.084 -33.586  1.00  0.00     0.166 HD
ENDBRANCH  18  20
ENDBRANCH  17  18
ENDBRANCH   1  17
TORSDOF 6
ENDMDL
MODEL 4
REMARK VINA RESULT:      -7.2      3.783      7.934
REMARK  6 active torsions:
REMARK  status: ('A' for Active; 'I' for Inactive)
REMARK    1  A    between atoms: C_3  and  N_4 
REMARK    2  A    between atoms: N_4  and  C_5 
REMARK    3  A    between atoms: C_5  and  C_6 
REMARK    4  A    between atoms: N_8  and  C_10 
REMARK    5  A    between atoms: C_10  and  C_11 
REMARK    6  A    between atoms: C_12  and  O_13 
ROOT
HETATM    1  C   UNL     1      -5.452   2.390 -31.780  1.00  0.00     0.031 C 
HETATM    2  C   UNL     1      -5.755   1.454 -32.946  1.00  0.00     0.241 C 
HETATM    3  N   UNL     1      -5.393   0.091 -32.417  1.00  0.00    -0.067 N 
HETATM    4  H   UNL     1      -6.121  -0.587 -32.717  1.00  0.00     0.280 HD
HETATM    5  C   UNL     1      -5.404   0.155 -30.906  1.00  0.00     0.235 C 
HETATM    6  C   UNL     1      -5.917   1.554 -30.590  1.00  0.00     0.035 C 
ENDROOT
BRANCH   3   7
HETATM    7  C   UNL     1      -4.130  -0.494 -33.005  1.00  0.00     0.276 C 
BRANCH   7   8
HETATM    8  C   UNL     1      -4.214  -1.974 -33.251  1.00  0.00     0.002 A 
HETATM    9  C   UNL     1      -5.141  -2.500 -34.160  1.00  0.00     0.091 A 
HETATM   10  C   UNL     1      -5.186  -3.870 -34.431  1.00  0.00     0.044 A 
HETATM   11 BR   UNL     1      -6.438  -4.570 -35.665  1.00  0.00    -0.048 Br
HETATM   12  C   UNL     1      -4.303  -4.734 -33.789  1.00  0.00     0.022 A 
HETATM   13  C   UNL     1      -3.376  -4.225 -32.879  1.00  0.00     0.002 A 
HETATM   14  C   UNL     1      -3.326  -2.854 -32.615  1.00  0.00     0.012 A 
BRANCH   9  15
HETATM   15  O   UNL     1      -6.013  -1.622 -34.759  1.00  0.00    -0.359 OA
HETATM   16  H   UNL     1      -6.119  -1.932 -35.686  1.00  0.00     0.218 HD
ENDBRANCH   9  15
ENDBRANCH   7   8
ENDBRANCH   3   7
BRANCH   1  17
HETATM   17  C   UNL     1      -6.153   3.746 -31.881  1.00  0.00     0.127 C 
BRANCH  17  18
HETATM   18  N   UNL     1      -5.173   4.817 -32.002  1.00  0.00    -0.376 N 
HETATM   19  H   UNL     1      -4.778   5.082 -31.090  1.00  0.00     0.161 HD
BRANCH  18  20
HETATM   20  C   UNL     1      -4.181   4.901 -32.975  1.00  0.00     0.100 A 
HETATM   21  C   UNL     1      -2.837   4.801 -32.584  1.00  0.00     0.048 A 
HETATM   22  C   UNL     1      -1.816   4.943 -33.519  1.00  0.00     0.005 A 
HETATM   23  C   UNL     1      -2.138   5.190 -34.845  1.00  0.00     0.017 A 
HETATM   24  C   UNL     1      -3.474   5.288 -35.200  1.00  0.00     0.089 A 
HETATM   25  N   UNL     1      -4.436   5.151 -34.270  1.00  0.00    -0.353 N 
HETATM   26  H   UNL     1      -5.399   5.214 -34.579  1.00  0.00     0.166 HD
ENDBRANCH  18  20
ENDBRANCH  17  18
ENDBRANCH   1  17
TORSDOF 6
ENDMDL
MODEL 5
REMARK VINA RESULT:      -7.2      3.582      8.334
REMARK  6 active torsions:
REMARK  status: ('A' for Active; 'I' for Inactive)
REMARK    1  A    between atoms: C_3  and  N_4 
REMARK    2  A    between atoms: N_4  and  C_5 
REMARK    3  A    between atoms: C_5  and  C_6 
REMARK    4  A    between atoms: N_8  and  C_10 
REMARK    5  A    between atoms: C_10  and  C_11 
REMARK    6  A    between atoms: C_12  and  O_13 
ROOT
HETATM    1  C   UNL     1      -4.867   3.293 -31.693  1.00  0.00     0.031 C 
HETATM    2  C   UNL     1      -4.066   2.046 -32.055  1.00  0.00     0.241 C 
HETATM    3  N   UNL     1      -5.004   1.257 -32.931  1.00  0.00    -0.067 N 
HETATM    4  H   UNL     1      -4.466   0.869 -33.730  1.00  0.00     0.280 HD
HETATM    5  C   UNL     1      -6.044   2.208 -33.482  1.00  0.00     0.235 C 
HETATM    6  C   UNL     1      -5.590   3.582 -33.006  1.00  0.00     0.035 C 
ENDROOT
BRANCH   3   7
HETATM    7  C   UNL     1      -5.575   0.019 -32.280  1.00  0.00     0.276 C 
BRANCH   7   8
HETATM    8  C   UNL     1      -5.630  -1.169 -33.199  1.00  0.00     0.002 A 
HETATM    9  C   UNL     1      -4.657  -2.175 -33.132  1.00  0.00     0.091 A 
HETATM   10  C   UNL     1      -4.735  -3.307 -33.948  1.00  0.00     0.044 A 
HETATM   11 BR   UNL     1      -3.419  -4.663 -33.845  1.00  0.00    -0.048 Br
HETATM   12  C   UNL     1      -5.787  -3.443 -34.849  1.00  0.00     0.022 A 
HETATM   13  C   UNL     1      -6.762  -2.448 -34.929  1.00  0.00     0.002 A 
HETATM   14  C   UNL     1      -6.689  -1.320 -34.107  1.00  0.00     0.012 A 
BRANCH   9  15
HETATM   15  O   UNL     1      -3.620  -1.997 -32.248  1.00  0.00    -0.359 OA
HETATM   16  H   UNL     1      -4.026  -1.673 -31.412  1.00  0.00     0.218 HD
ENDBRANCH   9  15
ENDBRANCH   7   8
ENDBRANCH   3   7
BRANCH   1  17
HETATM   17  C   UNL     1      -4.004   4.458 -31.206  1.00  0.00     0.127 C 
BRANCH  17  18
HETATM   18  N   UNL     1      -2.590   4.117 -31.299  1.00  0.00    -0.376 N 
HETATM   19  H   UNL     1      -2.390   3.523 -32.113  1.00  0.00     0.161 HD
BRANCH  18  20
HETATM   20  C   UNL     1      -1.530   4.996 -31.099  1.00  0.00     0.100 A 
HETATM   21  C   UNL     1      -1.321   6.028 -32.028  1.00  0.00     0.048 A 
HETATM   22  C   UNL     1      -0.234   6.889 -31.896  1.00  0.00     0.005 A 
HETATM   23  C   UNL     1       0.647   6.714 -30.839  1.00  0.00     0.017 A 
HETATM   24  C   UNL     1       0.417   5.684 -29.941  1.00  0.00     0.089 A 
HETATM   25  N   UNL     1      -0.640   4.868 -30.100  1.00  0.00    -0.353 N 
HETATM   26  H   UNL     1      -0.777   4.138 -29.410  1.00  0.00     0.166 HD
ENDBRANCH  18  20
ENDBRANCH  17  18
ENDBRANCH   1  17
TORSDOF 6
ENDMDL
MODEL 6
REMARK VINA RESULT:      -7.2      5.693      6.816
REMARK  6 active torsions:
REMARK  status: ('A' for Active; 'I' for Inactive)
REMARK    1  A    between atoms: C_3  and  N_4 
REMARK    2  A    between atoms: N_4  and  C_5 
REMARK    3  A    between atoms: C_5  and  C_6 
REMARK    4  A    between atoms: N_8  and  C_10 
REMARK    5  A    between atoms: C_10  and  C_11 
REMARK    6  A    between atoms: C_12  and  O_13 
ROOT
HETATM    1  C   UNL     1      -6.216   1.155 -32.759  1.00  0.00     0.031 C 
HETATM    2  C   UNL     1      -7.446   1.102 -33.660  1.00  0.00     0.241 C 
HETATM    3  N   UNL     1      -7.798   2.552 -33.873  1.00  0.00    -0.067 N 
HETATM    4  H   UNL     1      -8.053   2.689 -34.871  1.00  0.00     0.280 HD
HETATM    5  C   UNL     1      -6.568   3.382 -33.582  1.00  0.00     0.235 C 
HETATM    6  C   UNL     1      -5.470   2.356 -33.332  1.00  0.00     0.035 C 
ENDROOT
BRANCH   3   7
HETATM    7  C   UNL     1      -9.042   3.006 -33.146  1.00  0.00     0.276 C 
BRANCH   7   8
HETATM    8  C   UNL     1     -10.307   2.783 -33.927  1.00  0.00     0.002 A 
HETATM    9  C   UNL     1     -11.165   1.721 -33.616  1.00  0.00     0.091 A 
HETATM   10  C   UNL     1     -12.369   1.542 -34.305  1.00  0.00     0.044 A 
HETATM   11 BR   UNL     1     -13.525   0.108 -33.873  1.00  0.00    -0.048 Br
HETATM   12  C   UNL     1     -12.724   2.424 -35.322  1.00  0.00     0.022 A 
HETATM   13  C   UNL     1     -11.877   3.485 -35.645  1.00  0.00     0.002 A 
HETATM   14  C   UNL     1     -10.679   3.669 -34.950  1.00  0.00     0.012 A 
BRANCH   9  15
HETATM   15  O   UNL     1     -10.772   0.856 -32.623  1.00  0.00    -0.359 OA
HETATM   16  H   UNL     1      -9.988   1.269 -32.196  1.00  0.00     0.218 HD
ENDBRANCH   9  15
ENDBRANCH   7   8
ENDBRANCH   3   7
BRANCH   1  17
HETATM   17  C   UNL     1      -5.391  -0.133 -32.768  1.00  0.00     0.127 C 
BRANCH  17  18
HETATM   18  N   UNL     1      -5.489  -0.790 -34.065  1.00  0.00    -0.376 N 
HETATM   19  H   UNL     1      -4.947  -0.299 -34.788  1.00  0.00     0.161 HD
BRANCH  18  20
HETATM   20  C   UNL     1      -5.413  -2.162 -34.286  1.00  0.00     0.100 A 
HETATM   21  C   UNL     1      -6.552  -2.838 -34.748  1.00  0.00     0.048 A 
HETATM   22  C   UNL     1      -6.533  -4.220 -34.922  1.00  0.00     0.005 A 
HETATM   23  C   UNL     1      -5.376  -4.926 -34.627  1.00  0.00     0.017 A 
HETATM   24  C   UNL     1      -4.268  -4.231 -34.169  1.00  0.00     0.089 A 
HETATM   25  N   UNL     1      -4.323  -2.896 -34.008  1.00  0.00    -0.353 N 
HETATM   26  H   UNL     1      -3.483  -2.429 -33.685  1.00  0.00     0.166 HD
ENDBRANCH  18  20
ENDBRANCH  17  18
ENDBRANCH   1  17
TORSDOF 6
ENDMDL
MODEL 7
REMARK VINA RESULT:      -7.1      3.966      5.493
REMARK  6 active torsions:
REMARK  status: ('A' for Active; 'I' for Inactive)
REMARK    1  A    between atoms: C_3  and  N_4 
REMARK    2  A    between atoms: N_4  and  C_5 
REMARK    3  A    between atoms: C_5  and  C_6 
REMARK    4  A    between atoms: N_8  and  C_10 
REMARK    5  A    between atoms: C_10  and  C_11 
REMARK    6  A    between atoms: C_12  and  O_13 
ROOT
HETATM    1  C   UNL     1      -4.750   0.101 -31.584  1.00  0.00     0.031 C 
HETATM    2  C   UNL     1      -5.836   0.724 -32.456  1.00  0.00     0.241 C 
HETATM    3  N   UNL     1      -6.235   1.965 -31.700  1.00  0.00    -0.067 N 
HETATM    4  H   UNL     1      -6.354   2.743 -32.378  1.00  0.00     0.280 HD
HETATM    5  C   UNL     1      -5.107   2.327 -30.760  1.00  0.00     0.235 C 
HETATM    6  C   UNL     1      -3.999   1.338 -31.102  1.00  0.00     0.035 C 
ENDROOT
BRANCH   3   7
HETATM    7  C   UNL     1      -7.592   1.887 -31.042  1.00  0.00     0.276 C 
BRANCH   7   8
HETATM    8  C   UNL     1      -8.717   1.666 -32.014  1.00  0.00     0.002 A 
HETATM    9  C   UNL     1      -9.146   2.695 -32.862  1.00  0.00     0.091 A 
HETATM   10  C   UNL     1     -10.156   2.478 -33.804  1.00  0.00     0.044 A 
HETATM   11 BR   UNL     1     -10.723   3.872 -34.950  1.00  0.00    -0.048 Br
HETATM   12  C   UNL     1     -10.755   1.225 -33.903  1.00  0.00     0.022 A 
HETATM   13  C   UNL     1     -10.341   0.191 -33.062  1.00  0.00     0.002 A 
HETATM   14  C   UNL     1      -9.325   0.406 -32.127  1.00  0.00     0.012 A 
BRANCH   9  15
HETATM   15  O   UNL     1      -8.549   3.925 -32.722  1.00  0.00    -0.359 OA
HETATM   16  H   UNL     1      -7.706   3.878 -33.228  1.00  0.00     0.218 HD
ENDBRANCH   9  15
ENDBRANCH   7   8
ENDBRANCH   3   7
BRANCH   1  17
HETATM   17  C   UNL     1      -3.861  -0.897 -32.329  1.00  0.00     0.127 C 
BRANCH  17  18
HETATM   18  N   UNL     1      -4.381  -1.139 -33.668  1.00  0.00    -0.376 N 
HETATM   19  H   UNL     1      -3.762  -0.760 -34.396  1.00  0.00     0.161 HD
BRANCH  18  20
HETATM   20  C   UNL     1      -4.941  -2.332 -34.117  1.00  0.00     0.100 A 
HETATM   21  C   UNL     1      -6.311  -2.367 -34.416  1.00  0.00     0.048 A 
HETATM   22  C   UNL     1      -6.920  -3.557 -34.807  1.00  0.00     0.005 A 
HETATM   23  C   UNL     1      -6.159  -4.713 -34.894  1.00  0.00     0.017 A 
HETATM   24  C   UNL     1      -4.808  -4.648 -34.589  1.00  0.00     0.089 A 
HETATM   25  N   UNL     1      -4.253  -3.483 -34.210  1.00  0.00    -0.353 N 
HETATM   26  H   UNL     1      -3.259  -3.480 -34.011  1.00  0.00     0.166 HD
ENDBRANCH  18  20
ENDBRANCH  17  18
ENDBRANCH   1  17
TORSDOF 6
ENDMDL
MODEL 8
REMARK VINA RESULT:      -7.1      3.538      7.797
REMARK  6 active torsions:
REMARK  status: ('A' for Active; 'I' for Inactive)
REMARK    1  A    between atoms: C_3  and  N_4 
REMARK    2  A    between atoms: N_4  and  C_5 
REMARK    3  A    between atoms: C_5  and  C_6 
REMARK    4  A    between atoms: N_8  and  C_10 
REMARK    5  A    between atoms: C_10  and  C_11 
REMARK    6  A    between atoms: C_12  and  O_13 
ROOT
HETATM    1  C   UNL     1      -5.390   3.745 -31.719  1.00  0.00     0.031 C 
HETATM    2  C   UNL     1      -5.672   2.781 -32.868  1.00  0.00     0.241 C 
HETATM    3  N   UNL     1      -5.764   1.436 -32.194  1.00  0.00    -0.067 N 
HETATM    4  H   UNL     1      -6.559   0.911 -32.607  1.00  0.00     0.280 HD
HETATM    5  C   UNL     1      -6.060   1.664 -30.728  1.00  0.00     0.235 C 
HETATM    6  C   UNL     1      -6.271   3.168 -30.615  1.00  0.00     0.035 C 
ENDROOT
BRANCH   3   7
HETATM    7  C   UNL     1      -4.589   0.523 -32.457  1.00  0.00     0.276 C 
BRANCH   7   8
HETATM    8  C   UNL     1      -4.941  -0.683 -33.281  1.00  0.00     0.002 A 
HETATM    9  C   UNL     1      -4.218  -1.876 -33.154  1.00  0.00     0.091 A 
HETATM   10  C   UNL     1      -4.576  -3.016 -33.879  1.00  0.00     0.044 A 
HETATM   11 BR   UNL     1      -3.596  -4.624 -33.696  1.00  0.00    -0.048 Br
HETATM   12  C   UNL     1      -5.662  -2.973 -34.749  1.00  0.00     0.022 A 
HETATM   13  C   UNL     1      -6.390  -1.790 -34.889  1.00  0.00     0.002 A 
HETATM   14  C   UNL     1      -6.038  -0.654 -34.156  1.00  0.00     0.012 A 
BRANCH   9  15
HETATM   15  O   UNL     1      -3.137  -1.876 -32.304  1.00  0.00    -0.359 OA
HETATM   16  H   UNL     1      -2.610  -1.078 -32.533  1.00  0.00     0.218 HD
ENDBRANCH   9  15
ENDBRANCH   7   8
ENDBRANCH   3   7
BRANCH   1  17
HETATM   17  C   UNL     1      -5.707   5.205 -32.050  1.00  0.00     0.127 C 
BRANCH  17  18
HETATM   18  N   UNL     1      -5.172   5.557 -33.359  1.00  0.00    -0.376 N 
HETATM   19  H   UNL     1      -5.768   6.237 -33.848  1.00  0.00     0.161 HD
BRANCH  18  20
HETATM   20  C   UNL     1      -3.837   5.827 -33.642  1.00  0.00     0.100 A 
HETATM   21  C   UNL     1      -3.186   5.067 -34.626  1.00  0.00     0.048 A 
HETATM   22  C   UNL     1      -1.833   5.266 -34.894  1.00  0.00     0.005 A 
HETATM   23  C   UNL     1      -1.131   6.220 -34.173  1.00  0.00     0.017 A 
HETATM   24  C   UNL     1      -1.800   6.951 -33.204  1.00  0.00     0.089 A 
HETATM   25  N   UNL     1      -3.106   6.731 -32.968  1.00  0.00    -0.353 N 
HETATM   26  H   UNL     1      -3.557   7.300 -32.261  1.00  0.00     0.166 HD
ENDBRANCH  18  20
ENDBRANCH  17  18
ENDBRANCH   1  17
TORSDOF 6
ENDMDL
MODEL 9
REMARK VINA RESULT:      -7.0      5.222      7.201
REMARK  6 active torsions:
REMARK  status: ('A' for Active; 'I' for Inactive)
REMARK    1  A    between atoms: C_3  and  N_4 
REMARK    2  A    between atoms: N_4  and  C_5 
REMARK    3  A    between atoms: C_5  and  C_6 
REMARK    4  A    between atoms: N_8  and  C_10 
REMARK    5  A    between atoms: C_10  and  C_11 
REMARK    6  A    between atoms: C_12  and  O_13 
ROOT
HETATM    1  C   UNL     1      -7.573   2.184 -31.492  1.00  0.00     0.031 C 
HETATM    2  C   UNL     1      -7.257   0.719 -31.778  1.00  0.00     0.241 C 
HETATM    3  N   UNL     1      -5.841   0.555 -31.291  1.00  0.00    -0.067 N 
HETATM    4  H   UNL     1      -5.765  -0.349 -30.786  1.00  0.00     0.280 HD
HETATM    5  C   UNL     1      -5.548   1.669 -30.310  1.00  0.00     0.235 C 
HETATM    6  C   UNL     1      -6.881   2.389 -30.148  1.00  0.00     0.035 C 
ENDROOT
BRANCH   3   7
HETATM    7  C   UNL     1      -4.815   0.410 -32.390  1.00  0.00     0.276 C 
BRANCH   7   8
HETATM    8  C   UNL     1      -5.043  -0.789 -33.268  1.00  0.00     0.002 A 
HETATM    9  C   UNL     1      -4.291  -1.958 -33.097  1.00  0.00     0.091 A 
HETATM   10  C   UNL     1      -4.537  -3.093 -33.875  1.00  0.00     0.044 A 
HETATM   11 BR   UNL     1      -3.520  -4.670 -33.632  1.00  0.00    -0.048 Br
HETATM   12  C   UNL     1      -5.538  -3.068 -34.842  1.00  0.00     0.022 A 
HETATM   13  C   UNL     1      -6.293  -1.909 -35.026  1.00  0.00     0.002 A 
HETATM   14  C   UNL     1      -6.053  -0.778 -34.242  1.00  0.00     0.012 A 
BRANCH   9  15
HETATM   15  O   UNL     1      -3.296  -1.941 -32.149  1.00  0.00    -0.359 OA
HETATM   16  H   UNL     1      -3.196  -1.001 -31.876  1.00  0.00     0.218 HD
ENDBRANCH   9  15
ENDBRANCH   7   8
ENDBRANCH   3   7
BRANCH   1  17
HETATM   17  C   UNL     1      -9.071   2.495 -31.459  1.00  0.00     0.127 C 
BRANCH  17  18
HETATM   18  N   UNL     1      -9.825   1.428 -32.103  1.00  0.00    -0.376 N 
HETATM   19  H   UNL     1     -10.196   0.753 -31.422  1.00  0.00     0.161 HD
BRANCH  18  20
HETATM   20  C   UNL     1     -10.746   1.595 -33.133  1.00  0.00     0.100 A 
HETATM   21  C   UNL     1     -10.613   2.700 -33.989  1.00  0.00     0.048 A 
HETATM   22  C   UNL     1     -11.550   2.935 -34.992  1.00  0.00     0.005 A 
HETATM   23  C   UNL     1     -12.624   2.069 -35.135  1.00  0.00     0.017 A 
HETATM   24  C   UNL     1     -12.731   0.989 -34.272  1.00  0.00     0.089 A 
HETATM   25  N   UNL     1     -11.810   0.794 -33.312  1.00  0.00    -0.353 N 
HETATM   26  H   UNL     1     -11.921  -0.017 -32.714  1.00  0.00     0.166 HD
ENDBRANCH  18  20
ENDBRANCH  17  18
ENDBRANCH   1  17
TORSDOF 6
ENDMDL
MODEL 10
REMARK VINA RESULT:      -6.8      1.672      2.190
REMARK  6 active torsions:
REMARK  status: ('A' for Active; 'I' for Inactive)
REMARK    1  A    between atoms: C_3  and  N_4 
REMARK    2  A    between atoms: N_4  and  C_5 
REMARK    3  A    between atoms: C_5  and  C_6 
REMARK    4  A    between atoms: N_8  and  C_10 
REMARK    5  A    between atoms: C_10  and  C_11 
REMARK    6  A    between atoms: C_12  and  O_13 
ROOT
HETATM    1  C   UNL     1      -6.415   1.357 -32.068  1.00  0.00     0.031 C 
HETATM    2  C   UNL     1      -5.091   1.875 -32.620  1.00  0.00     0.241 C 
HETATM    3  N   UNL     1      -4.611   2.835 -31.562  1.00  0.00    -0.067 N 
HETATM    4  H   UNL     1      -3.590   2.696 -31.426  1.00  0.00     0.280 HD
HETATM    5  C   UNL     1      -5.309   2.492 -30.265  1.00  0.00     0.235 C 
HETATM    6  C   UNL     1      -6.094   1.226 -30.582  1.00  0.00     0.035 C 
ENDROOT
BRANCH   3   7
HETATM    7  C   UNL     1      -4.701   4.291 -31.952  1.00  0.00     0.276 C 
BRANCH   7   8
HETATM    8  C   UNL     1      -3.740   5.172 -31.204  1.00  0.00     0.002 A 
HETATM    9  C   UNL     1      -2.356   5.011 -31.350  1.00  0.00     0.091 A 
HETATM   10  C   UNL     1      -1.459   5.862 -30.698  1.00  0.00     0.044 A 
HETATM   11 BR   UNL     1       0.409   5.640 -30.907  1.00  0.00    -0.048 Br
HETATM   12  C   UNL     1      -1.939   6.884 -29.883  1.00  0.00     0.022 A 
HETATM   13  C   UNL     1      -3.315   7.054 -29.725  1.00  0.00     0.002 A 
HETATM   14  C   UNL     1      -4.211   6.209 -30.385  1.00  0.00     0.012 A 
BRANCH   9  15
HETATM   15  O   UNL     1      -1.916   3.978 -32.143  1.00  0.00    -0.359 OA
HETATM   16  H   UNL     1      -2.355   3.166 -31.802  1.00  0.00     0.218 HD
ENDBRANCH   9  15
ENDBRANCH   7   8
ENDBRANCH   3   7
BRANCH   1  17
HETATM   17  C   UNL     1      -6.878   0.046 -32.707  1.00  0.00     0.127 C 
BRANCH  17  18
HETATM   18  N   UNL     1      -5.880  -0.436 -33.654  1.00  0.00    -0.376 N 
HETATM   19  H   UNL     1      -4.956  -0.018 -33.487  1.00  0.00     0.161 HD
BRANCH  18  20
HETATM   20  C   UNL     1      -5.720  -1.759 -34.058  1.00  0.00     0.100 A 
HETATM   21  C   UNL     1      -6.843  -2.472 -34.504  1.00  0.00     0.048 A 
HETATM   22  C   UNL     1      -6.735  -3.815 -34.857  1.00  0.00     0.005 A 
HETATM   23  C   UNL     1      -5.504  -4.446 -34.758  1.00  0.00     0.017 A 
HETATM   24  C   UNL     1      -4.414  -3.717 -34.309  1.00  0.00     0.089 A 
HETATM   25  N   UNL     1      -4.555  -2.422 -33.972  1.00  0.00    -0.353 N 
HETATM   26  H   UNL     1      -3.727  -1.925 -33.664  1.00  0.00     0.166 HD
ENDBRANCH  18  20
ENDBRANCH  17  18
ENDBRANCH   1  17
TORSDOF 6
ENDMDL
