MODEL 1
REMARK VINA RESULT:      -9.5      0.000      0.000
REMARK  6 active torsions:
REMARK  status: ('A' for Active; 'I' for Inactive)
REMARK    1  A    between atoms: C_9  and  N_10 
REMARK       I    between atoms: N_10  and  C_11 
REMARK    2  A    between atoms: C_11  and  C_12 
REMARK    3  A    between atoms: C_12  and  N_13 
REMARK    4  A    between atoms: C_12  and  C_21 
REMARK       I    between atoms: N_13  and  C_14 
REMARK    5  A    between atoms: C_14  and  C_15 
REMARK    6  A    between atoms: C_21  and  C_22 
ROOT
HETATM    1  C   UNL     1      -7.524  -0.272 -33.561  1.00  0.00     0.181 C 
ENDROOT
BRANCH   1   2
HETATM    2  C   UNL     1      -6.660   0.542 -32.567  1.00  0.00     0.245 C 
HETATM    3  N   UNL     1      -6.232   1.763 -33.052  1.00  0.00    -0.325 N 
HETATM    4  H   UNL     1      -6.621   2.044 -33.954  1.00  0.00     0.169 HD
HETATM    5  O   UNL     1      -6.435   0.091 -31.444  1.00  0.00    -0.271 OA
BRANCH   3   6
HETATM    6  C   UNL     1      -5.387   2.702 -32.427  1.00  0.00     0.037 A 
HETATM    7  C   UNL     1      -4.007   2.776 -32.650  1.00  0.00     0.063 A 
HETATM    8  C   UNL     1      -3.260   3.758 -31.975  1.00  0.00     0.087 A 
HETATM    9  N   UNL     1      -1.911   4.021 -32.018  1.00  0.00    -0.234 NA
HETATM   10  C   UNL     1      -3.904   4.635 -31.113  1.00  0.00     0.062 A 
HETATM   11  C   UNL     1      -1.718   5.036 -31.203  1.00  0.00     0.101 A 
HETATM   12  C   UNL     1      -0.428   5.694 -30.893  1.00  0.00     0.091 C 
HETATM   13  N   UNL     1      -2.902   5.443 -30.640  1.00  0.00    -0.343 N 
HETATM   14  H   UNL     1      -3.014   6.203 -29.987  1.00  0.00     0.167 HD
HETATM   15  C   UNL     1      -5.275   4.597 -30.869  1.00  0.00     0.034 A 
HETATM   16  C   UNL     1      -6.000   3.606 -31.546  1.00  0.00     0.032 A 
ENDBRANCH   3   6
ENDBRANCH   1   2
BRANCH   1  17
HETATM   17  N   UNL     1      -8.693   0.525 -33.960  1.00  0.00    -0.343 N 
HETATM   18  C   UNL     1      -9.942   0.427 -33.388  1.00  0.00     0.259 C 
HETATM   19  O   UNL     1     -10.157  -0.381 -32.484  1.00  0.00    -0.267 OA
HETATM   20  H   UNL     1      -8.599   1.117 -34.777  1.00  0.00     0.163 HD
BRANCH  18  21
HETATM   21  C   UNL     1     -10.969   1.306 -33.928  1.00  0.00     0.072 A 
HETATM   22  S   UNL     1     -10.625   2.896 -34.471  1.00  0.00    -0.097 SA
HETATM   23  C   UNL     1     -12.257   3.182 -34.893  1.00  0.00     0.050 A 
HETATM   24  C   UNL     1     -13.055   2.093 -34.631  1.00  0.00     0.009 A 
HETATM   25  C   UNL     1     -12.313   1.012 -34.075  1.00  0.00     0.025 A 
ENDBRANCH  18  21
ENDBRANCH   1  17
BRANCH   1  26
HETATM   26  C   UNL     1      -6.734  -0.843 -34.756  1.00  0.00     0.073 C 
BRANCH  26  27
HETATM   27  C   UNL     1      -6.074  -2.198 -34.591  1.00  0.00    -0.056 A 
HETATM   28  C   UNL     1      -4.739  -2.378 -34.207  1.00  0.00     0.007 A 
HETATM   29  C   UNL     1      -4.191  -3.661 -34.115  1.00  0.00     0.001 A 
HETATM   30  C   UNL     1      -4.962  -4.781 -34.415  1.00  0.00     0.000 A 
HETATM   31  C   UNL     1      -6.285  -4.620 -34.811  1.00  0.00     0.001 A 
HETATM   32  C   UNL     1      -6.835  -3.340 -34.902  1.00  0.00     0.007 A 
ENDBRANCH  26  27
ENDBRANCH   1  26
TORSDOF 6
ENDMDL
MODEL 2
REMARK VINA RESULT:      -9.2      2.050      5.521
REMARK  6 active torsions:
REMARK  status: ('A' for Active; 'I' for Inactive)
REMARK    1  A    between atoms: C_9  and  N_10 
REMARK       I    between atoms: N_10  and  C_11 
REMARK    2  A    between atoms: C_11  and  C_12 
REMARK    3  A    between atoms: C_12  and  N_13 
REMARK    4  A    between atoms: C_12  and  C_21 
REMARK       I    between atoms: N_13  and  C_14 
REMARK    5  A    between atoms: C_14  and  C_15 
REMARK    6  A    between atoms: C_21  and  C_22 
ROOT
HETATM    1  C   UNL     1      -8.455   0.418 -33.411  1.00  0.00     0.181 C 
ENDROOT
BRANCH   1   2
HETATM    2  C   UNL     1      -7.550   1.489 -32.755  1.00  0.00     0.245 C 
HETATM    3  N   UNL     1      -6.588   2.014 -33.596  1.00  0.00    -0.325 N 
HETATM    4  H   UNL     1      -6.650   1.730 -34.576  1.00  0.00     0.169 HD
HETATM    5  O   UNL     1      -7.745   1.818 -31.586  1.00  0.00    -0.271 OA
BRANCH   3   6
HETATM    6  C   UNL     1      -5.578   2.949 -33.290  1.00  0.00     0.037 A 
HETATM    7  C   UNL     1      -4.455   2.654 -32.507  1.00  0.00     0.063 A 
HETATM    8  C   UNL     1      -3.506   3.664 -32.269  1.00  0.00     0.087 A 
HETATM    9  N   UNL     1      -2.344   3.624 -31.535  1.00  0.00    -0.234 NA
HETATM   10  C   UNL     1      -3.696   4.924 -32.822  1.00  0.00     0.062 A 
HETATM   11  C   UNL     1      -1.823   4.829 -31.626  1.00  0.00     0.101 A 
HETATM   12  C   UNL     1      -0.566   5.302 -31.000  1.00  0.00     0.091 C 
HETATM   13  N   UNL     1      -2.607   5.644 -32.403  1.00  0.00    -0.343 N 
HETATM   14  H   UNL     1      -2.416   6.610 -32.624  1.00  0.00     0.167 HD
HETATM   15  C   UNL     1      -4.795   5.254 -33.610  1.00  0.00     0.034 A 
HETATM   16  C   UNL     1      -5.734   4.236 -33.829  1.00  0.00     0.032 A 
ENDBRANCH   3   6
ENDBRANCH   1   2
BRANCH   1  17
HETATM   17  N   UNL     1      -7.701  -0.834 -33.563  1.00  0.00    -0.343 N 
HETATM   18  C   UNL     1      -6.885  -1.134 -34.631  1.00  0.00     0.259 C 
HETATM   19  O   UNL     1      -6.753  -0.340 -35.563  1.00  0.00    -0.267 OA
HETATM   20  H   UNL     1      -7.868  -1.567 -32.885  1.00  0.00     0.163 HD
BRANCH  18  21
HETATM   21  C   UNL     1      -6.225  -2.431 -34.594  1.00  0.00     0.072 A 
HETATM   22  S   UNL     1      -4.584  -2.614 -34.127  1.00  0.00    -0.097 SA
HETATM   23  C   UNL     1      -4.632  -4.307 -34.359  1.00  0.00     0.050 A 
HETATM   24  C   UNL     1      -5.869  -4.734 -34.783  1.00  0.00     0.009 A 
HETATM   25  C   UNL     1      -6.787  -3.653 -34.918  1.00  0.00     0.025 A 
ENDBRANCH  18  21
ENDBRANCH   1  17
BRANCH   1  26
HETATM   26  C   UNL     1      -9.816   0.232 -32.710  1.00  0.00     0.073 C 
BRANCH  26  27
HETATM   27  C   UNL     1     -11.065   0.658 -33.457  1.00  0.00    -0.056 A 
HETATM   28  C   UNL     1     -12.287  -0.024 -33.393  1.00  0.00     0.007 A 
HETATM   29  C   UNL     1     -13.385   0.408 -34.145  1.00  0.00     0.001 A 
HETATM   30  C   UNL     1     -13.276   1.519 -34.977  1.00  0.00     0.000 A 
HETATM   31  C   UNL     1     -12.066   2.200 -35.063  1.00  0.00     0.001 A 
HETATM   32  C   UNL     1     -10.970   1.771 -34.313  1.00  0.00     0.007 A 
ENDBRANCH  26  27
ENDBRANCH   1  26
TORSDOF 6
ENDMDL
MODEL 3
REMARK VINA RESULT:      -8.6      2.373      7.397
REMARK  6 active torsions:
REMARK  status: ('A' for Active; 'I' for Inactive)
REMARK    1  A    between atoms: C_9  and  N_10 
REMARK       I    between atoms: N_10  and  C_11 
REMARK    2  A    between atoms: C_11  and  C_12 
REMARK    3  A    between atoms: C_12  and  N_13 
REMARK    4  A    between atoms: C_12  and  C_21 
REMARK       I    between atoms: N_13  and  C_14 
REMARK    5  A    between atoms: C_14  and  C_15 
REMARK    6  A    between atoms: C_21  and  C_22 
ROOT
HETATM    1  C   UNL     1      -5.840   0.986 -33.102  1.00  0.00     0.181 C 
ENDROOT
BRANCH   1   2
HETATM    2  C   UNL     1      -7.317   1.330 -32.791  1.00  0.00     0.245 C 
HETATM    3  N   UNL     1      -8.129   1.408 -33.906  1.00  0.00    -0.325 N 
HETATM    4  H   UNL     1      -7.703   1.120 -34.789  1.00  0.00     0.169 HD
HETATM    5  O   UNL     1      -7.675   1.481 -31.624  1.00  0.00    -0.271 OA
BRANCH   3   6
HETATM    6  C   UNL     1      -9.493   1.761 -33.969  1.00  0.00     0.037 A 
HETATM    7  C   UNL     1     -10.540   0.880 -33.672  1.00  0.00     0.063 A 
HETATM    8  C   UNL     1     -11.865   1.341 -33.762  1.00  0.00     0.087 A 
HETATM    9  N   UNL     1     -13.046   0.674 -33.535  1.00  0.00    -0.234 NA
HETATM   10  C   UNL     1     -12.107   2.657 -34.132  1.00  0.00     0.062 A 
HETATM   11  C   UNL     1     -14.001   1.552 -33.759  1.00  0.00     0.101 A 
HETATM   12  C   UNL     1     -15.460   1.321 -33.658  1.00  0.00     0.091 C 
HETATM   13  N   UNL     1     -13.473   2.768 -34.115  1.00  0.00    -0.343 N 
HETATM   14  H   UNL     1     -14.002   3.599 -34.333  1.00  0.00     0.167 HD
HETATM   15  C   UNL     1     -11.094   3.566 -34.429  1.00  0.00     0.034 A 
HETATM   16  C   UNL     1      -9.780   3.084 -34.341  1.00  0.00     0.032 A 
ENDBRANCH   3   6
ENDBRANCH   1   2
BRANCH   1  17
HETATM   17  N   UNL     1      -4.978   2.096 -32.670  1.00  0.00    -0.343 N 
HETATM   18  C   UNL     1      -5.000   3.362 -33.210  1.00  0.00     0.259 C 
HETATM   19  O   UNL     1      -5.765   3.638 -34.134  1.00  0.00    -0.267 OA
HETATM   20  H   UNL     1      -4.250   1.889 -31.996  1.00  0.00     0.163 HD
BRANCH  18  21
HETATM   21  C   UNL     1      -4.064   4.321 -32.642  1.00  0.00     0.072 A 
HETATM   22  S   UNL     1      -4.111   5.992 -33.028  1.00  0.00    -0.097 SA
HETATM   23  C   UNL     1      -2.777   6.338 -32.018  1.00  0.00     0.050 A 
HETATM   24  C   UNL     1      -2.298   5.210 -31.393  1.00  0.00     0.009 A 
HETATM   25  C   UNL     1      -3.039   4.048 -31.753  1.00  0.00     0.025 A 
ENDBRANCH  18  21
ENDBRANCH   1  17
BRANCH   1  26
HETATM   26  C   UNL     1      -5.389  -0.386 -32.561  1.00  0.00     0.073 C 
BRANCH  26  27
HETATM   27  C   UNL     1      -5.536  -1.592 -33.470  1.00  0.00    -0.056 A 
HETATM   28  C   UNL     1      -6.751  -2.011 -34.026  1.00  0.00     0.007 A 
HETATM   29  C   UNL     1      -6.812  -3.158 -34.823  1.00  0.00     0.001 A 
HETATM   30  C   UNL     1      -5.665  -3.908 -35.068  1.00  0.00     0.000 A 
HETATM   31  C   UNL     1      -4.452  -3.514 -34.514  1.00  0.00     0.001 A 
HETATM   32  C   UNL     1      -4.389  -2.369 -33.719  1.00  0.00     0.007 A 
ENDBRANCH  26  27
ENDBRANCH   1  26
TORSDOF 6
ENDMDL
MODEL 4
REMARK VINA RESULT:      -8.4      2.907      8.272
REMARK  6 active torsions:
REMARK  status: ('A' for Active; 'I' for Inactive)
REMARK    1  A    between atoms: C_9  and  N_10 
REMARK       I    between atoms: N_10  and  C_11 
REMARK    2  A    between atoms: C_11  and  C_12 
REMARK    3  A    between atoms: C_12  and  N_13 
REMARK    4  A    between atoms: C_12  and  C_21 
REMARK       I    between atoms: N_13  and  C_14 
REMARK    5  A    between atoms: C_14  and  C_15 
REMARK    6  A    between atoms: C_21  and  C_22 
ROOT
HETATM    1  C   UNL     1      -6.173   3.617 -33.593  1.00  0.00     0.181 C 
ENDROOT
BRANCH   1   2
HETATM    2  C   UNL     1      -7.696   3.857 -33.728  1.00  0.00     0.245 C 
HETATM    3  N   UNL     1      -8.480   2.864 -33.173  1.00  0.00    -0.325 N 
HETATM    4  H   UNL     1      -7.981   2.150 -32.640  1.00  0.00     0.169 HD
HETATM    5  O   UNL     1      -8.105   4.882 -34.272  1.00  0.00    -0.271 OA
BRANCH   3   6
HETATM    6  C   UNL     1      -9.885   2.753 -33.186  1.00  0.00     0.037 A 
HETATM    7  C   UNL     1     -10.581   1.752 -33.875  1.00  0.00     0.063 A 
HETATM    8  C   UNL     1     -11.986   1.734 -33.814  1.00  0.00     0.087 A 
HETATM    9  N   UNL     1     -12.881   0.873 -34.404  1.00  0.00    -0.234 NA
HETATM   10  C   UNL     1     -12.650   2.698 -33.068  1.00  0.00     0.062 A 
HETATM   11  C   UNL     1     -14.074   1.290 -34.037  1.00  0.00     0.101 A 
HETATM   12  C   UNL     1     -15.377   0.699 -34.417  1.00  0.00     0.091 C 
HETATM   13  N   UNL     1     -13.978   2.389 -33.220  1.00  0.00    -0.343 N 
HETATM   14  H   UNL     1     -14.752   2.887 -32.807  1.00  0.00     0.167 HD
HETATM   15  C   UNL     1     -11.995   3.706 -32.364  1.00  0.00     0.034 A 
HETATM   16  C   UNL     1     -10.595   3.711 -32.444  1.00  0.00     0.032 A 
ENDBRANCH   3   6
ENDBRANCH   1   2
BRANCH   1  17
HETATM   17  N   UNL     1      -5.870   2.210 -33.889  1.00  0.00    -0.343 N 
HETATM   18  C   UNL     1      -5.740   1.219 -32.942  1.00  0.00     0.259 C 
HETATM   19  O   UNL     1      -5.860   1.476 -31.744  1.00  0.00    -0.267 OA
HETATM   20  H   UNL     1      -5.645   1.971 -34.847  1.00  0.00     0.163 HD
BRANCH  18  21
HETATM   21  C   UNL     1      -5.437  -0.114 -33.441  1.00  0.00     0.072 A 
HETATM   22  S   UNL     1      -3.950  -0.903 -33.110  1.00  0.00    -0.097 SA
HETATM   23  C   UNL     1      -4.403  -2.287 -34.006  1.00  0.00     0.050 A 
HETATM   24  C   UNL     1      -5.660  -2.161 -34.549  1.00  0.00     0.009 A 
HETATM   25  C   UNL     1      -6.256  -0.909 -34.223  1.00  0.00     0.025 A 
ENDBRANCH  18  21
ENDBRANCH   1  17
BRANCH   1  26
HETATM   26  C   UNL     1      -5.308   4.612 -34.394  1.00  0.00     0.073 C 
BRANCH  26  27
HETATM   27  C   UNL     1      -3.862   4.795 -33.976  1.00  0.00    -0.056 A 
HETATM   28  C   UNL     1      -3.379   4.531 -32.689  1.00  0.00     0.007 A 
HETATM   29  C   UNL     1      -2.037   4.764 -32.369  1.00  0.00     0.001 A 
HETATM   30  C   UNL     1      -1.162   5.271 -33.325  1.00  0.00     0.000 A 
HETATM   31  C   UNL     1      -1.627   5.551 -34.606  1.00  0.00     0.001 A 
HETATM   32  C   UNL     1      -2.966   5.319 -34.927  1.00  0.00     0.007 A 
ENDBRANCH  26  27
ENDBRANCH   1  26
TORSDOF 6
ENDMDL
MODEL 5
REMARK VINA RESULT:      -8.4      2.170      5.488
REMARK  6 active torsions:
REMARK  status: ('A' for Active; 'I' for Inactive)
REMARK    1  A    between atoms: C_9  and  N_10 
REMARK       I    between atoms: N_10  and  C_11 
REMARK    2  A    between atoms: C_11  and  C_12 
REMARK    3  A    between atoms: C_12  and  N_13 
REMARK    4  A    between atoms: C_12  and  C_21 
REMARK       I    between atoms: N_13  and  C_14 
REMARK    5  A    between atoms: C_14  and  C_15 
REMARK    6  A    between atoms: C_21  and  C_22 
ROOT
HETATM    1  C   UNL     1      -7.376   2.154 -34.047  1.00  0.00     0.181 C 
ENDROOT
BRANCH   1   2
HETATM    2  C   UNL     1      -6.431   3.331 -33.707  1.00  0.00     0.245 C 
HETATM    3  N   UNL     1      -5.472   3.034 -32.758  1.00  0.00    -0.325 N 
HETATM    4  H   UNL     1      -5.415   2.055 -32.473  1.00  0.00     0.169 HD
HETATM    5  O   UNL     1      -6.562   4.406 -34.291  1.00  0.00    -0.271 OA
BRANCH   3   6
HETATM    6  C   UNL     1      -4.512   3.896 -32.189  1.00  0.00     0.037 A 
HETATM    7  C   UNL     1      -3.145   3.846 -32.488  1.00  0.00     0.063 A 
HETATM    8  C   UNL     1      -2.277   4.760 -31.865  1.00  0.00     0.087 A 
HETATM    9  N   UNL     1      -0.915   4.901 -31.985  1.00  0.00    -0.234 NA
HETATM   10  C   UNL     1      -2.792   5.695 -30.977  1.00  0.00     0.062 A 
HETATM   11  C   UNL     1      -0.587   5.898 -31.190  1.00  0.00     0.101 A 
HETATM   12  C   UNL     1       0.772   6.439 -30.958  1.00  0.00     0.091 C 
HETATM   13  N   UNL     1      -1.697   6.412 -30.567  1.00  0.00    -0.343 N 
HETATM   14  H   UNL     1      -1.704   7.182 -29.915  1.00  0.00     0.167 HD
HETATM   15  C   UNL     1      -4.145   5.781 -30.657  1.00  0.00     0.034 A 
HETATM   16  C   UNL     1      -4.993   4.856 -31.283  1.00  0.00     0.032 A 
ENDBRANCH   3   6
ENDBRANCH   1   2
BRANCH   1  17
HETATM   17  N   UNL     1      -6.632   0.889 -33.967  1.00  0.00    -0.343 N 
HETATM   18  C   UNL     1      -6.903  -0.230 -34.723  1.00  0.00     0.259 C 
HETATM   19  O   UNL     1      -7.834  -0.234 -35.528  1.00  0.00    -0.267 OA
HETATM   20  H   UNL     1      -5.935   0.801 -33.238  1.00  0.00     0.163 HD
BRANCH  18  21
HETATM   21  C   UNL     1      -6.048  -1.385 -34.493  1.00  0.00     0.072 A 
HETATM   22  S   UNL     1      -4.600  -1.291 -33.577  1.00  0.00    -0.097 SA
HETATM   23  C   UNL     1      -4.262  -2.950 -33.805  1.00  0.00     0.050 A 
HETATM   24  C   UNL     1      -5.227  -3.574 -34.562  1.00  0.00     0.009 A 
HETATM   25  C   UNL     1      -6.256  -2.672 -34.958  1.00  0.00     0.025 A 
ENDBRANCH  18  21
ENDBRANCH   1  17
BRANCH   1  26
HETATM   26  C   UNL     1      -8.687   2.146 -33.233  1.00  0.00     0.073 C 
BRANCH  26  27
HETATM   27  C   UNL     1      -9.994   2.292 -33.988  1.00  0.00    -0.056 A 
HETATM   28  C   UNL     1     -10.332   3.409 -34.761  1.00  0.00     0.007 A 
HETATM   29  C   UNL     1     -11.577   3.487 -35.395  1.00  0.00     0.001 A 
HETATM   30  C   UNL     1     -12.503   2.457 -35.259  1.00  0.00     0.000 A 
HETATM   31  C   UNL     1     -12.189   1.345 -34.484  1.00  0.00     0.001 A 
HETATM   32  C   UNL     1     -10.947   1.266 -33.852  1.00  0.00     0.007 A 
ENDBRANCH  26  27
ENDBRANCH   1  26
TORSDOF 6
ENDMDL
MODEL 6
REMARK VINA RESULT:      -8.2      2.651      7.190
REMARK  6 active torsions:
REMARK  status: ('A' for Active; 'I' for Inactive)
REMARK    1  A    between atoms: C_9  and  N_10 
REMARK       I    between atoms: N_10  and  C_11 
REMARK    2  A    between atoms: C_11  and  C_12 
REMARK    3  A    between atoms: C_12  and  N_13 
REMARK    4  A    between atoms: C_12  and  C_21 
REMARK       I    between atoms: N_13  and  C_14 
REMARK    5  A    between atoms: C_14  and  C_15 
REMARK    6  A    between atoms: C_21  and  C_22 
ROOT
HETATM    1  C   UNL     1      -6.600   0.897 -32.957  1.00  0.00     0.181 C 
ENDROOT
BRANCH   1   2
HETATM    2  C   UNL     1      -8.107   1.007 -32.620  1.00  0.00     0.245 C 
HETATM    3  N   UNL     1      -8.857   1.664 -33.576  1.00  0.00    -0.325 N 
HETATM    4  H   UNL     1      -8.369   1.899 -34.441  1.00  0.00     0.169 HD
HETATM    5  O   UNL     1      -8.537   0.504 -31.582  1.00  0.00    -0.271 OA
BRANCH   3   6
HETATM    6  C   UNL     1     -10.230   1.983 -33.539  1.00  0.00     0.037 A 
HETATM    7  C   UNL     1     -10.781   2.955 -32.696  1.00  0.00     0.063 A 
HETATM    8  C   UNL     1     -12.166   3.195 -32.746  1.00  0.00     0.087 A 
HETATM    9  N   UNL     1     -12.933   4.077 -32.021  1.00  0.00    -0.234 NA
HETATM   10  C   UNL     1     -12.953   2.473 -33.634  1.00  0.00     0.062 A 
HETATM   11  C   UNL     1     -14.168   3.908 -32.445  1.00  0.00     0.101 A 
HETATM   12  C   UNL     1     -15.375   4.622 -31.969  1.00  0.00     0.091 C 
HETATM   13  N   UNL     1     -14.222   2.951 -33.428  1.00  0.00    -0.343 N 
HETATM   14  H   UNL     1     -15.054   2.649 -33.911  1.00  0.00     0.167 HD
HETATM   15  C   UNL     1     -12.442   1.503 -34.492  1.00  0.00     0.034 A 
HETATM   16  C   UNL     1     -11.061   1.273 -34.421  1.00  0.00     0.032 A 
ENDBRANCH   3   6
ENDBRANCH   1   2
BRANCH   1  17
HETATM   17  N   UNL     1      -5.904   2.104 -32.488  1.00  0.00    -0.343 N 
HETATM   18  C   UNL     1      -5.738   3.252 -33.229  1.00  0.00     0.259 C 
HETATM   19  O   UNL     1      -6.169   3.325 -34.380  1.00  0.00    -0.267 OA
HETATM   20  H   UNL     1      -5.428   2.053 -31.595  1.00  0.00     0.163 HD
BRANCH  18  21
HETATM   21  C   UNL     1      -5.016   4.338 -32.582  1.00  0.00     0.072 A 
HETATM   22  S   UNL     1      -4.233   5.580 -33.471  1.00  0.00    -0.097 SA
HETATM   23  C   UNL     1      -3.685   6.352 -32.048  1.00  0.00     0.050 A 
HETATM   24  C   UNL     1      -4.087   5.686 -30.913  1.00  0.00     0.009 A 
HETATM   25  C   UNL     1      -4.854   4.526 -31.221  1.00  0.00     0.025 A 
ENDBRANCH  18  21
ENDBRANCH   1  17
BRANCH   1  26
HETATM   26  C   UNL     1      -5.944  -0.414 -32.478  1.00  0.00     0.073 C 
BRANCH  26  27
HETATM   27  C   UNL     1      -5.830  -1.556 -33.469  1.00  0.00    -0.056 A 
HETATM   28  C   UNL     1      -6.925  -2.161 -34.098  1.00  0.00     0.007 A 
HETATM   29  C   UNL     1      -6.741  -3.238 -34.971  1.00  0.00     0.001 A 
HETATM   30  C   UNL     1      -5.464  -3.732 -35.221  1.00  0.00     0.000 A 
HETATM   31  C   UNL     1      -4.366  -3.152 -34.596  1.00  0.00     0.001 A 
HETATM   32  C   UNL     1      -4.548  -2.077 -33.725  1.00  0.00     0.007 A 
ENDBRANCH  26  27
ENDBRANCH   1  26
TORSDOF 6
ENDMDL
MODEL 7
REMARK VINA RESULT:      -8.2      1.446      2.133
REMARK  6 active torsions:
REMARK  status: ('A' for Active; 'I' for Inactive)
REMARK    1  A    between atoms: C_9  and  N_10 
REMARK       I    between atoms: N_10  and  C_11 
REMARK    2  A    between atoms: C_11  and  C_12 
REMARK    3  A    between atoms: C_12  and  N_13 
REMARK    4  A    between atoms: C_12  and  C_21 
REMARK       I    between atoms: N_13  and  C_14 
REMARK    5  A    between atoms: C_14  and  C_15 
REMARK    6  A    between atoms: C_21  and  C_22 
ROOT
HETATM    1  C   UNL     1      -7.684   0.111 -34.101  1.00  0.00     0.181 C 
ENDROOT
BRANCH   1   2
HETATM    2  C   UNL     1      -6.775   1.347 -33.896  1.00  0.00     0.245 C 
HETATM    3  N   UNL     1      -6.184   1.418 -32.648  1.00  0.00    -0.325 N 
HETATM    4  H   UNL     1      -6.314   0.602 -32.047  1.00  0.00     0.169 HD
HETATM    5  O   UNL     1      -6.614   2.145 -34.818  1.00  0.00    -0.271 OA
BRANCH   3   6
HETATM    6  C   UNL     1      -5.362   2.440 -32.130  1.00  0.00     0.037 A 
HETATM    7  C   UNL     1      -5.854   3.591 -31.503  1.00  0.00     0.063 A 
HETATM    8  C   UNL     1      -4.942   4.544 -31.018  1.00  0.00     0.087 A 
HETATM    9  N   UNL     1      -5.175   5.743 -30.384  1.00  0.00    -0.234 NA
HETATM   10  C   UNL     1      -3.578   4.320 -31.159  1.00  0.00     0.062 A 
HETATM   11  C   UNL     1      -3.987   6.254 -30.139  1.00  0.00     0.101 A 
HETATM   12  C   UNL     1      -3.697   7.546 -29.475  1.00  0.00     0.091 C 
HETATM   13  N   UNL     1      -2.993   5.420 -30.585  1.00  0.00    -0.343 N 
HETATM   14  H   UNL     1      -2.002   5.590 -30.509  1.00  0.00     0.167 HD
HETATM   15  C   UNL     1      -3.050   3.186 -31.770  1.00  0.00     0.034 A 
HETATM   16  C   UNL     1      -3.977   2.252 -32.255  1.00  0.00     0.032 A 
ENDBRANCH   3   6
ENDBRANCH   1   2
BRANCH   1  17
HETATM   17  N   UNL     1      -9.077   0.549 -34.266  1.00  0.00    -0.343 N 
HETATM   18  C   UNL     1     -10.032   0.517 -33.274  1.00  0.00     0.259 C 
HETATM   19  O   UNL     1      -9.760   0.085 -32.154  1.00  0.00    -0.267 OA
HETATM   20  H   UNL     1      -9.382   0.801 -35.198  1.00  0.00     0.163 HD
BRANCH  18  21
HETATM   21  C   UNL     1     -11.357   0.996 -33.640  1.00  0.00     0.072 A 
HETATM   22  S   UNL     1     -12.732  -0.029 -33.661  1.00  0.00    -0.097 SA
HETATM   23  C   UNL     1     -13.760   1.239 -34.165  1.00  0.00     0.050 A 
HETATM   24  C   UNL     1     -13.080   2.425 -34.316  1.00  0.00     0.009 A 
HETATM   25  C   UNL     1     -11.695   2.285 -34.013  1.00  0.00     0.025 A 
ENDBRANCH  18  21
ENDBRANCH   1  17
BRANCH   1  26
HETATM   26  C   UNL     1      -7.205  -0.841 -35.216  1.00  0.00     0.073 C 
BRANCH  26  27
HETATM   27  C   UNL     1      -6.312  -2.003 -34.825  1.00  0.00    -0.056 A 
HETATM   28  C   UNL     1      -6.648  -3.349 -35.017  1.00  0.00     0.007 A 
HETATM   29  C   UNL     1      -5.788  -4.367 -34.592  1.00  0.00     0.001 A 
HETATM   30  C   UNL     1      -4.586  -4.056 -33.962  1.00  0.00     0.000 A 
HETATM   31  C   UNL     1      -4.243  -2.725 -33.751  1.00  0.00     0.001 A 
HETATM   32  C   UNL     1      -5.099  -1.708 -34.175  1.00  0.00     0.007 A 
ENDBRANCH  26  27
ENDBRANCH   1  26
TORSDOF 6
ENDMDL
MODEL 8
REMARK VINA RESULT:      -8.0      4.260     10.122
REMARK  6 active torsions:
REMARK  status: ('A' for Active; 'I' for Inactive)
REMARK    1  A    between atoms: C_9  and  N_10 
REMARK       I    between atoms: N_10  and  C_11 
REMARK    2  A    between atoms: C_11  and  C_12 
REMARK    3  A    between atoms: C_12  and  N_13 
REMARK    4  A    between atoms: C_12  and  C_21 
REMARK       I    between atoms: N_13  and  C_14 
REMARK    5  A    between atoms: C_14  and  C_15 
REMARK    6  A    between atoms: C_21  and  C_22 
ROOT
HETATM    1  C   UNL     1      -1.023   6.424 -30.991  1.00  0.00     0.181 C 
ENDROOT
BRANCH   1   2
HETATM    2  C   UNL     1      -1.845   5.441 -31.859  1.00  0.00     0.245 C 
HETATM    3  N   UNL     1      -2.831   4.761 -31.169  1.00  0.00    -0.325 N 
HETATM    4  H   UNL     1      -2.987   5.060 -30.205  1.00  0.00     0.169 HD
HETATM    5  O   UNL     1      -1.606   5.344 -33.061  1.00  0.00    -0.271 OA
BRANCH   3   6
HETATM    6  C   UNL     1      -3.700   3.760 -31.651  1.00  0.00     0.037 A 
HETATM    7  C   UNL     1      -3.296   2.451 -31.937  1.00  0.00     0.063 A 
HETATM    8  C   UNL     1      -4.250   1.532 -32.409  1.00  0.00     0.087 A 
HETATM    9  N   UNL     1      -4.099   0.212 -32.765  1.00  0.00    -0.234 NA
HETATM   10  C   UNL     1      -5.569   1.937 -32.569  1.00  0.00     0.062 A 
HETATM   11  C   UNL     1      -5.293  -0.196 -33.140  1.00  0.00     0.101 A 
HETATM   12  C   UNL     1      -5.658  -1.547 -33.624  1.00  0.00     0.091 C 
HETATM   13  N   UNL     1      -6.213   0.817 -33.029  1.00  0.00    -0.343 N 
HETATM   14  H   UNL     1      -7.194   0.749 -33.253  1.00  0.00     0.167 HD
HETATM   15  C   UNL     1      -6.011   3.227 -32.290  1.00  0.00     0.034 A 
HETATM   16  C   UNL     1      -5.043   4.131 -31.829  1.00  0.00     0.032 A 
ENDBRANCH   3   6
ENDBRANCH   1   2
BRANCH   1  17
HETATM   17  N   UNL     1      -1.881   7.540 -30.568  1.00  0.00    -0.343 N 
HETATM   18  C   UNL     1      -2.188   8.633 -31.348  1.00  0.00     0.259 C 
HETATM   19  O   UNL     1      -1.725   8.743 -32.484  1.00  0.00    -0.267 OA
HETATM   20  H   UNL     1      -2.188   7.555 -29.603  1.00  0.00     0.163 HD
BRANCH  18  21
HETATM   21  C   UNL     1      -3.056   9.633 -30.744  1.00  0.00     0.072 A 
HETATM   22  S   UNL     1      -4.767   9.524 -30.808  1.00  0.00    -0.097 SA
HETATM   23  C   UNL     1      -4.963  10.982 -29.939  1.00  0.00     0.050 A 
HETATM   24  C   UNL     1      -3.756  11.548 -29.600  1.00  0.00     0.009 A 
HETATM   25  C   UNL     1      -2.657  10.770 -30.065  1.00  0.00     0.025 A 
ENDBRANCH  18  21
ENDBRANCH   1  17
BRANCH   1  26
HETATM   26  C   UNL     1      -0.272   5.751 -29.822  1.00  0.00     0.073 C 
BRANCH  26  27
HETATM   27  C   UNL     1       0.246   6.637 -28.706  1.00  0.00    -0.056 A 
HETATM   28  C   UNL     1       1.015   7.789 -28.912  1.00  0.00     0.007 A 
HETATM   29  C   UNL     1       1.491   8.533 -27.827  1.00  0.00     0.001 A 
HETATM   30  C   UNL     1       1.215   8.132 -26.523  1.00  0.00     0.000 A 
HETATM   31  C   UNL     1       0.464   6.984 -26.299  1.00  0.00     0.001 A 
HETATM   32  C   UNL     1      -0.013   6.241 -27.381  1.00  0.00     0.007 A 
ENDBRANCH  26  27
ENDBRANCH   1  26
TORSDOF 6
ENDMDL
MODEL 9
REMARK VINA RESULT:      -8.0      3.068      7.820
REMARK  6 active torsions:
REMARK  status: ('A' for Active; 'I' for Inactive)
REMARK    1  A    between atoms: C_9  and  N_10 
REMARK       I    between atoms: N_10  and  C_11 
REMARK    2  A    between atoms: C_11  and  C_12 
REMARK    3  A    between atoms: C_12  and  N_13 
REMARK    4  A    between atoms: C_12  and  C_21 
REMARK       I    between atoms: N_13  and  C_14 
REMARK    5  A    between atoms: C_14  and  C_15 
REMARK    6  A    between atoms: C_21  and  C_22 
ROOT
HETATM    1  C   UNL     1      -6.981   4.116 -32.881  1.00  0.00     0.181 C 
ENDROOT
BRANCH   1   2
HETATM    2  C   UNL     1      -6.853   2.581 -32.728  1.00  0.00     0.245 C 
HETATM    3  N   UNL     1      -6.244   1.952 -33.797  1.00  0.00    -0.325 N 
HETATM    4  H   UNL     1      -5.846   2.567 -34.508  1.00  0.00     0.169 HD
HETATM    5  O   UNL     1      -7.256   2.035 -31.702  1.00  0.00    -0.271 OA
BRANCH   3   6
HETATM    6  C   UNL     1      -6.037   0.571 -33.993  1.00  0.00     0.037 A 
HETATM    7  C   UNL     1      -4.949  -0.136 -33.467  1.00  0.00     0.063 A 
HETATM    8  C   UNL     1      -4.845  -1.514 -33.722  1.00  0.00     0.087 A 
HETATM    9  N   UNL     1      -3.878  -2.411 -33.330  1.00  0.00    -0.234 NA
HETATM   10  C   UNL     1      -5.824  -2.146 -34.478  1.00  0.00     0.062 A 
HETATM   11  C   UNL     1      -4.244  -3.572 -33.831  1.00  0.00     0.101 A 
HETATM   12  C   UNL     1      -3.528  -4.862 -33.696  1.00  0.00     0.091 C 
HETATM   13  N   UNL     1      -5.422  -3.456 -34.526  1.00  0.00    -0.343 N 
HETATM   14  H   UNL     1      -5.905  -4.207 -34.997  1.00  0.00     0.167 HD
HETATM   15  C   UNL     1      -6.923  -1.480 -35.013  1.00  0.00     0.034 A 
HETATM   16  C   UNL     1      -7.005  -0.105 -34.755  1.00  0.00     0.032 A 
ENDBRANCH   3   6
ENDBRANCH   1   2
BRANCH   1  17
HETATM   17  N   UNL     1      -5.689   4.676 -33.301  1.00  0.00    -0.343 N 
HETATM   18  C   UNL     1      -4.710   5.121 -32.442  1.00  0.00     0.259 C 
HETATM   19  O   UNL     1      -4.881   5.087 -31.223  1.00  0.00    -0.267 OA
HETATM   20  H   UNL     1      -5.547   4.836 -34.292  1.00  0.00     0.163 HD
BRANCH  18  21
HETATM   21  C   UNL     1      -3.499   5.643 -33.058  1.00  0.00     0.072 A 
HETATM   22  S   UNL     1      -2.737   7.081 -32.515  1.00  0.00    -0.097 SA
HETATM   23  C   UNL     1      -1.509   6.963 -33.698  1.00  0.00     0.050 A 
HETATM   24  C   UNL     1      -1.667   5.853 -34.496  1.00  0.00     0.009 A 
HETATM   25  C   UNL     1      -2.813   5.093 -34.126  1.00  0.00     0.025 A 
ENDBRANCH  18  21
ENDBRANCH   1  17
BRANCH   1  26
HETATM   26  C   UNL     1      -8.160   4.561 -33.770  1.00  0.00     0.073 C 
BRANCH  26  27
HETATM   27  C   UNL     1      -9.493   3.861 -33.587  1.00  0.00    -0.056 A 
HETATM   28  C   UNL     1     -10.015   2.921 -34.485  1.00  0.00     0.007 A 
HETATM   29  C   UNL     1     -11.272   2.348 -34.267  1.00  0.00     0.001 A 
HETATM   30  C   UNL     1     -12.030   2.712 -33.157  1.00  0.00     0.000 A 
HETATM   31  C   UNL     1     -11.533   3.654 -32.262  1.00  0.00     0.001 A 
HETATM   32  C   UNL     1     -10.278   4.226 -32.478  1.00  0.00     0.007 A 
ENDBRANCH  26  27
ENDBRANCH   1  26
TORSDOF 6
ENDMDL
MODEL 10
REMARK VINA RESULT:      -8.0      1.679      2.279
REMARK  6 active torsions:
REMARK  status: ('A' for Active; 'I' for Inactive)
REMARK    1  A    between atoms: C_9  and  N_10 
REMARK       I    between atoms: N_10  and  C_11 
REMARK    2  A    between atoms: C_11  and  C_12 
REMARK    3  A    between atoms: C_12  and  N_13 
REMARK    4  A    between atoms: C_12  and  C_21 
REMARK       I    between atoms: N_13  and  C_14 
REMARK    5  A    between atoms: C_14  and  C_15 
REMARK    6  A    between atoms: C_21  and  C_22 
ROOT
HETATM    1  C   UNL     1      -7.422   1.710 -33.429  1.00  0.00     0.181 C 
ENDROOT
BRANCH   1   2
HETATM    2  C   UNL     1      -6.639   2.990 -33.048  1.00  0.00     0.245 C 
HETATM    3  N   UNL     1      -5.322   2.765 -32.693  1.00  0.00    -0.325 N 
HETATM    4  H   UNL     1      -4.980   1.813 -32.830  1.00  0.00     0.169 HD
HETATM    5  O   UNL     1      -7.196   4.085 -33.106  1.00  0.00    -0.271 OA
BRANCH   3   6
HETATM    6  C   UNL     1      -4.371   3.701 -32.237  1.00  0.00     0.037 A 
HETATM    7  C   UNL     1      -4.631   4.657 -31.247  1.00  0.00     0.063 A 
HETATM    8  C   UNL     1      -3.604   5.538 -30.865  1.00  0.00     0.087 A 
HETATM    9  N   UNL     1      -3.617   6.554 -29.939  1.00  0.00    -0.234 NA
HETATM   10  C   UNL     1      -2.357   5.436 -31.467  1.00  0.00     0.062 A 
HETATM   11  C   UNL     1      -2.408   7.075 -29.963  1.00  0.00     0.101 A 
HETATM   12  C   UNL     1      -1.913   8.209 -29.149  1.00  0.00     0.091 C 
HETATM   13  N   UNL     1      -1.611   6.421 -30.870  1.00  0.00    -0.343 N 
HETATM   14  H   UNL     1      -0.645   6.633 -31.066  1.00  0.00     0.167 HD
HETATM   15  C   UNL     1      -2.057   4.496 -32.449  1.00  0.00     0.034 A 
HETATM   16  C   UNL     1      -3.096   3.632 -32.822  1.00  0.00     0.032 A 
ENDBRANCH   3   6
ENDBRANCH   1   2
BRANCH   1  17
HETATM   17  N   UNL     1      -8.848   2.036 -33.578  1.00  0.00    -0.343 N 
HETATM   18  C   UNL     1      -9.883   1.165 -33.319  1.00  0.00     0.259 C 
HETATM   19  O   UNL     1      -9.656   0.013 -32.948  1.00  0.00    -0.267 OA
HETATM   20  H   UNL     1      -9.084   2.929 -33.994  1.00  0.00     0.163 HD
BRANCH  18  21
HETATM   21  C   UNL     1     -11.227   1.681 -33.530  1.00  0.00     0.072 A 
HETATM   22  S   UNL     1     -12.580   0.652 -33.768  1.00  0.00    -0.097 SA
HETATM   23  C   UNL     1     -13.649   1.976 -33.929  1.00  0.00     0.050 A 
HETATM   24  C   UNL     1     -12.999   3.182 -33.804  1.00  0.00     0.009 A 
HETATM   25  C   UNL     1     -11.604   3.011 -33.574  1.00  0.00     0.025 A 
ENDBRANCH  18  21
ENDBRANCH   1  17
BRANCH   1  26
HETATM   26  C   UNL     1      -6.837   0.953 -34.639  1.00  0.00     0.073 C 
BRANCH  26  27
HETATM   27  C   UNL     1      -6.272  -0.434 -34.405  1.00  0.00    -0.056 A 
HETATM   28  C   UNL     1      -5.006  -0.683 -33.860  1.00  0.00     0.007 A 
HETATM   29  C   UNL     1      -4.538  -1.993 -33.711  1.00  0.00     0.001 A 
HETATM   30  C   UNL     1      -5.322  -3.071 -34.114  1.00  0.00     0.000 A 
HETATM   31  C   UNL     1      -6.576  -2.842 -34.669  1.00  0.00     0.001 A 
HETATM   32  C   UNL     1      -7.045  -1.535 -34.817  1.00  0.00     0.007 A 
ENDBRANCH  26  27
ENDBRANCH   1  26
TORSDOF 6
ENDMDL
